MODEL 1
REMARK VINA RESULT:      -7.5      0.000      0.000
REMARK  Name = 
REMARK  8 active torsions:
REMARK  status: ('A' for Active; 'I' for Inactive)
REMARK    1  A    between atoms: C_1  and  C_2
REMARK    2  A    between atoms: C_2  and  C_3
REMARK    3  A    between atoms: C_2  and  C_4
REMARK    4  A    between atoms: C_2  and  N_5
REMARK    5  A    between atoms: C_6  and  C_8
REMARK    6  A    between atoms: C_12  and  N_13
REMARK    7  A    between atoms: C_14  and  C_16
REMARK    8  A    between atoms: C_16  and  C_17
REMARK                            x       y       z     vdW  Elec       q    Type
REMARK                         _______ _______ _______ _____ _____    ______ ____
ROOT
ATOM      1  C   UNL     1       6.546   4.593  15.632  0.00  0.00    +0.000 A 
ATOM      2  C   UNL     1       7.656   4.591  16.482  0.00  0.00    +0.000 A 
ATOM      3  C   UNL     1       7.470   4.653  17.861  0.00  0.00    +0.000 A 
ATOM      4  C   UNL     1       6.181   4.711  18.396  0.00  0.00    +0.000 A 
ATOM      5  C   UNL     1       5.060   4.711  17.564  0.00  0.00    +0.000 A 
ATOM      6  C   UNL     1       5.249   4.639  16.179  0.00  0.00    +0.000 A 
ENDROOT
BRANCH   1   8
ATOM      7  N   UNL     1       6.000   3.461  13.526  0.00  0.00    +0.000 N 
ATOM      8  C   UNL     1       6.695   4.481  14.151  0.00  0.00    +0.000 C 
ATOM      9  O   UNL     1       7.420   5.280  13.568  0.00  0.00    +0.000 OA
ATOM     10  H   UNL     1       5.567   2.753  14.102  0.00  0.00    +0.000 HD
BRANCH   7  12
ATOM     11  C   UNL     1       7.027   4.125  11.365  0.00  0.00    +0.000 C 
ATOM     12  C   UNL     1       5.995   3.231  12.070  0.00  0.00    +0.000 C 
ATOM     13  C   UNL     1       4.592   3.473  11.487  0.00  0.00    +0.000 C 
ATOM     14  C   UNL     1       6.375   1.760  11.803  0.00  0.00    +0.000 C 
ENDBRANCH   7  12
ENDBRANCH   1   8
BRANCH   5  15
ATOM     15  N   UNL     1       3.735   4.763  18.063  0.00  0.00    +0.000 N 
ATOM     16  C   UNL     1       2.975   5.911  18.255  0.00  0.00    +0.000 C 
ATOM     17  O   UNL     1       3.311   7.059  17.970  0.00  0.00    +0.000 OA
ATOM     18  H   UNL     1       3.269   3.872  18.199  0.00  0.00    +0.000 HD
BRANCH  16  19
ATOM     19  C   UNL     1       1.593   5.645  18.832  0.00  0.00    +0.000 C 
BRANCH  19  20
ATOM     20  C   UNL     1       1.695   4.553  19.853  0.00  0.00    +0.000 A 
ATOM     21  C   UNL     1       2.316   4.596  21.088  0.00  0.00    +0.000 A 
ATOM     22  C   UNL     1       2.143   3.388  21.820  0.00  0.00    +0.000 A 
ATOM     23  C   UNL     1       1.434   2.451  21.105  0.00  0.00    +0.000 A 
ATOM     24  S   UNL     1       0.978   3.027  19.561  0.00  0.00    +0.000 S 
ENDBRANCH  19  20
ENDBRANCH  16  19
ENDBRANCH   5  15
TORSDOF 5
ENDMDL
MODEL 2
REMARK VINA RESULT:      -7.2      0.680      1.305
REMARK  Name = 
REMARK  8 active torsions:
REMARK  status: ('A' for Active; 'I' for Inactive)
REMARK    1  A    between atoms: C_1  and  C_2
REMARK    2  A    between atoms: C_2  and  C_3
REMARK    3  A    between atoms: C_2  and  C_4
REMARK    4  A    between atoms: C_2  and  N_5
REMARK    5  A    between atoms: C_6  and  C_8
REMARK    6  A    between atoms: C_12  and  N_13
REMARK    7  A    between atoms: C_14  and  C_16
REMARK    8  A    between atoms: C_16  and  C_17
REMARK                            x       y       z     vdW  Elec       q    Type
REMARK                         _______ _______ _______ _____ _____    ______ ____
ROOT
ATOM      1  C   UNL     1       6.523   4.601  15.651  0.00  0.00    +0.000 A 
ATOM      2  C   UNL     1       7.632   4.574  16.501  0.00  0.00    +0.000 A 
ATOM      3  C   UNL     1       7.448   4.638  17.880  0.00  0.00    +0.000 A 
ATOM      4  C   UNL     1       6.160   4.721  18.414  0.00  0.00    +0.000 A 
ATOM      5  C   UNL     1       5.039   4.746  17.583  0.00  0.00    +0.000 A 
ATOM      6  C   UNL     1       5.228   4.673  16.197  0.00  0.00    +0.000 A 
ENDROOT
BRANCH   1   8
ATOM      7  N   UNL     1       6.020   3.435  13.552  0.00  0.00    +0.000 N 
ATOM      8  C   UNL     1       6.670   4.489  14.169  0.00  0.00    +0.000 C 
ATOM      9  O   UNL     1       7.355   5.316  13.579  0.00  0.00    +0.000 OA
ATOM     10  H   UNL     1       5.622   2.710  14.134  0.00  0.00    +0.000 HD
BRANCH   7  12
ATOM     11  C   UNL     1       6.282   1.719  11.778  0.00  0.00    +0.000 C 
ATOM     12  C   UNL     1       6.018   3.198  12.098  0.00  0.00    +0.000 C 
ATOM     13  C   UNL     1       7.060   4.089  11.402  0.00  0.00    +0.000 C 
ATOM     14  C   UNL     1       4.628   3.566  11.541  0.00  0.00    +0.000 C 
ENDBRANCH   7  12
ENDBRANCH   1   8
BRANCH   5  15
ATOM     15  N   UNL     1       3.716   4.825  18.081  0.00  0.00    +0.000 N 
ATOM     16  C   UNL     1       2.992   5.989  18.309  0.00  0.00    +0.000 C 
ATOM     17  O   UNL     1       3.365   7.135  18.060  0.00  0.00    +0.000 OA
ATOM     18  H   UNL     1       3.221   3.945  18.189  0.00  0.00    +0.000 HD
BRANCH  16  19
ATOM     19  C   UNL     1       1.602   5.750  18.875  0.00  0.00    +0.000 C 
BRANCH  19  20
ATOM     20  C   UNL     1       1.605   4.463  19.642  0.00  0.00    +0.000 A 
ATOM     21  C   UNL     1       1.146   3.225  19.232  0.00  0.00    +0.000 A 
ATOM     22  C   UNL     1       1.383   2.213  20.204  0.00  0.00    +0.000 A 
ATOM     23  C   UNL     1       1.976   2.719  21.338  0.00  0.00    +0.000 A 
ATOM     24  S   UNL     1       2.246   4.403  21.227  0.00  0.00    +0.000 S 
ENDBRANCH  19  20
ENDBRANCH  16  19
ENDBRANCH   5  15
TORSDOF 5
ENDMDL
MODEL 3
REMARK VINA RESULT:      -7.2      1.308      1.718
REMARK  Name = 
REMARK  8 active torsions:
REMARK  status: ('A' for Active; 'I' for Inactive)
REMARK    1  A    between atoms: C_1  and  C_2
REMARK    2  A    between atoms: C_2  and  C_3
REMARK    3  A    between atoms: C_2  and  C_4
REMARK    4  A    between atoms: C_2  and  N_5
REMARK    5  A    between atoms: C_6  and  C_8
REMARK    6  A    between atoms: C_12  and  N_13
REMARK    7  A    between atoms: C_14  and  C_16
REMARK    8  A    between atoms: C_16  and  C_17
REMARK                            x       y       z     vdW  Elec       q    Type
REMARK                         _______ _______ _______ _____ _____    ______ ____
ROOT
ATOM      1  C   UNL     1       6.429   4.485  15.631  0.00  0.00    +0.000 A 
ATOM      2  C   UNL     1       7.525   4.608  16.490  0.00  0.00    +0.000 A 
ATOM      3  C   UNL     1       7.325   4.628  17.868  0.00  0.00    +0.000 A 
ATOM      4  C   UNL     1       6.034   4.518  18.393  0.00  0.00    +0.000 A 
ATOM      5  C   UNL     1       4.927   4.392  17.553  0.00  0.00    +0.000 A 
ATOM      6  C   UNL     1       5.133   4.364  16.168  0.00  0.00    +0.000 A 
ENDROOT
BRANCH   1   8
ATOM      7  N   UNL     1       5.949   3.385  13.492  0.00  0.00    +0.000 N 
ATOM      8  C   UNL     1       6.599   4.414  14.149  0.00  0.00    +0.000 C 
ATOM      9  O   UNL     1       7.303   5.250  13.594  0.00  0.00    +0.000 OA
ATOM     10  H   UNL     1       5.534   2.649  14.046  0.00  0.00    +0.000 HD
BRANCH   7  12
ATOM     11  C   UNL     1       6.237   1.719  11.674  0.00  0.00    +0.000 C 
ATOM     12  C   UNL     1       5.969   3.189  12.031  0.00  0.00    +0.000 C 
ATOM     13  C   UNL     1       7.023   4.098  11.377  0.00  0.00    +0.000 C 
ATOM     14  C   UNL     1       4.588   3.575  11.464  0.00  0.00    +0.000 C 
ENDBRANCH   7  12
ENDBRANCH   1   8
BRANCH   5  15
ATOM     15  N   UNL     1       3.603   4.273  18.041  0.00  0.00    +0.000 N 
ATOM     16  C   UNL     1       2.525   3.716  17.364  0.00  0.00    +0.000 C 
ATOM     17  O   UNL     1       2.561   3.186  16.255  0.00  0.00    +0.000 OA
ATOM     18  H   UNL     1       3.455   4.533  19.012  0.00  0.00    +0.000 HD
BRANCH  16  19
ATOM     19  C   UNL     1       1.220   3.757  18.144  0.00  0.00    +0.000 C 
BRANCH  19  20
ATOM     20  C   UNL     1       1.513   3.524  19.594  0.00  0.00    +0.000 A 
ATOM     21  C   UNL     1       1.687   2.317  20.245  0.00  0.00    +0.000 A 
ATOM     22  C   UNL     1       2.028   2.487  21.616  0.00  0.00    +0.000 A 
ATOM     23  C   UNL     1       2.063   3.815  21.975  0.00  0.00    +0.000 A 
ATOM     24  S   UNL     1       1.689   4.847  20.664  0.00  0.00    +0.000 S 
ENDBRANCH  19  20
ENDBRANCH  16  19
ENDBRANCH   5  15
TORSDOF 5
ENDMDL
MODEL 4
REMARK VINA RESULT:      -7.2      2.510      7.315
REMARK  Name = 
REMARK  8 active torsions:
REMARK  status: ('A' for Active; 'I' for Inactive)
REMARK    1  A    between atoms: C_1  and  C_2
REMARK    2  A    between atoms: C_2  and  C_3
REMARK    3  A    between atoms: C_2  and  C_4
REMARK    4  A    between atoms: C_2  and  N_5
REMARK    5  A    between atoms: C_6  and  C_8
REMARK    6  A    between atoms: C_12  and  N_13
REMARK    7  A    between atoms: C_14  and  C_16
REMARK    8  A    between atoms: C_16  and  C_17
REMARK                            x       y       z     vdW  Elec       q    Type
REMARK                         _______ _______ _______ _____ _____    ______ ____
ROOT
ATOM      1  C   UNL     1       4.943   4.737  18.518  0.00  0.00    +0.000 A 
ATOM      2  C   UNL     1       5.819   5.210  19.499  0.00  0.00    +0.000 A 
ATOM      3  C   UNL     1       7.162   5.409  19.190  0.00  0.00    +0.000 A 
ATOM      4  C   UNL     1       7.634   5.144  17.902  0.00  0.00    +0.000 A 
ATOM      5  C   UNL     1       6.776   4.674  16.907  0.00  0.00    +0.000 A 
ATOM      6  C   UNL     1       5.424   4.483  17.219  0.00  0.00    +0.000 A 
ENDROOT
BRANCH   1   8
ATOM      7  N   UNL     1       3.144   3.661  19.791  0.00  0.00    +0.000 N 
ATOM      8  C   UNL     1       3.487   4.552  18.790  0.00  0.00    +0.000 C 
ATOM      9  O   UNL     1       2.676   5.182  18.120  0.00  0.00    +0.000 OA
ATOM     10  H   UNL     1       3.867   3.065  20.170  0.00  0.00    +0.000 HD
BRANCH   7  12
ATOM     11  C   UNL     1       1.015   2.539  19.185  0.00  0.00    +0.000 C 
ATOM     12  C   UNL     1       1.761   3.390  20.223  0.00  0.00    +0.000 C 
ATOM     13  C   UNL     1       1.006   4.704  20.480  0.00  0.00    +0.000 C 
ATOM     14  C   UNL     1       1.806   2.599  21.547  0.00  0.00    +0.000 C 
ENDBRANCH   7  12
ENDBRANCH   1   8
BRANCH   5  15
ATOM     15  N   UNL     1       7.210   4.397  15.588  0.00  0.00    +0.000 N 
ATOM     16  C   UNL     1       6.796   5.050  14.433  0.00  0.00    +0.000 C 
ATOM     17  O   UNL     1       6.030   6.010  14.379  0.00  0.00    +0.000 OA
ATOM     18  H   UNL     1       7.965   3.724  15.493  0.00  0.00    +0.000 HD
BRANCH  16  19
ATOM     19  C   UNL     1       7.424   4.506  13.159  0.00  0.00    +0.000 C 
BRANCH  19  20
ATOM     20  C   UNL     1       6.422   3.644  12.455  0.00  0.00    +0.000 A 
ATOM     21  C   UNL     1       5.054   3.825  12.366  0.00  0.00    +0.000 A 
ATOM     22  C   UNL     1       4.431   2.841  11.547  0.00  0.00    +0.000 A 
ATOM     23  C   UNL     1       5.337   1.919  11.075  0.00  0.00    +0.000 A 
ATOM     24  S   UNL     1       6.927   2.242  11.614  0.00  0.00    +0.000 S 
ENDBRANCH  19  20
ENDBRANCH  16  19
ENDBRANCH   5  15
TORSDOF 5
ENDMDL
MODEL 5
REMARK VINA RESULT:      -7.1      3.930      6.051
REMARK  Name = 
REMARK  8 active torsions:
REMARK  status: ('A' for Active; 'I' for Inactive)
REMARK    1  A    between atoms: C_1  and  C_2
REMARK    2  A    between atoms: C_2  and  C_3
REMARK    3  A    between atoms: C_2  and  C_4
REMARK    4  A    between atoms: C_2  and  N_5
REMARK    5  A    between atoms: C_6  and  C_8
REMARK    6  A    between atoms: C_12  and  N_13
REMARK    7  A    between atoms: C_14  and  C_16
REMARK    8  A    between atoms: C_16  and  C_17
REMARK                            x       y       z     vdW  Elec       q    Type
REMARK                         _______ _______ _______ _____ _____    ______ ____
ROOT
ATOM      1  C   UNL     1       3.314   4.521  18.798  0.00  0.00    +0.000 A 
ATOM      2  C   UNL     1       2.394   3.469  18.837  0.00  0.00    +0.000 A 
ATOM      3  C   UNL     1       1.260   3.571  19.638  0.00  0.00    +0.000 A 
ATOM      4  C   UNL     1       1.037   4.722  20.398  0.00  0.00    +0.000 A 
ATOM      5  C   UNL     1       1.942   5.784  20.372  0.00  0.00    +0.000 A 
ATOM      6  C   UNL     1       3.076   5.683  19.558  0.00  0.00    +0.000 A 
ENDROOT
BRANCH   1   8
ATOM      7  N   UNL     1       5.374   5.562  17.969  0.00  0.00    +0.000 N 
ATOM      8  C   UNL     1       4.519   4.476  17.918  0.00  0.00    +0.000 C 
ATOM      9  O   UNL     1       4.687   3.498  17.197  0.00  0.00    +0.000 OA
ATOM     10  H   UNL     1       5.069   6.390  18.461  0.00  0.00    +0.000 HD
BRANCH   7  12
ATOM     11  C   UNL     1       6.369   5.564  15.694  0.00  0.00    +0.000 C 
ATOM     12  C   UNL     1       6.630   5.666  17.205  0.00  0.00    +0.000 C 
ATOM     13  C   UNL     1       7.626   4.581  17.648  0.00  0.00    +0.000 C 
ATOM     14  C   UNL     1       7.266   7.042  17.489  0.00  0.00    +0.000 C 
ENDBRANCH   7  12
ENDBRANCH   1   8
BRANCH   5  15
ATOM     15  N   UNL     1       1.753   6.971  21.122  0.00  0.00    +0.000 N 
ATOM     16  C   UNL     1       1.554   8.246  20.605  0.00  0.00    +0.000 C 
ATOM     17  O   UNL     1       1.454   8.538  19.414  0.00  0.00    +0.000 OA
ATOM     18  H   UNL     1       1.658   6.861  22.126  0.00  0.00    +0.000 HD
BRANCH  16  19
ATOM     19  C   UNL     1       1.409   9.325  21.666  0.00  0.00    +0.000 C 
BRANCH  19  20
ATOM     20  C   UNL     1       0.560  10.432  21.120  0.00  0.00    +0.000 A 
ATOM     21  C   UNL     1      -0.819  10.484  21.033  0.00  0.00    +0.000 A 
ATOM     22  C   UNL     1      -1.281  11.731  20.525  0.00  0.00    +0.000 A 
ATOM     23  C   UNL     1      -0.239  12.571  20.203  0.00  0.00    +0.000 A 
ATOM     24  S   UNL     1       1.284  11.859  20.515  0.00  0.00    +0.000 S 
ENDBRANCH  19  20
ENDBRANCH  16  19
ENDBRANCH   5  15
TORSDOF 5
ENDMDL
MODEL 6
REMARK VINA RESULT:      -7.1      4.768      7.901
REMARK  Name = 
REMARK  8 active torsions:
REMARK  status: ('A' for Active; 'I' for Inactive)
REMARK    1  A    between atoms: C_1  and  C_2
REMARK    2  A    between atoms: C_2  and  C_3
REMARK    3  A    between atoms: C_2  and  C_4
REMARK    4  A    between atoms: C_2  and  N_5
REMARK    5  A    between atoms: C_6  and  C_8
REMARK    6  A    between atoms: C_12  and  N_13
REMARK    7  A    between atoms: C_14  and  C_16
REMARK    8  A    between atoms: C_16  and  C_17
REMARK                            x       y       z     vdW  Elec       q    Type
REMARK                         _______ _______ _______ _____ _____    ______ ____
ROOT
ATOM      1  C   UNL     1       5.079   5.237  18.166  0.00  0.00    +0.000 A 
ATOM      2  C   UNL     1       5.758   4.229  17.475  0.00  0.00    +0.000 A 
ATOM      3  C   UNL     1       6.862   4.552  16.689  0.00  0.00    +0.000 A 
ATOM      4  C   UNL     1       7.294   5.877  16.595  0.00  0.00    +0.000 A 
ATOM      5  C   UNL     1       6.632   6.897  17.278  0.00  0.00    +0.000 A 
ATOM      6  C   UNL     1       5.529   6.568  18.075  0.00  0.00    +0.000 A 
ENDROOT
BRANCH   1   8
ATOM      7  N   UNL     1       3.351   3.676  18.937  0.00  0.00    +0.000 N 
ATOM      8  C   UNL     1       3.920   4.932  19.056  0.00  0.00    +0.000 C 
ATOM      9  O   UNL     1       3.527   5.796  19.832  0.00  0.00    +0.000 OA
ATOM     10  H   UNL     1       3.629   3.095  18.159  0.00  0.00    +0.000 HD
BRANCH   7  12
ATOM     11  C   UNL     1       2.718   2.775  21.162  0.00  0.00    +0.000 C 
ATOM     12  C   UNL     1       2.232   3.190  19.765  0.00  0.00    +0.000 C 
ATOM     13  C   UNL     1       1.518   2.016  19.076  0.00  0.00    +0.000 C 
ATOM     14  C   UNL     1       1.212   4.335  19.934  0.00  0.00    +0.000 C 
ENDBRANCH   7  12
ENDBRANCH   1   8
BRANCH   5  15
ATOM     15  N   UNL     1       7.039   8.252  17.216  0.00  0.00    +0.000 N 
ATOM     16  C   UNL     1       8.039   8.845  17.977  0.00  0.00    +0.000 C 
ATOM     17  O   UNL     1       8.768   8.275  18.786  0.00  0.00    +0.000 OA
ATOM     18  H   UNL     1       6.626   8.815  16.478  0.00  0.00    +0.000 HD
BRANCH  16  19
ATOM     19  C   UNL     1       8.227  10.329  17.700  0.00  0.00    +0.000 C 
BRANCH  19  20
ATOM     20  C   UNL     1       9.425  10.815  18.455  0.00  0.00    +0.000 A 
ATOM     21  C   UNL     1      10.677  11.128  17.957  0.00  0.00    +0.000 A 
ATOM     22  C   UNL     1      11.547  11.633  18.964  0.00  0.00    +0.000 A 
ATOM     23  C   UNL     1      10.945  11.650  20.201  0.00  0.00    +0.000 A 
ATOM     24  S   UNL     1       9.341  11.063  20.146  0.00  0.00    +0.000 S 
ENDBRANCH  19  20
ENDBRANCH  16  19
ENDBRANCH   5  15
TORSDOF 5
ENDMDL
MODEL 7
REMARK VINA RESULT:      -7.0      3.796      5.876
REMARK  Name = 
REMARK  8 active torsions:
REMARK  status: ('A' for Active; 'I' for Inactive)
REMARK    1  A    between atoms: C_1  and  C_2
REMARK    2  A    between atoms: C_2  and  C_3
REMARK    3  A    between atoms: C_2  and  C_4
REMARK    4  A    between atoms: C_2  and  N_5
REMARK    5  A    between atoms: C_6  and  C_8
REMARK    6  A    between atoms: C_12  and  N_13
REMARK    7  A    between atoms: C_14  and  C_16
REMARK    8  A    between atoms: C_16  and  C_17
REMARK                            x       y       z     vdW  Elec       q    Type
REMARK                         _______ _______ _______ _____ _____    ______ ____
ROOT
ATOM      1  C   UNL     1       3.692   4.519  19.298  0.00  0.00    +0.000 A 
ATOM      2  C   UNL     1       2.988   3.320  19.444  0.00  0.00    +0.000 A 
ATOM      3  C   UNL     1       1.782   3.308  20.141  0.00  0.00    +0.000 A 
ATOM      4  C   UNL     1       1.273   4.489  20.686  0.00  0.00    +0.000 A 
ATOM      5  C   UNL     1       1.959   5.696  20.549  0.00  0.00    +0.000 A 
ATOM      6  C   UNL     1       3.166   5.707  19.841  0.00  0.00    +0.000 A 
ENDROOT
BRANCH   1   8
ATOM      7  N   UNL     1       4.917   5.228  17.294  0.00  0.00    +0.000 N 
ATOM      8  C   UNL     1       4.965   4.589  18.520  0.00  0.00    +0.000 C 
ATOM      9  O   UNL     1       5.975   4.078  18.992  0.00  0.00    +0.000 OA
ATOM     10  H   UNL     1       4.012   5.466  16.913  0.00  0.00    +0.000 HD
BRANCH   7  12
ATOM     11  C   UNL     1       6.724   4.086  16.032  0.00  0.00    +0.000 C 
ATOM     12  C   UNL     1       6.083   5.428  16.416  0.00  0.00    +0.000 C 
ATOM     13  C   UNL     1       7.120   6.341  17.092  0.00  0.00    +0.000 C 
ATOM     14  C   UNL     1       5.611   6.121  15.121  0.00  0.00    +0.000 C 
ENDBRANCH   7  12
ENDBRANCH   1   8
BRANCH   5  15
ATOM     15  N   UNL     1       1.478   6.917  21.082  0.00  0.00    +0.000 N 
ATOM     16  C   UNL     1       1.471   8.148  20.437  0.00  0.00    +0.000 C 
ATOM     17  O   UNL     1       1.831   8.362  19.281  0.00  0.00    +0.000 OA
ATOM     18  H   UNL     1       1.007   6.864  21.979  0.00  0.00    +0.000 HD
BRANCH  16  19
ATOM     19  C   UNL     1       0.913   9.283  21.281  0.00  0.00    +0.000 C 
BRANCH  19  20
ATOM     20  C   UNL     1       0.330  10.321  20.373  0.00  0.00    +0.000 A 
ATOM     21  C   UNL     1      -0.828  10.243  19.620  0.00  0.00    +0.000 A 
ATOM     22  C   UNL     1      -1.108  11.457  18.933  0.00  0.00    +0.000 A 
ATOM     23  C   UNL     1      -0.136  12.406  19.151  0.00  0.00    +0.000 A 
ATOM     24  S   UNL     1       1.105  11.835  20.179  0.00  0.00    +0.000 S 
ENDBRANCH  19  20
ENDBRANCH  16  19
ENDBRANCH   5  15
TORSDOF 5
ENDMDL
MODEL 8
REMARK VINA RESULT:      -7.0      4.966      7.898
REMARK  Name = 
REMARK  8 active torsions:
REMARK  status: ('A' for Active; 'I' for Inactive)
REMARK    1  A    between atoms: C_1  and  C_2
REMARK    2  A    between atoms: C_2  and  C_3
REMARK    3  A    between atoms: C_2  and  C_4
REMARK    4  A    between atoms: C_2  and  N_5
REMARK    5  A    between atoms: C_6  and  C_8
REMARK    6  A    between atoms: C_12  and  N_13
REMARK    7  A    between atoms: C_14  and  C_16
REMARK    8  A    between atoms: C_16  and  C_17
REMARK                            x       y       z     vdW  Elec       q    Type
REMARK                         _______ _______ _______ _____ _____    ______ ____
ROOT
ATOM      1  C   UNL     1       4.943   5.493  17.796  0.00  0.00    +0.000 A 
ATOM      2  C   UNL     1       5.782   4.422  17.474  0.00  0.00    +0.000 A 
ATOM      3  C   UNL     1       7.087   4.668  17.054  0.00  0.00    +0.000 A 
ATOM      4  C   UNL     1       7.560   5.979  16.960  0.00  0.00    +0.000 A 
ATOM      5  C   UNL     1       6.740   7.062  17.280  0.00  0.00    +0.000 A 
ATOM      6  C   UNL     1       5.432   6.811  17.711  0.00  0.00    +0.000 A 
ENDROOT
BRANCH   1   8
ATOM      7  N   UNL     1       3.347   4.188  19.125  0.00  0.00    +0.000 N 
ATOM      8  C   UNL     1       3.553   5.276  18.295  0.00  0.00    +0.000 C 
ATOM      9  O   UNL     1       2.672   6.053  17.945  0.00  0.00    +0.000 OA
ATOM     10  H   UNL     1       4.090   3.510  19.221  0.00  0.00    +0.000 HD
BRANCH   7  12
ATOM     11  C   UNL     1       2.219   2.761  20.814  0.00  0.00    +0.000 C 
ATOM     12  C   UNL     1       2.052   3.850  19.743  0.00  0.00    +0.000 C 
ATOM     13  C   UNL     1       1.042   3.399  18.675  0.00  0.00    +0.000 C 
ATOM     14  C   UNL     1       1.490   5.112  20.428  0.00  0.00    +0.000 C 
ENDBRANCH   7  12
ENDBRANCH   1   8
BRANCH   5  15
ATOM     15  N   UNL     1       7.180   8.406  17.204  0.00  0.00    +0.000 N 
ATOM     16  C   UNL     1       8.157   8.996  17.997  0.00  0.00    +0.000 C 
ATOM     17  O   UNL     1       8.835   8.429  18.853  0.00  0.00    +0.000 OA
ATOM     18  H   UNL     1       6.814   8.958  16.435  0.00  0.00    +0.000 HD
BRANCH  16  19
ATOM     19  C   UNL     1       8.390  10.467  17.695  0.00  0.00    +0.000 C 
BRANCH  19  20
ATOM     20  C   UNL     1       9.412  11.003  18.650  0.00  0.00    +0.000 A 
ATOM     21  C   UNL     1       9.303  11.148  20.021  0.00  0.00    +0.000 A 
ATOM     22  C   UNL     1      10.509  11.622  20.611  0.00  0.00    +0.000 A 
ATOM     23  C   UNL     1      11.482  11.862  19.668  0.00  0.00    +0.000 A 
ATOM     24  S   UNL     1      10.943  11.515  18.083  0.00  0.00    +0.000 S 
ENDBRANCH  19  20
ENDBRANCH  16  19
ENDBRANCH   5  15
TORSDOF 5
ENDMDL
MODEL 9
REMARK VINA RESULT:      -7.0      2.370      7.553
REMARK  Name = 
REMARK  8 active torsions:
REMARK  status: ('A' for Active; 'I' for Inactive)
REMARK    1  A    between atoms: C_1  and  C_2
REMARK    2  A    between atoms: C_2  and  C_3
REMARK    3  A    between atoms: C_2  and  C_4
REMARK    4  A    between atoms: C_2  and  N_5
REMARK    5  A    between atoms: C_6  and  C_8
REMARK    6  A    between atoms: C_12  and  N_13
REMARK    7  A    between atoms: C_14  and  C_16
REMARK    8  A    between atoms: C_16  and  C_17
REMARK                            x       y       z     vdW  Elec       q    Type
REMARK                         _______ _______ _______ _____ _____    ______ ____
ROOT
ATOM      1  C   UNL     1       4.854   5.204  18.418  0.00  0.00    +0.000 A 
ATOM      2  C   UNL     1       5.844   5.552  19.341  0.00  0.00    +0.000 A 
ATOM      3  C   UNL     1       7.126   5.864  18.897  0.00  0.00    +0.000 A 
ATOM      4  C   UNL     1       7.423   5.838  17.532  0.00  0.00    +0.000 A 
ATOM      5  C   UNL     1       6.448   5.495  16.593  0.00  0.00    +0.000 A 
ATOM      6  C   UNL     1       5.158   5.190  17.043  0.00  0.00    +0.000 A 
ENDROOT
BRANCH   1   8
ATOM      7  N   UNL     1       3.285   3.905  19.784  0.00  0.00    +0.000 N 
ATOM      8  C   UNL     1       3.455   4.906  18.844  0.00  0.00    +0.000 C 
ATOM      9  O   UNL     1       2.536   5.546  18.344  0.00  0.00    +0.000 OA
ATOM     10  H   UNL     1       4.077   3.321  20.011  0.00  0.00    +0.000 HD
BRANCH   7  12
ATOM     11  C   UNL     1       1.108   4.741  20.637  0.00  0.00    +0.000 C 
ATOM     12  C   UNL     1       1.982   3.511  20.350  0.00  0.00    +0.000 C 
ATOM     13  C   UNL     1       2.176   2.683  21.632  0.00  0.00    +0.000 C 
ATOM     14  C   UNL     1       1.245   2.629  19.321  0.00  0.00    +0.000 C 
ENDBRANCH   7  12
ENDBRANCH   1   8
BRANCH   5  15
ATOM     15  N   UNL     1       6.704   5.460  15.200  0.00  0.00    +0.000 N 
ATOM     16  C   UNL     1       6.581   4.352  14.371  0.00  0.00    +0.000 C 
ATOM     17  O   UNL     1       6.177   3.239  14.703  0.00  0.00    +0.000 OA
ATOM     18  H   UNL     1       6.901   6.351  14.754  0.00  0.00    +0.000 HD
BRANCH  16  19
ATOM     19  C   UNL     1       6.954   4.622  12.921  0.00  0.00    +0.000 C 
BRANCH  19  20
ATOM     20  C   UNL     1       6.610   3.419  12.099  0.00  0.00    +0.000 A 
ATOM     21  C   UNL     1       7.472   2.499  11.532  0.00  0.00    +0.000 A 
ATOM     22  C   UNL     1       6.779   1.440  10.881  0.00  0.00    +0.000 A 
ATOM     23  C   UNL     1       5.415   1.609  10.936  0.00  0.00    +0.000 A 
ATOM     24  S   UNL     1       4.975   3.034  11.771  0.00  0.00    +0.000 S 
ENDBRANCH  19  20
ENDBRANCH  16  19
ENDBRANCH   5  15
TORSDOF 5
ENDMDL
