MODEL 1
REMARK VINA RESULT:      -9.2      0.000      0.000
REMARK  Name = 
REMARK  7 active torsions:
REMARK  status: ('A' for Active; 'I' for Inactive)
REMARK    1  A    between atoms: C_2  and  O_3
REMARK    2  A    between atoms: C_2  and  C_4
REMARK    3  A    between atoms: C_9  and  C_10
REMARK    4  A    between atoms: N_12  and  C_13
REMARK    5  A    between atoms: C_13  and  C_14
REMARK    6  A    between atoms: C_13  and  C_26
REMARK    7  A    between atoms: C_14  and  N_15
REMARK                            x       y       z     vdW  Elec       q    Type
REMARK                         _______ _______ _______ _____ _____    ______ ____
ROOT
ATOM      1  C   UNL     1       2.561   7.059  18.931  0.00  0.00    +0.000 C 
ENDROOT
BRANCH   1   2
ATOM      2  C   UNL     1       2.067   5.604  18.994  0.00  0.00    +0.000 A 
ATOM      3  C   UNL     1       1.882   4.814  17.846  0.00  0.00    +0.000 A 
ATOM      4  C   UNL     1       1.387   3.512  17.925  0.00  0.00    +0.000 A 
ATOM      5  C   UNL     1       1.087   2.960  19.160  0.00  0.00    +0.000 A 
ATOM      6  C   UNL     1       1.292   3.707  20.320  0.00  0.00    +0.000 A 
ATOM      7  C   UNL     1       1.783   5.013  20.238  0.00  0.00    +0.000 A 
ENDBRANCH   1   2
BRANCH   1  10
ATOM      8  C   UNL     1       4.848   6.594  18.095  0.00  0.00    +0.000 C 
ATOM      9  O   UNL     1       5.049   5.807  19.020  0.00  0.00    +0.000 OA
ATOM     10  N   UNL     1       3.665   7.268  17.993  0.00  0.00    +0.000 N 
ATOM     11  H   UNL     1       3.373   7.637  17.092  0.00  0.00    +0.000 HD
BRANCH   8  17
ATOM     12  C   UNL     1       7.292   6.260  17.174  0.00  0.00    +0.000 C 
ATOM     13  C   UNL     1       7.361   4.725  17.234  0.00  0.00    +0.000 C 
ATOM     14  C   UNL     1       6.631   4.023  16.092  0.00  0.00    +0.000 C 
ATOM     15  C   UNL     1       5.249   4.588  15.791  0.00  0.00    +0.000 C 
ATOM     16  C   UNL     1       5.270   6.113  15.675  0.00  0.00    +0.000 C 
ATOM     17  C   UNL     1       5.858   6.781  16.943  0.00  0.00    +0.000 C 
BRANCH  12  19
ATOM     18  O   UNL     1       8.401   8.004  18.466  0.00  0.00    +0.000 OA
ATOM     19  C   UNL     1       7.983   6.856  18.395  0.00  0.00    +0.000 C 
BRANCH  19  20
ATOM     20  O   UNL     1       8.142   6.000  19.427  0.00  0.00    +0.000 OA
ATOM     21  H   UNL     1       8.005   6.357  20.323  0.00  0.00    +0.000 HD
ENDBRANCH  19  20
ENDBRANCH  12  19
ENDBRANCH   8  17
ENDBRANCH   1  10
BRANCH   1  22
ATOM     22  C   UNL     1       1.420   8.078  18.642  0.00  0.00    +0.000 C 
BRANCH  22  23
ATOM     23  N   UNL     1       1.142   9.095  19.655  0.00  0.00    +0.000 N 
ATOM     24  C   UNL     1       1.130  10.450  19.486  0.00  0.00    +0.000 C 
ATOM     25  O   UNL     1       1.602  11.144  18.603  0.00  0.00    +0.000 OA
ATOM     26  C   UNL     1       0.429  11.004  20.631  0.00  0.00    +0.000 A 
ATOM     27  C   UNL     1      -0.135  12.253  20.789  0.00  0.00    +0.000 A 
ATOM     28  C   UNL     1      -0.871  12.470  21.954  0.00  0.00    +0.000 A 
ATOM     29  C   UNL     1      -0.990  11.460  22.933  0.00  0.00    +0.000 A 
ATOM     30  C   UNL     1      -0.424  10.195  22.734  0.00  0.00    +0.000 A 
ATOM     31  C   UNL     1       0.255   9.992  21.550  0.00  0.00    +0.000 A 
ATOM     32  C   UNL     1       0.722   8.762  20.916  0.00  0.00    +0.000 C 
ATOM     33  O   UNL     1       0.646   7.654  21.435  0.00  0.00    +0.000 OA
ENDBRANCH  22  23
ENDBRANCH   1  22
TORSDOF 7
ENDMDL
MODEL 2
REMARK VINA RESULT:      -9.1      2.116      5.009
REMARK  Name = 
REMARK  7 active torsions:
REMARK  status: ('A' for Active; 'I' for Inactive)
REMARK    1  A    between atoms: C_2  and  O_3
REMARK    2  A    between atoms: C_2  and  C_4
REMARK    3  A    between atoms: C_9  and  C_10
REMARK    4  A    between atoms: N_12  and  C_13
REMARK    5  A    between atoms: C_13  and  C_14
REMARK    6  A    between atoms: C_13  and  C_26
REMARK    7  A    between atoms: C_14  and  N_15
REMARK                            x       y       z     vdW  Elec       q    Type
REMARK                         _______ _______ _______ _____ _____    ______ ____
ROOT
ATOM      1  C   UNL     1       3.670   5.545  17.684  0.00  0.00    +0.000 C 
ENDROOT
BRANCH   1   2
ATOM      2  C   UNL     1       4.955   5.246  16.897  0.00  0.00    +0.000 A 
ATOM      3  C   UNL     1       4.992   5.189  15.493  0.00  0.00    +0.000 A 
ATOM      4  C   UNL     1       6.160   4.870  14.802  0.00  0.00    +0.000 A 
ATOM      5  C   UNL     1       7.331   4.621  15.501  0.00  0.00    +0.000 A 
ATOM      6  C   UNL     1       7.336   4.703  16.893  0.00  0.00    +0.000 A 
ATOM      7  C   UNL     1       6.161   5.019  17.583  0.00  0.00    +0.000 A 
ENDBRANCH   1   2
BRANCH   1  10
ATOM      8  C   UNL     1       2.393   3.424  17.795  0.00  0.00    +0.000 C 
ATOM      9  O   UNL     1       2.098   3.513  16.604  0.00  0.00    +0.000 OA
ATOM     10  N   UNL     1       3.138   4.390  18.408  0.00  0.00    +0.000 N 
ATOM     11  H   UNL     1       3.651   4.166  19.257  0.00  0.00    +0.000 HD
BRANCH   8  17
ATOM     12  C   UNL     1       2.918   1.898  19.875  0.00  0.00    +0.000 C 
ATOM     13  C   UNL     1       2.710   2.936  20.990  0.00  0.00    +0.000 C 
ATOM     14  C   UNL     1       1.245   3.211  21.322  0.00  0.00    +0.000 C 
ATOM     15  C   UNL     1       0.351   3.395  20.102  0.00  0.00    +0.000 C 
ATOM     16  C   UNL     1       0.562   2.288  19.069  0.00  0.00    +0.000 C 
ATOM     17  C   UNL     1       2.044   2.176  18.634  0.00  0.00    +0.000 C 
BRANCH  12  19
ATOM     18  O   UNL     1       5.242   2.624  19.783  0.00  0.00    +0.000 OA
ATOM     19  C   UNL     1       4.405   1.757  19.572  0.00  0.00    +0.000 C 
BRANCH  19  20
ATOM     20  O   UNL     1       4.757   0.582  19.007  0.00  0.00    +0.000 OA
ATOM     21  H   UNL     1       4.183   0.244  18.296  0.00  0.00    +0.000 HD
ENDBRANCH  19  20
ENDBRANCH  12  19
ENDBRANCH   8  17
ENDBRANCH   1  10
BRANCH   1  22
ATOM     22  C   UNL     1       3.816   6.755  18.653  0.00  0.00    +0.000 C 
BRANCH  22  23
ATOM     23  N   UNL     1       2.607   7.500  19.000  0.00  0.00    +0.000 N 
ATOM     24  C   UNL     1       1.862   7.384  20.138  0.00  0.00    +0.000 C 
ATOM     25  O   UNL     1       1.819   6.498  20.972  0.00  0.00    +0.000 OA
ATOM     26  C   UNL     1       1.025   8.570  20.209  0.00  0.00    +0.000 A 
ATOM     27  C   UNL     1       0.349   9.098  21.289  0.00  0.00    +0.000 A 
ATOM     28  C   UNL     1      -0.273  10.333  21.102  0.00  0.00    +0.000 A 
ATOM     29  C   UNL     1      -0.232  10.980  19.848  0.00  0.00    +0.000 A 
ATOM     30  C   UNL     1       0.482  10.429  18.776  0.00  0.00    +0.000 A 
ATOM     31  C   UNL     1       1.129   9.232  19.005  0.00  0.00    +0.000 A 
ATOM     32  C   UNL     1       2.148   8.533  18.226  0.00  0.00    +0.000 C 
ATOM     33  O   UNL     1       2.539   8.903  17.124  0.00  0.00    +0.000 OA
ENDBRANCH  22  23
ENDBRANCH   1  22
TORSDOF 7
ENDMDL
MODEL 3
REMARK VINA RESULT:      -9.1      2.166      5.247
REMARK  Name = 
REMARK  7 active torsions:
REMARK  status: ('A' for Active; 'I' for Inactive)
REMARK    1  A    between atoms: C_2  and  O_3
REMARK    2  A    between atoms: C_2  and  C_4
REMARK    3  A    between atoms: C_9  and  C_10
REMARK    4  A    between atoms: N_12  and  C_13
REMARK    5  A    between atoms: C_13  and  C_14
REMARK    6  A    between atoms: C_13  and  C_26
REMARK    7  A    between atoms: C_14  and  N_15
REMARK                            x       y       z     vdW  Elec       q    Type
REMARK                         _______ _______ _______ _____ _____    ______ ____
ROOT
ATOM      1  C   UNL     1       3.793   5.400  17.281  0.00  0.00    +0.000 C 
ENDROOT
BRANCH   1   2
ATOM      2  C   UNL     1       5.012   5.154  16.378  0.00  0.00    +0.000 A 
ATOM      3  C   UNL     1       6.279   5.702  16.644  0.00  0.00    +0.000 A 
ATOM      4  C   UNL     1       7.358   5.503  15.784  0.00  0.00    +0.000 A 
ATOM      5  C   UNL     1       7.203   4.730  14.645  0.00  0.00    +0.000 A 
ATOM      6  C   UNL     1       5.967   4.144  14.371  0.00  0.00    +0.000 A 
ATOM      7  C   UNL     1       4.885   4.349  15.232  0.00  0.00    +0.000 A 
ENDBRANCH   1   2
BRANCH   1  10
ATOM      8  C   UNL     1       2.015   3.779  17.876  0.00  0.00    +0.000 C 
ATOM      9  O   UNL     1       1.181   4.430  17.248  0.00  0.00    +0.000 OA
ATOM     10  N   UNL     1       3.311   4.199  17.964  0.00  0.00    +0.000 N 
ATOM     11  H   UNL     1       4.044   3.526  18.177  0.00  0.00    +0.000 HD
BRANCH   8  17
ATOM     12  C   UNL     1       2.729   1.800  19.459  0.00  0.00    +0.000 C 
ATOM     13  C   UNL     1       2.845   2.581  20.779  0.00  0.00    +0.000 C 
ATOM     14  C   UNL     1       1.505   2.883  21.445  0.00  0.00    +0.000 C 
ATOM     15  C   UNL     1       0.432   3.394  20.492  0.00  0.00    +0.000 C 
ATOM     16  C   UNL     1       0.326   2.528  19.236  0.00  0.00    +0.000 C 
ATOM     17  C   UNL     1       1.683   2.407  18.500  0.00  0.00    +0.000 C 
BRANCH  12  19
ATOM     18  O   UNL     1       4.328   1.074  17.769  0.00  0.00    +0.000 OA
ATOM     19  C   UNL     1       4.112   1.621  18.842  0.00  0.00    +0.000 C 
BRANCH  19  20
ATOM     20  O   UNL     1       5.130   2.095  19.593  0.00  0.00    +0.000 OA
ATOM     21  H   UNL     1       5.993   1.655  19.494  0.00  0.00    +0.000 HD
ENDBRANCH  19  20
ENDBRANCH  12  19
ENDBRANCH   8  17
ENDBRANCH   1  10
BRANCH   1  22
ATOM     22  C   UNL     1       4.022   6.541  18.316  0.00  0.00    +0.000 C 
BRANCH  22  23
ATOM     23  N   UNL     1       2.845   7.240  18.831  0.00  0.00    +0.000 N 
ATOM     24  C   UNL     1       2.203   7.017  20.015  0.00  0.00    +0.000 C 
ATOM     25  O   UNL     1       2.237   6.062  20.770  0.00  0.00    +0.000 OA
ATOM     26  C   UNL     1       1.372   8.183  20.262  0.00  0.00    +0.000 A 
ATOM     27  C   UNL     1       0.791   8.608  21.438  0.00  0.00    +0.000 A 
ATOM     28  C   UNL     1       0.151   9.848  21.414  0.00  0.00    +0.000 A 
ATOM     29  C   UNL     1       0.079  10.601  20.223  0.00  0.00    +0.000 A 
ATOM     30  C   UNL     1       0.698  10.153  19.049  0.00  0.00    +0.000 A 
ATOM     31  C   UNL     1       1.366   8.947  19.115  0.00  0.00    +0.000 A 
ATOM     32  C   UNL     1       2.316   8.331  18.193  0.00  0.00    +0.000 C 
ATOM     33  O   UNL     1       2.607   8.798  17.097  0.00  0.00    +0.000 OA
ENDBRANCH  22  23
ENDBRANCH   1  22
TORSDOF 7
ENDMDL
MODEL 4
REMARK VINA RESULT:      -8.8      0.907      1.472
REMARK  Name = 
REMARK  7 active torsions:
REMARK  status: ('A' for Active; 'I' for Inactive)
REMARK    1  A    between atoms: C_2  and  O_3
REMARK    2  A    between atoms: C_2  and  C_4
REMARK    3  A    between atoms: C_9  and  C_10
REMARK    4  A    between atoms: N_12  and  C_13
REMARK    5  A    between atoms: C_13  and  C_14
REMARK    6  A    between atoms: C_13  and  C_26
REMARK    7  A    between atoms: C_14  and  N_15
REMARK                            x       y       z     vdW  Elec       q    Type
REMARK                         _______ _______ _______ _____ _____    ______ ____
ROOT
ATOM      1  C   UNL     1       2.506   6.424  19.131  0.00  0.00    +0.000 C 
ENDROOT
BRANCH   1   2
ATOM      2  C   UNL     1       2.188   4.921  19.161  0.00  0.00    +0.000 A 
ATOM      3  C   UNL     1       1.907   4.227  20.351  0.00  0.00    +0.000 A 
ATOM      4  C   UNL     1       1.668   2.853  20.358  0.00  0.00    +0.000 A 
ATOM      5  C   UNL     1       1.682   2.141  19.169  0.00  0.00    +0.000 A 
ATOM      6  C   UNL     1       1.923   2.807  17.968  0.00  0.00    +0.000 A 
ATOM      7  C   UNL     1       2.168   4.184  17.964  0.00  0.00    +0.000 A 
ENDBRANCH   1   2
BRANCH   1  10
ATOM      8  C   UNL     1       4.832   6.362  18.278  0.00  0.00    +0.000 C 
ATOM      9  O   UNL     1       5.189   5.680  19.237  0.00  0.00    +0.000 OA
ATOM     10  N   UNL     1       3.541   6.790  18.163  0.00  0.00    +0.000 N 
ATOM     11  H   UNL     1       3.176   7.047  17.249  0.00  0.00    +0.000 HD
BRANCH   8  17
ATOM     12  C   UNL     1       7.243   6.213  17.230  0.00  0.00    +0.000 C 
ATOM     13  C   UNL     1       7.387   4.683  17.180  0.00  0.00    +0.000 C 
ATOM     14  C   UNL     1       6.638   4.023  16.026  0.00  0.00    +0.000 C 
ATOM     15  C   UNL     1       5.218   4.538  15.824  0.00  0.00    +0.000 C 
ATOM     16  C   UNL     1       5.164   6.066  15.814  0.00  0.00    +0.000 C 
ATOM     17  C   UNL     1       5.778   6.676  17.098  0.00  0.00    +0.000 C 
BRANCH  12  19
ATOM     18  O   UNL     1       8.416   7.891  18.552  0.00  0.00    +0.000 OA
ATOM     19  C   UNL     1       7.963   6.758  18.458  0.00  0.00    +0.000 C 
BRANCH  19  20
ATOM     20  O   UNL     1       8.102   5.875  19.470  0.00  0.00    +0.000 OA
ATOM     21  H   UNL     1       8.966   5.850  19.919  0.00  0.00    +0.000 HD
ENDBRANCH  19  20
ENDBRANCH  12  19
ENDBRANCH   8  17
ENDBRANCH   1  10
BRANCH   1  22
ATOM     22  C   UNL     1       1.243   7.310  18.915  0.00  0.00    +0.000 C 
BRANCH  22  23
ATOM     23  N   UNL     1       1.330   8.721  19.288  0.00  0.00    +0.000 N 
ATOM     24  C   UNL     1       1.682   9.768  18.485  0.00  0.00    +0.000 C 
ATOM     25  O   UNL     1       2.264   9.789  17.416  0.00  0.00    +0.000 OA
ATOM     26  C   UNL     1       1.244  10.976  19.164  0.00  0.00    +0.000 A 
ATOM     27  C   UNL     1       1.061  12.245  18.657  0.00  0.00    +0.000 A 
ATOM     28  C   UNL     1       0.498  13.192  19.513  0.00  0.00    +0.000 A 
ATOM     29  C   UNL     1       0.172  12.859  20.845  0.00  0.00    +0.000 A 
ATOM     30  C   UNL     1       0.351  11.555  21.326  0.00  0.00    +0.000 A 
ATOM     31  C   UNL     1       0.862  10.627  20.442  0.00  0.00    +0.000 A 
ATOM     32  C   UNL     1       0.924   9.170  20.517  0.00  0.00    +0.000 C 
ATOM     33  O   UNL     1       0.581   8.521  21.499  0.00  0.00    +0.000 OA
ENDBRANCH  22  23
ENDBRANCH   1  22
TORSDOF 7
ENDMDL
MODEL 5
REMARK VINA RESULT:      -8.8      0.712      1.089
REMARK  Name = 
REMARK  7 active torsions:
REMARK  status: ('A' for Active; 'I' for Inactive)
REMARK    1  A    between atoms: C_2  and  O_3
REMARK    2  A    between atoms: C_2  and  C_4
REMARK    3  A    between atoms: C_9  and  C_10
REMARK    4  A    between atoms: N_12  and  C_13
REMARK    5  A    between atoms: C_13  and  C_14
REMARK    6  A    between atoms: C_13  and  C_26
REMARK    7  A    between atoms: C_14  and  N_15
REMARK                            x       y       z     vdW  Elec       q    Type
REMARK                         _______ _______ _______ _____ _____    ______ ____
ROOT
ATOM      1  C   UNL     1       2.505   6.916  18.859  0.00  0.00    +0.000 C 
ENDROOT
BRANCH   1   2
ATOM      2  C   UNL     1       2.037   5.454  18.945  0.00  0.00    +0.000 A 
ATOM      3  C   UNL     1       1.978   4.607  17.824  0.00  0.00    +0.000 A 
ATOM      4  C   UNL     1       1.505   3.299  17.919  0.00  0.00    +0.000 A 
ATOM      5  C   UNL     1       1.099   2.796  19.145  0.00  0.00    +0.000 A 
ATOM      6  C   UNL     1       1.178   3.600  20.282  0.00  0.00    +0.000 A 
ATOM      7  C   UNL     1       1.649   4.914  20.184  0.00  0.00    +0.000 A 
ENDBRANCH   1   2
BRANCH   1  10
ATOM      8  C   UNL     1       4.861   6.473  18.228  0.00  0.00    +0.000 C 
ATOM      9  O   UNL     1       5.005   5.733  19.199  0.00  0.00    +0.000 OA
ATOM     10  N   UNL     1       3.675   7.112  18.003  0.00  0.00    +0.000 N 
ATOM     11  H   UNL     1       3.448   7.435  17.066  0.00  0.00    +0.000 HD
BRANCH   8  17
ATOM     12  C   UNL     1       7.270   5.859  17.363  0.00  0.00    +0.000 C 
ATOM     13  C   UNL     1       7.090   4.339  17.215  0.00  0.00    +0.000 C 
ATOM     14  C   UNL     1       6.326   3.920  15.962  0.00  0.00    +0.000 C 
ATOM     15  C   UNL     1       5.073   4.742  15.688  0.00  0.00    +0.000 C 
ATOM     16  C   UNL     1       5.345   6.244  15.783  0.00  0.00    +0.000 C 
ATOM     17  C   UNL     1       5.955   6.636  17.151  0.00  0.00    +0.000 C 
BRANCH  12  19
ATOM     18  O   UNL     1       8.123   5.369  19.593  0.00  0.00    +0.000 OA
ATOM     19  C   UNL     1       7.974   6.169  18.679  0.00  0.00    +0.000 C 
BRANCH  19  20
ATOM     20  O   UNL     1       8.417   7.440  18.797  0.00  0.00    +0.000 OA
ATOM     21  H   UNL     1       8.535   7.944  17.972  0.00  0.00    +0.000 HD
ENDBRANCH  19  20
ENDBRANCH  12  19
ENDBRANCH   8  17
ENDBRANCH   1  10
BRANCH   1  22
ATOM     22  C   UNL     1       1.370   7.895  18.438  0.00  0.00    +0.000 C 
BRANCH  22  23
ATOM     23  N   UNL     1       1.309   9.194  19.107  0.00  0.00    +0.000 N 
ATOM     24  C   UNL     1       1.627  10.412  18.578  0.00  0.00    +0.000 C 
ATOM     25  O   UNL     1       2.281  10.704  17.593  0.00  0.00    +0.000 OA
ATOM     26  C   UNL     1       1.041  11.411  19.456  0.00  0.00    +0.000 A 
ATOM     27  C   UNL     1       0.787  12.744  19.213  0.00  0.00    +0.000 A 
ATOM     28  C   UNL     1       0.085  13.442  20.197  0.00  0.00    +0.000 A 
ATOM     29  C   UNL     1      -0.306  12.806  21.395  0.00  0.00    +0.000 A 
ATOM     30  C   UNL     1      -0.052  11.444  21.602  0.00  0.00    +0.000 A 
ATOM     31  C   UNL     1       0.599  10.768  20.591  0.00  0.00    +0.000 A 
ATOM     32  C   UNL     1       0.779   9.336  20.362  0.00  0.00    +0.000 C 
ATOM     33  O   UNL     1       0.422   8.468  21.151  0.00  0.00    +0.000 OA
ENDBRANCH  22  23
ENDBRANCH   1  22
TORSDOF 7
ENDMDL
MODEL 6
REMARK VINA RESULT:      -8.7      1.528      2.612
REMARK  Name = 
REMARK  7 active torsions:
REMARK  status: ('A' for Active; 'I' for Inactive)
REMARK    1  A    between atoms: C_2  and  O_3
REMARK    2  A    between atoms: C_2  and  C_4
REMARK    3  A    between atoms: C_9  and  C_10
REMARK    4  A    between atoms: N_12  and  C_13
REMARK    5  A    between atoms: C_13  and  C_14
REMARK    6  A    between atoms: C_13  and  C_26
REMARK    7  A    between atoms: C_14  and  N_15
REMARK                            x       y       z     vdW  Elec       q    Type
REMARK                         _______ _______ _______ _____ _____    ______ ____
ROOT
ATOM      1  C   UNL     1       3.117   5.925  18.956  0.00  0.00    +0.000 C 
ENDROOT
BRANCH   1   2
ATOM      2  C   UNL     1       2.421   4.569  19.158  0.00  0.00    +0.000 A 
ATOM      3  C   UNL     1       1.954   4.132  20.410  0.00  0.00    +0.000 A 
ATOM      4  C   UNL     1       1.368   2.878  20.576  0.00  0.00    +0.000 A 
ATOM      5  C   UNL     1       1.214   2.035  19.487  0.00  0.00    +0.000 A 
ATOM      6  C   UNL     1       1.637   2.453  18.225  0.00  0.00    +0.000 A 
ATOM      7  C   UNL     1       2.228   3.710  18.061  0.00  0.00    +0.000 A 
ENDBRANCH   1   2
BRANCH   1  10
ATOM      8  C   UNL     1       5.469   5.157  18.812  0.00  0.00    +0.000 C 
ATOM      9  O   UNL     1       5.390   4.635  19.923  0.00  0.00    +0.000 OA
ATOM     10  N   UNL     1       4.409   5.830  18.276  0.00  0.00    +0.000 N 
ATOM     11  H   UNL     1       4.353   5.960  17.269  0.00  0.00    +0.000 HD
BRANCH   8  17
ATOM     12  C   UNL     1       6.789   5.868  16.647  0.00  0.00    +0.000 C 
ATOM     13  C   UNL     1       6.994   7.356  16.972  0.00  0.00    +0.000 C 
ATOM     14  C   UNL     1       8.113   7.628  17.973  0.00  0.00    +0.000 C 
ATOM     15  C   UNL     1       8.107   6.705  19.185  0.00  0.00    +0.000 C 
ATOM     16  C   UNL     1       7.971   5.236  18.782  0.00  0.00    +0.000 C 
ATOM     17  C   UNL     1       6.713   4.989  17.913  0.00  0.00    +0.000 C 
BRANCH  12  19
ATOM     18  O   UNL     1       5.156   4.629  15.329  0.00  0.00    +0.000 OA
ATOM     19  C   UNL     1       5.604   5.705  15.702  0.00  0.00    +0.000 C 
BRANCH  19  20
ATOM     20  O   UNL     1       5.072   6.864  15.258  0.00  0.00    +0.000 OA
ATOM     21  H   UNL     1       5.488   7.688  15.568  0.00  0.00    +0.000 HD
ENDBRANCH  19  20
ENDBRANCH  12  19
ENDBRANCH   8  17
ENDBRANCH   1  10
BRANCH   1  22
ATOM     22  C   UNL     1       2.215   6.971  18.238  0.00  0.00    +0.000 C 
BRANCH  22  23
ATOM     23  N   UNL     1       1.867   8.187  18.971  0.00  0.00    +0.000 N 
ATOM     24  C   UNL     1       1.751   9.452  18.468  0.00  0.00    +0.000 C 
ATOM     25  O   UNL     1       2.163   9.934  17.429  0.00  0.00    +0.000 OA
ATOM     26  C   UNL     1       1.017  10.225  19.455  0.00  0.00    +0.000 A 
ATOM     27  C   UNL     1       0.361  11.429  19.309  0.00  0.00    +0.000 A 
ATOM     28  C   UNL     1      -0.382  11.879  20.401  0.00  0.00    +0.000 A 
ATOM     29  C   UNL     1      -0.418  11.142  21.605  0.00  0.00    +0.000 A 
ATOM     30  C   UNL     1       0.242   9.912  21.715  0.00  0.00    +0.000 A 
ATOM     31  C   UNL     1       0.927   9.467  20.603  0.00  0.00    +0.000 A 
ATOM     32  C   UNL     1       1.481   8.154  20.285  0.00  0.00    +0.000 C 
ATOM     33  O   UNL     1       1.493   7.209  21.067  0.00  0.00    +0.000 OA
ENDBRANCH  22  23
ENDBRANCH   1  22
TORSDOF 7
ENDMDL
MODEL 7
REMARK VINA RESULT:      -8.7      1.530      2.396
REMARK  Name = 
REMARK  7 active torsions:
REMARK  status: ('A' for Active; 'I' for Inactive)
REMARK    1  A    between atoms: C_2  and  O_3
REMARK    2  A    between atoms: C_2  and  C_4
REMARK    3  A    between atoms: C_9  and  C_10
REMARK    4  A    between atoms: N_12  and  C_13
REMARK    5  A    between atoms: C_13  and  C_14
REMARK    6  A    between atoms: C_13  and  C_26
REMARK    7  A    between atoms: C_14  and  N_15
REMARK                            x       y       z     vdW  Elec       q    Type
REMARK                         _______ _______ _______ _____ _____    ______ ____
ROOT
ATOM      1  C   UNL     1       3.087   5.942  18.980  0.00  0.00    +0.000 C 
ENDROOT
BRANCH   1   2
ATOM      2  C   UNL     1       2.400   4.586  19.205  0.00  0.00    +0.000 A 
ATOM      3  C   UNL     1       2.133   3.686  18.159  0.00  0.00    +0.000 A 
ATOM      4  C   UNL     1       1.466   2.481  18.381  0.00  0.00    +0.000 A 
ATOM      5  C   UNL     1       1.068   2.136  19.663  0.00  0.00    +0.000 A 
ATOM      6  C   UNL     1       1.349   2.992  20.727  0.00  0.00    +0.000 A 
ATOM      7  C   UNL     1       2.014   4.202  20.501  0.00  0.00    +0.000 A 
ENDBRANCH   1   2
BRANCH   1  10
ATOM      8  C   UNL     1       5.432   5.162  18.801  0.00  0.00    +0.000 C 
ATOM      9  O   UNL     1       5.363   4.630  19.908  0.00  0.00    +0.000 OA
ATOM     10  N   UNL     1       4.370   5.847  18.284  0.00  0.00    +0.000 N 
ATOM     11  H   UNL     1       4.303   5.987  17.279  0.00  0.00    +0.000 HD
BRANCH   8  17
ATOM     12  C   UNL     1       6.773   5.943  16.674  0.00  0.00    +0.000 C 
ATOM     13  C   UNL     1       7.043   7.400  17.084  0.00  0.00    +0.000 C 
ATOM     14  C   UNL     1       8.176   7.565  18.093  0.00  0.00    +0.000 C 
ATOM     15  C   UNL     1       8.135   6.573  19.249  0.00  0.00    +0.000 C 
ATOM     16  C   UNL     1       7.935   5.137  18.761  0.00  0.00    +0.000 C 
ATOM     17  C   UNL     1       6.665   4.995  17.887  0.00  0.00    +0.000 C 
BRANCH  12  19
ATOM     18  O   UNL     1       5.002   6.866  15.278  0.00  0.00    +0.000 OA
ATOM     19  C   UNL     1       5.579   5.886  15.728  0.00  0.00    +0.000 C 
BRANCH  19  20
ATOM     20  O   UNL     1       5.158   4.639  15.426  0.00  0.00    +0.000 OA
ATOM     21  H   UNL     1       4.616   4.538  14.623  0.00  0.00    +0.000 HD
ENDBRANCH  19  20
ENDBRANCH  12  19
ENDBRANCH   8  17
ENDBRANCH   1  10
BRANCH   1  22
ATOM     22  C   UNL     1       2.171   6.977  18.263  0.00  0.00    +0.000 C 
BRANCH  22  23
ATOM     23  N   UNL     1       1.842   8.209  18.980  0.00  0.00    +0.000 N 
ATOM     24  C   UNL     1       1.750   9.468  18.461  0.00  0.00    +0.000 C 
ATOM     25  O   UNL     1       2.173   9.930  17.417  0.00  0.00    +0.000 OA
ATOM     26  C   UNL     1       1.028  10.267  19.437  0.00  0.00    +0.000 A 
ATOM     27  C   UNL     1       0.393  11.480  19.274  0.00  0.00    +0.000 A 
ATOM     28  C   UNL     1      -0.344  11.957  20.358  0.00  0.00    +0.000 A 
ATOM     29  C   UNL     1      -0.397  11.236  21.570  0.00  0.00    +0.000 A 
ATOM     30  C   UNL     1       0.241   9.995  21.698  0.00  0.00    +0.000 A 
ATOM     31  C   UNL     1       0.921   9.524  20.593  0.00  0.00    +0.000 A 
ATOM     32  C   UNL     1       1.453   8.198  20.293  0.00  0.00    +0.000 C 
ATOM     33  O   UNL     1       1.446   7.263  21.086  0.00  0.00    +0.000 OA
ENDBRANCH  22  23
ENDBRANCH   1  22
TORSDOF 7
ENDMDL
MODEL 8
REMARK VINA RESULT:      -8.3      1.155      2.197
REMARK  Name = 
REMARK  7 active torsions:
REMARK  status: ('A' for Active; 'I' for Inactive)
REMARK    1  A    between atoms: C_2  and  O_3
REMARK    2  A    between atoms: C_2  and  C_4
REMARK    3  A    between atoms: C_9  and  C_10
REMARK    4  A    between atoms: N_12  and  C_13
REMARK    5  A    between atoms: C_13  and  C_14
REMARK    6  A    between atoms: C_13  and  C_26
REMARK    7  A    between atoms: C_14  and  N_15
REMARK                            x       y       z     vdW  Elec       q    Type
REMARK                         _______ _______ _______ _____ _____    ______ ____
ROOT
ATOM      1  C   UNL     1       2.475   7.437  18.586  0.00  0.00    +0.000 C 
ENDROOT
BRANCH   1   2
ATOM      2  C   UNL     1       2.066   6.006  18.970  0.00  0.00    +0.000 A 
ATOM      3  C   UNL     1       1.885   5.598  20.303  0.00  0.00    +0.000 A 
ATOM      4  C   UNL     1       1.561   4.281  20.628  0.00  0.00    +0.000 A 
ATOM      5  C   UNL     1       1.386   3.343  19.624  0.00  0.00    +0.000 A 
ATOM      6  C   UNL     1       1.525   3.724  18.290  0.00  0.00    +0.000 A 
ATOM      7  C   UNL     1       1.856   5.044  17.966  0.00  0.00    +0.000 A 
ENDBRANCH   1   2
BRANCH   1  10
ATOM      8  C   UNL     1       4.780   6.824  17.914  0.00  0.00    +0.000 C 
ATOM      9  O   UNL     1       4.926   6.160  18.940  0.00  0.00    +0.000 OA
ATOM     10  N   UNL     1       3.619   7.502  17.677  0.00  0.00    +0.000 N 
ATOM     11  H   UNL     1       3.372   7.757  16.724  0.00  0.00    +0.000 HD
BRANCH   8  17
ATOM     12  C   UNL     1       7.228   6.259  17.126  0.00  0.00    +0.000 C 
ATOM     13  C   UNL     1       7.198   4.735  17.330  0.00  0.00    +0.000 C 
ATOM     14  C   UNL     1       6.464   3.972  16.231  0.00  0.00    +0.000 C 
ATOM     15  C   UNL     1       5.132   4.588  15.823  0.00  0.00    +0.000 C 
ATOM     16  C   UNL     1       5.253   6.091  15.568  0.00  0.00    +0.000 C 
ATOM     17  C   UNL     1       5.838   6.840  16.791  0.00  0.00    +0.000 C 
BRANCH  12  19
ATOM     18  O   UNL     1       8.325   8.078  18.321  0.00  0.00    +0.000 OA
ATOM     19  C   UNL     1       7.913   6.925  18.313  0.00  0.00    +0.000 C 
BRANCH  19  20
ATOM     20  O   UNL     1       8.074   6.129  19.392  0.00  0.00    +0.000 OA
ATOM     21  H   UNL     1       8.182   5.176  19.225  0.00  0.00    +0.000 HD
ENDBRANCH  19  20
ENDBRANCH  12  19
ENDBRANCH   8  17
ENDBRANCH   1  10
BRANCH   1  22
ATOM     22  C   UNL     1       1.294   8.274  18.012  0.00  0.00    +0.000 C 
BRANCH  22  23
ATOM     23  N   UNL     1       1.117   9.636  18.514  0.00  0.00    +0.000 N 
ATOM     24  C   UNL     1       0.258  10.053  19.491  0.00  0.00    +0.000 C 
ATOM     25  O   UNL     1      -0.727   9.516  19.964  0.00  0.00    +0.000 OA
ATOM     26  C   UNL     1       0.714  11.367  19.910  0.00  0.00    +0.000 A 
ATOM     27  C   UNL     1       0.414  12.070  21.058  0.00  0.00    +0.000 A 
ATOM     28  C   UNL     1       1.106  13.263  21.267  0.00  0.00    +0.000 A 
ATOM     29  C   UNL     1       2.040  13.733  20.318  0.00  0.00    +0.000 A 
ATOM     30  C   UNL     1       2.339  12.985  19.172  0.00  0.00    +0.000 A 
ATOM     31  C   UNL     1       1.676  11.785  19.016  0.00  0.00    +0.000 A 
ATOM     32  C   UNL     1       1.929  10.665  18.114  0.00  0.00    +0.000 C 
ATOM     33  O   UNL     1       2.783  10.674  17.235  0.00  0.00    +0.000 OA
ENDBRANCH  22  23
ENDBRANCH   1  22
TORSDOF 7
ENDMDL
MODEL 9
REMARK VINA RESULT:      -8.3      0.933      1.871
REMARK  Name = 
REMARK  7 active torsions:
REMARK  status: ('A' for Active; 'I' for Inactive)
REMARK    1  A    between atoms: C_2  and  O_3
REMARK    2  A    between atoms: C_2  and  C_4
REMARK    3  A    between atoms: C_9  and  C_10
REMARK    4  A    between atoms: N_12  and  C_13
REMARK    5  A    between atoms: C_13  and  C_14
REMARK    6  A    between atoms: C_13  and  C_26
REMARK    7  A    between atoms: C_14  and  N_15
REMARK                            x       y       z     vdW  Elec       q    Type
REMARK                         _______ _______ _______ _____ _____    ______ ____
ROOT
ATOM      1  C   UNL     1       2.596   7.380  18.681  0.00  0.00    +0.000 C 
ENDROOT
BRANCH   1   2
ATOM      2  C   UNL     1       2.067   5.952  18.882  0.00  0.00    +0.000 A 
ATOM      3  C   UNL     1       1.720   5.440  20.144  0.00  0.00    +0.000 A 
ATOM      4  C   UNL     1       1.286   4.124  20.308  0.00  0.00    +0.000 A 
ATOM      5  C   UNL     1       1.167   3.293  19.206  0.00  0.00    +0.000 A 
ATOM      6  C   UNL     1       1.470   3.782  17.935  0.00  0.00    +0.000 A 
ATOM      7  C   UNL     1       1.909   5.100  17.775  0.00  0.00    +0.000 A 
ENDBRANCH   1   2
BRANCH   1  10
ATOM      8  C   UNL     1       4.899   6.658  18.118  0.00  0.00    +0.000 C 
ATOM      9  O   UNL     1       4.910   5.876  19.068  0.00  0.00    +0.000 OA
ATOM     10  N   UNL     1       3.815   7.451  17.874  0.00  0.00    +0.000 N 
ATOM     11  H   UNL     1       3.668   7.828  16.941  0.00  0.00    +0.000 HD
BRANCH   8  17
ATOM     12  C   UNL     1       7.303   5.868  17.390  0.00  0.00    +0.000 C 
ATOM     13  C   UNL     1       7.038   4.357  17.294  0.00  0.00    +0.000 C 
ATOM     14  C   UNL     1       6.306   3.931  16.024  0.00  0.00    +0.000 C 
ATOM     15  C   UNL     1       5.118   4.812  15.661  0.00  0.00    +0.000 C 
ATOM     16  C   UNL     1       5.475   6.298  15.709  0.00  0.00    +0.000 C 
ATOM     17  C   UNL     1       6.047   6.712  17.087  0.00  0.00    +0.000 C 
BRANCH  12  19
ATOM     18  O   UNL     1       8.044   5.416  19.668  0.00  0.00    +0.000 OA
ATOM     19  C   UNL     1       7.966   6.192  18.724  0.00  0.00    +0.000 C 
BRANCH  19  20
ATOM     20  O   UNL     1       8.457   7.446  18.821  0.00  0.00    +0.000 OA
ATOM     21  H   UNL     1       9.410   7.561  18.655  0.00  0.00    +0.000 HD
ENDBRANCH  19  20
ENDBRANCH  12  19
ENDBRANCH   8  17
ENDBRANCH   1  10
BRANCH   1  22
ATOM     22  C   UNL     1       1.524   8.352  18.106  0.00  0.00    +0.000 C 
BRANCH  22  23
ATOM     23  N   UNL     1       0.697   9.093  19.057  0.00  0.00    +0.000 N 
ATOM     24  C   UNL     1       0.894   9.220  20.403  0.00  0.00    +0.000 C 
ATOM     25  O   UNL     1       1.576   8.564  21.170  0.00  0.00    +0.000 OA
ATOM     26  C   UNL     1       0.077  10.340  20.838  0.00  0.00    +0.000 A 
ATOM     27  C   UNL     1       0.158  11.079  21.999  0.00  0.00    +0.000 A 
ATOM     28  C   UNL     1      -0.674  12.195  22.096  0.00  0.00    +0.000 A 
ATOM     29  C   UNL     1      -1.577  12.516  21.059  0.00  0.00    +0.000 A 
ATOM     30  C   UNL     1      -1.619  11.758  19.882  0.00  0.00    +0.000 A 
ATOM     31  C   UNL     1      -0.750  10.690  19.793  0.00  0.00    +0.000 A 
ATOM     32  C   UNL     1      -0.349   9.878  18.647  0.00  0.00    +0.000 C 
ATOM     33  O   UNL     1      -0.838   9.987  17.528  0.00  0.00    +0.000 OA
ENDBRANCH  22  23
ENDBRANCH   1  22
TORSDOF 7
ENDMDL
