MODEL 1
REMARK VINA RESULT:      -8.1      0.000      0.000
REMARK  Name = 
REMARK  8 active torsions:
REMARK  status: ('A' for Active; 'I' for Inactive)
REMARK    1  A    between atoms: C_2  and  C_3
REMARK    2  A    between atoms: C_4  and  C_5
REMARK    3  A    between atoms: C_8  and  C_9
REMARK    4  A    between atoms: N_15  and  C_16
REMARK    5  A    between atoms: C_16  and  C_17
REMARK    6  A    between atoms: C_20  and  O_21
REMARK    7  A    between atoms: C_22  and  O_23
REMARK    8  A    between atoms: C_24  and  O_25
REMARK                            x       y       z     vdW  Elec       q    Type
REMARK                         _______ _______ _______ _____ _____    ______ ____
ROOT
ATOM      1  O   UNL     1       7.457   6.661  16.357  0.00  0.00    +0.000 OA
ATOM      2  C   UNL     1       7.637   7.120  17.478  0.00  0.00    +0.000 C 
ATOM      3  N   UNL     1       7.559   6.383  18.633  0.00  0.00    +0.000 N 
ATOM      4  H   UNL     1       7.628   6.832  19.537  0.00  0.00    +0.000 HD
ENDROOT
BRANCH   2   5
ATOM      5  C   UNL     1       7.961   8.550  17.719  0.00  0.00    +0.000 C 
ATOM      6  C   UNL     1       8.778   8.897  18.724  0.00  0.00    +0.000 C 
BRANCH   6   7
ATOM      7  C   UNL     1       9.131  10.290  19.000  0.00  0.00    +0.000 A 
ATOM      8  C   UNL     1       9.136  11.240  17.978  0.00  0.00    +0.000 A 
ATOM      9  C   UNL     1       9.449  12.579  18.250  0.00  0.00    +0.000 A 
ATOM     10  C   UNL     1       9.766  12.982  19.556  0.00  0.00    +0.000 A 
ATOM     11  C   UNL     1       9.769  12.026  20.576  0.00  0.00    +0.000 A 
ATOM     12  C   UNL     1       9.456  10.686  20.307  0.00  0.00    +0.000 A 
BRANCH  10  13
ATOM     13  C   UNL     1      10.085  14.428  19.871  0.00  0.00    +0.000 C 
ATOM     14  F   UNL     1      11.311  14.607  20.435  0.00  0.00    +0.000 F 
ATOM     15  F   UNL     1      10.066  15.219  18.763  0.00  0.00    +0.000 F 
ATOM     16  F   UNL     1       9.192  14.978  20.739  0.00  0.00    +0.000 F 
ENDBRANCH  10  13
ENDBRANCH   6   7
ENDBRANCH   2   5
BRANCH   3  17
ATOM     17  C   UNL     1       7.174   4.977  18.638  0.00  0.00    +0.000 C 
BRANCH  17  18
ATOM     18  C   UNL     1       5.703   4.804  18.199  0.00  0.00    +0.000 C 
ATOM     19  N   UNL     1       5.622   4.036  16.931  0.00  0.00    +0.000 NA
ATOM     20  C   UNL     1       4.230   3.892  16.481  0.00  0.00    +0.000 C 
ATOM     21  C   UNL     1       3.260   3.315  17.525  0.00  0.00    +0.000 C 
ATOM     22  C   UNL     1       3.386   4.074  18.856  0.00  0.00    +0.000 C 
ATOM     23  C   UNL     1       4.848   4.165  19.314  0.00  0.00    +0.000 C 
ATOM     24  H   UNL     1       6.061   3.121  17.029  0.00  0.00    +0.000 HD
BRANCH  21  25
ATOM     25  O   UNL     1       1.930   3.418  17.004  0.00  0.00    +0.000 OA
ATOM     26  H   UNL     1       1.996   3.749  16.088  0.00  0.00    +0.000 HD
ENDBRANCH  21  25
BRANCH  22  27
ATOM     27  O   UNL     1       2.590   3.413  19.850  0.00  0.00    +0.000 OA
ATOM     28  H   UNL     1       2.354   4.094  20.512  0.00  0.00    +0.000 HD
ENDBRANCH  22  27
BRANCH  23  29
ATOM     29  O   UNL     1       5.317   2.856  19.673  0.00  0.00    +0.000 OA
ATOM     30  H   UNL     1       6.256   2.784  19.437  0.00  0.00    +0.000 HD
ENDBRANCH  23  29
ENDBRANCH  17  18
ENDBRANCH   3  17
TORSDOF 8
ENDMDL
MODEL 2
REMARK VINA RESULT:      -8.1      0.469      1.175
REMARK  Name = 
REMARK  8 active torsions:
REMARK  status: ('A' for Active; 'I' for Inactive)
REMARK    1  A    between atoms: C_2  and  C_3
REMARK    2  A    between atoms: C_4  and  C_5
REMARK    3  A    between atoms: C_8  and  C_9
REMARK    4  A    between atoms: N_15  and  C_16
REMARK    5  A    between atoms: C_16  and  C_17
REMARK    6  A    between atoms: C_20  and  O_21
REMARK    7  A    between atoms: C_22  and  O_23
REMARK    8  A    between atoms: C_24  and  O_25
REMARK                            x       y       z     vdW  Elec       q    Type
REMARK                         _______ _______ _______ _____ _____    ______ ____
ROOT
ATOM      1  O   UNL     1       6.935   6.912  16.404  0.00  0.00    +0.000 OA
ATOM      2  C   UNL     1       7.473   7.250  17.452  0.00  0.00    +0.000 C 
ATOM      3  N   UNL     1       7.707   6.402  18.504  0.00  0.00    +0.000 N 
ATOM      4  H   UNL     1       8.073   6.755  19.379  0.00  0.00    +0.000 HD
ENDROOT
BRANCH   2   5
ATOM      5  C   UNL     1       7.937   8.638  17.705  0.00  0.00    +0.000 C 
ATOM      6  C   UNL     1       8.714   8.907  18.765  0.00  0.00    +0.000 C 
BRANCH   6   7
ATOM      7  C   UNL     1       9.200  10.256  19.056  0.00  0.00    +0.000 A 
ATOM      8  C   UNL     1       9.581  10.612  20.350  0.00  0.00    +0.000 A 
ATOM      9  C   UNL     1      10.070  11.897  20.622  0.00  0.00    +0.000 A 
ATOM     10  C   UNL     1      10.180  12.846  19.595  0.00  0.00    +0.000 A 
ATOM     11  C   UNL     1       9.788  12.490  18.301  0.00  0.00    +0.000 A 
ATOM     12  C   UNL     1       9.299  11.205  18.026  0.00  0.00    +0.000 A 
BRANCH  10  13
ATOM     13  C   UNL     1      10.727  14.232  19.867  0.00  0.00    +0.000 C 
ATOM     14  F   UNL     1      10.664  14.596  21.177  0.00  0.00    +0.000 F 
ATOM     15  F   UNL     1      12.035  14.355  19.509  0.00  0.00    +0.000 F 
ATOM     16  F   UNL     1      10.058  15.197  19.179  0.00  0.00    +0.000 F 
ENDBRANCH  10  13
ENDBRANCH   6   7
ENDBRANCH   2   5
BRANCH   3  17
ATOM     17  C   UNL     1       7.261   5.014  18.504  0.00  0.00    +0.000 C 
BRANCH  17  18
ATOM     18  C   UNL     1       5.763   4.914  18.140  0.00  0.00    +0.000 C 
ATOM     19  N   UNL     1       5.581   4.147  16.880  0.00  0.00    +0.000 NA
ATOM     20  C   UNL     1       4.164   4.072  16.500  0.00  0.00    +0.000 C 
ATOM     21  C   UNL     1       3.219   3.546  17.593  0.00  0.00    +0.000 C 
ATOM     22  C   UNL     1       3.448   4.301  18.913  0.00  0.00    +0.000 C 
ATOM     23  C   UNL     1       4.934   4.320  19.298  0.00  0.00    +0.000 C 
ATOM     24  H   UNL     1       5.979   3.212  16.960  0.00  0.00    +0.000 HD
BRANCH  21  25
ATOM     25  O   UNL     1       1.872   3.714  17.138  0.00  0.00    +0.000 OA
ATOM     26  H   UNL     1       1.676   4.671  17.142  0.00  0.00    +0.000 HD
ENDBRANCH  21  25
BRANCH  22  27
ATOM     27  O   UNL     1       2.671   3.683  19.948  0.00  0.00    +0.000 OA
ATOM     28  H   UNL     1       1.905   4.271  20.107  0.00  0.00    +0.000 HD
ENDBRANCH  22  27
BRANCH  23  29
ATOM     29  O   UNL     1       5.354   2.990  19.640  0.00  0.00    +0.000 OA
ATOM     30  H   UNL     1       4.881   2.709  20.440  0.00  0.00    +0.000 HD
ENDBRANCH  23  29
ENDBRANCH  17  18
ENDBRANCH   3  17
TORSDOF 8
ENDMDL
MODEL 3
REMARK VINA RESULT:      -8.0      1.425      1.928
REMARK  Name = 
REMARK  8 active torsions:
REMARK  status: ('A' for Active; 'I' for Inactive)
REMARK    1  A    between atoms: C_2  and  C_3
REMARK    2  A    between atoms: C_4  and  C_5
REMARK    3  A    between atoms: C_8  and  C_9
REMARK    4  A    between atoms: N_15  and  C_16
REMARK    5  A    between atoms: C_16  and  C_17
REMARK    6  A    between atoms: C_20  and  O_21
REMARK    7  A    between atoms: C_22  and  O_23
REMARK    8  A    between atoms: C_24  and  O_25
REMARK                            x       y       z     vdW  Elec       q    Type
REMARK                         _______ _______ _______ _____ _____    ______ ____
ROOT
ATOM      1  O   UNL     1       8.087   6.626  18.825  0.00  0.00    +0.000 OA
ATOM      2  C   UNL     1       7.731   7.311  17.874  0.00  0.00    +0.000 C 
ATOM      3  N   UNL     1       6.982   6.840  16.825  0.00  0.00    +0.000 N 
ATOM      4  H   UNL     1       6.792   7.427  16.023  0.00  0.00    +0.000 HD
ENDROOT
BRANCH   2   5
ATOM      5  C   UNL     1       8.077   8.750  17.745  0.00  0.00    +0.000 C 
ATOM      6  C   UNL     1       8.862   9.340  18.659  0.00  0.00    +0.000 C 
BRANCH   6   7
ATOM      7  C   UNL     1       9.235  10.752  18.576  0.00  0.00    +0.000 A 
ATOM      8  C   UNL     1      10.343  11.239  19.271  0.00  0.00    +0.000 A 
ATOM      9  C   UNL     1      10.714  12.586  19.169  0.00  0.00    +0.000 A 
ATOM     10  C   UNL     1       9.971  13.467  18.369  0.00  0.00    +0.000 A 
ATOM     11  C   UNL     1       8.856  12.979  17.682  0.00  0.00    +0.000 A 
ATOM     12  C   UNL     1       8.484  11.631  17.781  0.00  0.00    +0.000 A 
BRANCH  10  13
ATOM     13  C   UNL     1      10.370  14.921  18.230  0.00  0.00    +0.000 C 
ATOM     14  F   UNL     1       9.375  15.794  18.548  0.00  0.00    +0.000 F 
ATOM     15  F   UNL     1      11.422  15.251  19.028  0.00  0.00    +0.000 F 
ATOM     16  F   UNL     1      10.750  15.236  16.961  0.00  0.00    +0.000 F 
ENDBRANCH  10  13
ENDBRANCH   6   7
ENDBRANCH   2   5
BRANCH   3  17
ATOM     17  C   UNL     1       6.600   5.439  16.705  0.00  0.00    +0.000 C 
BRANCH  17  18
ATOM     18  C   UNL     1       5.127   5.229  17.121  0.00  0.00    +0.000 C 
ATOM     19  N   UNL     1       4.665   3.870  16.743  0.00  0.00    +0.000 NA
ATOM     20  C   UNL     1       3.254   3.666  17.101  0.00  0.00    +0.000 C 
ATOM     21  C   UNL     1       2.899   3.968  18.566  0.00  0.00    +0.000 C 
ATOM     22  C   UNL     1       3.428   5.352  18.975  0.00  0.00    +0.000 C 
ATOM     23  C   UNL     1       4.915   5.510  18.624  0.00  0.00    +0.000 C 
ATOM     24  H   UNL     1       5.248   3.152  17.171  0.00  0.00    +0.000 HD
BRANCH  21  25
ATOM     25  O   UNL     1       1.475   3.908  18.703  0.00  0.00    +0.000 OA
ATOM     26  H   UNL     1       1.267   3.159  19.294  0.00  0.00    +0.000 HD
ENDBRANCH  21  25
BRANCH  22  27
ATOM     27  O   UNL     1       3.224   5.536  20.383  0.00  0.00    +0.000 OA
ATOM     28  H   UNL     1       3.014   6.483  20.510  0.00  0.00    +0.000 HD
ENDBRANCH  22  27
BRANCH  23  29
ATOM     29  O   UNL     1       5.695   4.636  19.455  0.00  0.00    +0.000 OA
ATOM     30  H   UNL     1       5.096   4.036  19.928  0.00  0.00    +0.000 HD
ENDBRANCH  23  29
ENDBRANCH  17  18
ENDBRANCH   3  17
TORSDOF 8
ENDMDL
MODEL 4
REMARK VINA RESULT:      -7.9      5.880      7.970
REMARK  Name = 
REMARK  8 active torsions:
REMARK  status: ('A' for Active; 'I' for Inactive)
REMARK    1  A    between atoms: C_2  and  C_3
REMARK    2  A    between atoms: C_4  and  C_5
REMARK    3  A    between atoms: C_8  and  C_9
REMARK    4  A    between atoms: N_15  and  C_16
REMARK    5  A    between atoms: C_16  and  C_17
REMARK    6  A    between atoms: C_20  and  O_21
REMARK    7  A    between atoms: C_22  and  O_23
REMARK    8  A    between atoms: C_24  and  O_25
REMARK                            x       y       z     vdW  Elec       q    Type
REMARK                         _______ _______ _______ _____ _____    ______ ____
ROOT
ATOM      1  O   UNL     1       3.577   4.813  20.315  0.00  0.00    +0.000 OA
ATOM      2  C   UNL     1       2.620   5.312  19.734  0.00  0.00    +0.000 C 
ATOM      3  N   UNL     1       2.271   5.022  18.440  0.00  0.00    +0.000 N 
ATOM      4  H   UNL     1       1.525   5.529  17.981  0.00  0.00    +0.000 HD
ENDROOT
BRANCH   2   5
ATOM      5  C   UNL     1       1.718   6.303  20.375  0.00  0.00    +0.000 C 
ATOM      6  C   UNL     1       1.919   7.616  20.191  0.00  0.00    +0.000 C 
BRANCH   6   7
ATOM      7  C   UNL     1       1.058   8.632  20.797  0.00  0.00    +0.000 A 
ATOM      8  C   UNL     1       0.884   8.685  22.180  0.00  0.00    +0.000 A 
ATOM      9  C   UNL     1       0.079   9.675  22.760  0.00  0.00    +0.000 A 
ATOM     10  C   UNL     1      -0.565  10.627  21.955  0.00  0.00    +0.000 A 
ATOM     11  C   UNL     1      -0.396  10.565  20.569  0.00  0.00    +0.000 A 
ATOM     12  C   UNL     1       0.409   9.577  19.986  0.00  0.00    +0.000 A 
BRANCH  10  13
ATOM     13  C   UNL     1      -1.420  11.717  22.567  0.00  0.00    +0.000 C 
ATOM     14  F   UNL     1      -2.234  11.277  23.566  0.00  0.00    +0.000 F 
ATOM     15  F   UNL     1      -0.676  12.720  23.108  0.00  0.00    +0.000 F 
ATOM     16  F   UNL     1      -2.238  12.308  21.654  0.00  0.00    +0.000 F 
ENDBRANCH  10  13
ENDBRANCH   6   7
ENDBRANCH   2   5
BRANCH   3  17
ATOM     17  C   UNL     1       3.064   4.137  17.595  0.00  0.00    +0.000 C 
BRANCH  17  18
ATOM     18  C   UNL     1       4.315   4.863  17.054  0.00  0.00    +0.000 C 
ATOM     19  N   UNL     1       4.365   6.261  17.551  0.00  0.00    +0.000 NA
ATOM     20  C   UNL     1       5.532   6.977  17.017  0.00  0.00    +0.000 C 
ATOM     21  C   UNL     1       6.885   6.279  17.234  0.00  0.00    +0.000 C 
ATOM     22  C   UNL     1       6.815   4.814  16.772  0.00  0.00    +0.000 C 
ATOM     23  C   UNL     1       5.609   4.089  17.385  0.00  0.00    +0.000 C 
ATOM     24  H   UNL     1       4.366   6.288  18.570  0.00  0.00    +0.000 HD
BRANCH  21  25
ATOM     25  O   UNL     1       7.882   6.997  16.498  0.00  0.00    +0.000 OA
ATOM     26  H   UNL     1       7.426   7.689  15.982  0.00  0.00    +0.000 HD
ENDBRANCH  21  25
BRANCH  22  27
ATOM     27  O   UNL     1       8.034   4.150  17.133  0.00  0.00    +0.000 OA
ATOM     28  H   UNL     1       7.777   3.373  17.669  0.00  0.00    +0.000 HD
ENDBRANCH  22  27
BRANCH  23  29
ATOM     29  O   UNL     1       5.808   3.945  18.799  0.00  0.00    +0.000 OA
ATOM     30  H   UNL     1       5.177   4.520  19.264  0.00  0.00    +0.000 HD
ENDBRANCH  23  29
ENDBRANCH  17  18
ENDBRANCH   3  17
TORSDOF 8
ENDMDL
MODEL 5
REMARK VINA RESULT:      -7.9      1.562      2.113
REMARK  Name = 
REMARK  8 active torsions:
REMARK  status: ('A' for Active; 'I' for Inactive)
REMARK    1  A    between atoms: C_2  and  C_3
REMARK    2  A    between atoms: C_4  and  C_5
REMARK    3  A    between atoms: C_8  and  C_9
REMARK    4  A    between atoms: N_15  and  C_16
REMARK    5  A    between atoms: C_16  and  C_17
REMARK    6  A    between atoms: C_20  and  O_21
REMARK    7  A    between atoms: C_22  and  O_23
REMARK    8  A    between atoms: C_24  and  O_25
REMARK                            x       y       z     vdW  Elec       q    Type
REMARK                         _______ _______ _______ _____ _____    ______ ____
ROOT
ATOM      1  O   UNL     1       7.734   5.107  17.309  0.00  0.00    +0.000 OA
ATOM      2  C   UNL     1       7.122   6.124  17.610  0.00  0.00    +0.000 C 
ATOM      3  N   UNL     1       5.777   6.301  17.405  0.00  0.00    +0.000 N 
ATOM      4  H   UNL     1       5.340   7.195  17.590  0.00  0.00    +0.000 HD
ENDROOT
BRANCH   2   5
ATOM      5  C   UNL     1       7.778   7.301  18.236  0.00  0.00    +0.000 C 
ATOM      6  C   UNL     1       7.812   8.477  17.591  0.00  0.00    +0.000 C 
BRANCH   6   7
ATOM      7  C   UNL     1       8.442   9.666  18.165  0.00  0.00    +0.000 A 
ATOM      8  C   UNL     1       9.127   9.594  19.378  0.00  0.00    +0.000 A 
ATOM      9  C   UNL     1       9.752  10.729  19.913  0.00  0.00    +0.000 A 
ATOM     10  C   UNL     1       9.693  11.956  19.237  0.00  0.00    +0.000 A 
ATOM     11  C   UNL     1       8.998  12.028  18.026  0.00  0.00    +0.000 A 
ATOM     12  C   UNL     1       8.373  10.894  17.488  0.00  0.00    +0.000 A 
BRANCH  10  13
ATOM     13  C   UNL     1      10.381  13.187  19.790  0.00  0.00    +0.000 C 
ATOM     14  F   UNL     1      11.555  12.917  20.426  0.00  0.00    +0.000 F 
ATOM     15  F   UNL     1      10.683  14.094  18.821  0.00  0.00    +0.000 F 
ATOM     16  F   UNL     1       9.610  13.848  20.696  0.00  0.00    +0.000 F 
ENDBRANCH  10  13
ENDBRANCH   6   7
ENDBRANCH   2   5
BRANCH   3  17
ATOM     17  C   UNL     1       4.952   5.307  16.730  0.00  0.00    +0.000 C 
BRANCH  17  18
ATOM     18  C   UNL     1       3.633   5.070  17.497  0.00  0.00    +0.000 C 
ATOM     19  N   UNL     1       3.168   3.670  17.320  0.00  0.00    +0.000 NA
ATOM     20  C   UNL     1       1.895   3.437  18.015  0.00  0.00    +0.000 C 
ATOM     21  C   UNL     1       1.879   3.826  19.502  0.00  0.00    +0.000 C 
ATOM     22  C   UNL     1       2.413   5.255  19.691  0.00  0.00    +0.000 C 
ATOM     23  C   UNL     1       3.765   5.446  18.988  0.00  0.00    +0.000 C 
ATOM     24  H   UNL     1       3.875   3.007  17.638  0.00  0.00    +0.000 HD
BRANCH  21  25
ATOM     25  O   UNL     1       0.532   3.720  19.978  0.00  0.00    +0.000 OA
ATOM     26  H   UNL     1       0.267   4.599  20.311  0.00  0.00    +0.000 HD
ENDBRANCH  21  25
BRANCH  22  27
ATOM     27  O   UNL     1       2.537   5.529  21.094  0.00  0.00    +0.000 OA
ATOM     28  H   UNL     1       2.144   4.764  21.560  0.00  0.00    +0.000 HD
ENDBRANCH  22  27
BRANCH  23  29
ATOM     29  O   UNL     1       4.765   4.663  19.658  0.00  0.00    +0.000 OA
ATOM     30  H   UNL     1       5.149   4.036  19.023  0.00  0.00    +0.000 HD
ENDBRANCH  23  29
ENDBRANCH  17  18
ENDBRANCH   3  17
TORSDOF 8
ENDMDL
MODEL 6
REMARK VINA RESULT:      -7.8      8.261     10.032
REMARK  Name = 
REMARK  8 active torsions:
REMARK  status: ('A' for Active; 'I' for Inactive)
REMARK    1  A    between atoms: C_2  and  C_3
REMARK    2  A    between atoms: C_4  and  C_5
REMARK    3  A    between atoms: C_8  and  C_9
REMARK    4  A    between atoms: N_15  and  C_16
REMARK    5  A    between atoms: C_16  and  C_17
REMARK    6  A    between atoms: C_20  and  O_21
REMARK    7  A    between atoms: C_22  and  O_23
REMARK    8  A    between atoms: C_24  and  O_25
REMARK                            x       y       z     vdW  Elec       q    Type
REMARK                         _______ _______ _______ _____ _____    ______ ____
ROOT
ATOM      1  O   UNL     1       1.027   9.416  20.302  0.00  0.00    +0.000 OA
ATOM      2  C   UNL     1       1.059   9.589  19.089  0.00  0.00    +0.000 C 
ATOM      3  N   UNL     1       0.363  10.574  18.436  0.00  0.00    +0.000 N 
ATOM      4  H   UNL     1       0.356  10.616  17.424  0.00  0.00    +0.000 HD
ENDROOT
BRANCH   2   5
ATOM      5  C   UNL     1       1.865   8.738  18.176  0.00  0.00    +0.000 C 
ATOM      6  C   UNL     1       2.554   7.693  18.660  0.00  0.00    +0.000 C 
BRANCH   6   7
ATOM      7  C   UNL     1       3.359   6.823  17.803  0.00  0.00    +0.000 A 
ATOM      8  C   UNL     1       4.313   7.360  16.937  0.00  0.00    +0.000 A 
ATOM      9  C   UNL     1       5.101   6.522  16.136  0.00  0.00    +0.000 A 
ATOM     10  C   UNL     1       4.939   5.130  16.192  0.00  0.00    +0.000 A 
ATOM     11  C   UNL     1       3.977   4.596  17.054  0.00  0.00    +0.000 A 
ATOM     12  C   UNL     1       3.188   5.431  17.857  0.00  0.00    +0.000 A 
BRANCH  10  13
ATOM     13  C   UNL     1       5.797   4.210  15.350  0.00  0.00    +0.000 C 
ATOM     14  F   UNL     1       7.096   4.608  15.257  0.00  0.00    +0.000 F 
ATOM     15  F   UNL     1       5.832   2.939  15.837  0.00  0.00    +0.000 F 
ATOM     16  F   UNL     1       5.346   4.108  14.070  0.00  0.00    +0.000 F 
ENDBRANCH  10  13
ENDBRANCH   6   7
ENDBRANCH   2   5
BRANCH   3  17
ATOM     17  C   UNL     1      -0.554  11.472  19.125  0.00  0.00    +0.000 C 
BRANCH  17  18
ATOM     18  C   UNL     1      -2.019  11.174  18.736  0.00  0.00    +0.000 C 
ATOM     19  N   UNL     1      -2.915  12.266  19.194  0.00  0.00    +0.000 NA
ATOM     20  C   UNL     1      -4.318  11.981  18.862  0.00  0.00    +0.000 C 
ATOM     21  C   UNL     1      -4.587  11.645  17.386  0.00  0.00    +0.000 C 
ATOM     22  C   UNL     1      -3.621  10.554  16.897  0.00  0.00    +0.000 C 
ATOM     23  C   UNL     1      -2.163  10.909  17.222  0.00  0.00    +0.000 C 
ATOM     24  H   UNL     1      -2.630  13.162  18.800  0.00  0.00    +0.000 HD
BRANCH  21  25
ATOM     25  O   UNL     1      -5.947  11.210  17.267  0.00  0.00    +0.000 OA
ATOM     26  H   UNL     1      -6.507  11.865  17.726  0.00  0.00    +0.000 HD
ENDBRANCH  21  25
BRANCH  22  27
ATOM     27  O   UNL     1      -3.788  10.378  15.483  0.00  0.00    +0.000 OA
ATOM     28  H   UNL     1      -3.971   9.428  15.342  0.00  0.00    +0.000 HD
ENDBRANCH  22  27
BRANCH  23  29
ATOM     29  O   UNL     1      -1.760  12.039  16.433  0.00  0.00    +0.000 OA
ATOM     30  H   UNL     1      -0.803  11.987  16.278  0.00  0.00    +0.000 HD
ENDBRANCH  23  29
ENDBRANCH  17  18
ENDBRANCH   3  17
TORSDOF 8
ENDMDL
MODEL 7
REMARK VINA RESULT:      -7.8      1.493      2.103
REMARK  Name = 
REMARK  8 active torsions:
REMARK  status: ('A' for Active; 'I' for Inactive)
REMARK    1  A    between atoms: C_2  and  C_3
REMARK    2  A    between atoms: C_4  and  C_5
REMARK    3  A    between atoms: C_8  and  C_9
REMARK    4  A    between atoms: N_15  and  C_16
REMARK    5  A    between atoms: C_16  and  C_17
REMARK    6  A    between atoms: C_20  and  O_21
REMARK    7  A    between atoms: C_22  and  O_23
REMARK    8  A    between atoms: C_24  and  O_25
REMARK                            x       y       z     vdW  Elec       q    Type
REMARK                         _______ _______ _______ _____ _____    ______ ____
ROOT
ATOM      1  O   UNL     1       8.152   6.787  18.458  0.00  0.00    +0.000 OA
ATOM      2  C   UNL     1       7.735   7.689  17.742  0.00  0.00    +0.000 C 
ATOM      3  N   UNL     1       6.709   7.545  16.843  0.00  0.00    +0.000 N 
ATOM      4  H   UNL     1       6.465   8.300  16.213  0.00  0.00    +0.000 HD
ENDROOT
BRANCH   2   5
ATOM      5  C   UNL     1       8.306   9.061  17.763  0.00  0.00    +0.000 C 
ATOM      6  C   UNL     1       8.831   9.556  18.894  0.00  0.00    +0.000 C 
BRANCH   6   7
ATOM      7  C   UNL     1       9.409  10.898  18.966  0.00  0.00    +0.000 A 
ATOM      8  C   UNL     1      10.312  11.232  19.976  0.00  0.00    +0.000 A 
ATOM      9  C   UNL     1      10.883  12.510  20.028  0.00  0.00    +0.000 A 
ATOM     10  C   UNL     1      10.551  13.475  19.065  0.00  0.00    +0.000 A 
ATOM     11  C   UNL     1       9.639  13.141  18.061  0.00  0.00    +0.000 A 
ATOM     12  C   UNL     1       9.066  11.862  18.006  0.00  0.00    +0.000 A 
BRANCH  10  13
ATOM     13  C   UNL     1      11.176  14.854  19.094  0.00  0.00    +0.000 C 
ATOM     14  F   UNL     1      12.060  15.033  20.114  0.00  0.00    +0.000 F 
ATOM     15  F   UNL     1      11.862  15.139  17.953  0.00  0.00    +0.000 F 
ATOM     16  F   UNL     1      10.248  15.841  19.229  0.00  0.00    +0.000 F 
ENDBRANCH  10  13
ENDBRANCH   6   7
ENDBRANCH   2   5
BRANCH   3  17
ATOM     17  C   UNL     1       6.057   6.265  16.599  0.00  0.00    +0.000 C 
BRANCH  17  18
ATOM     18  C   UNL     1       5.262   5.802  17.839  0.00  0.00    +0.000 C 
ATOM     19  N   UNL     1       3.813   6.078  17.665  0.00  0.00    +0.000 NA
ATOM     20  C   UNL     1       3.046   5.675  18.852  0.00  0.00    +0.000 C 
ATOM     21  C   UNL     1       3.267   4.227  19.315  0.00  0.00    +0.000 C 
ATOM     22  C   UNL     1       4.769   3.924  19.440  0.00  0.00    +0.000 C 
ATOM     23  C   UNL     1       5.528   4.317  18.165  0.00  0.00    +0.000 C 
ATOM     24  H   UNL     1       3.450   5.616  16.832  0.00  0.00    +0.000 HD
BRANCH  21  25
ATOM     25  O   UNL     1       2.607   4.053  20.574  0.00  0.00    +0.000 OA
ATOM     26  H   UNL     1       2.403   4.941  20.924  0.00  0.00    +0.000 HD
ENDBRANCH  21  25
BRANCH  22  27
ATOM     27  O   UNL     1       4.945   2.527  19.716  0.00  0.00    +0.000 OA
ATOM     28  H   UNL     1       5.610   2.468  20.431  0.00  0.00    +0.000 HD
ENDBRANCH  22  27
BRANCH  23  29
ATOM     29  O   UNL     1       5.139   3.448  17.091  0.00  0.00    +0.000 OA
ATOM     30  H   UNL     1       4.340   2.962  17.355  0.00  0.00    +0.000 HD
ENDBRANCH  23  29
ENDBRANCH  17  18
ENDBRANCH   3  17
TORSDOF 8
ENDMDL
MODEL 8
REMARK VINA RESULT:      -7.8      1.410      1.894
REMARK  Name = 
REMARK  8 active torsions:
REMARK  status: ('A' for Active; 'I' for Inactive)
REMARK    1  A    between atoms: C_2  and  C_3
REMARK    2  A    between atoms: C_4  and  C_5
REMARK    3  A    between atoms: C_8  and  C_9
REMARK    4  A    between atoms: N_15  and  C_16
REMARK    5  A    between atoms: C_16  and  C_17
REMARK    6  A    between atoms: C_20  and  O_21
REMARK    7  A    between atoms: C_22  and  O_23
REMARK    8  A    between atoms: C_24  and  O_25
REMARK                            x       y       z     vdW  Elec       q    Type
REMARK                         _______ _______ _______ _____ _____    ______ ____
ROOT
ATOM      1  O   UNL     1       8.284   7.005  18.702  0.00  0.00    +0.000 OA
ATOM      2  C   UNL     1       7.887   7.865  17.925  0.00  0.00    +0.000 C 
ATOM      3  N   UNL     1       7.000   7.629  16.906  0.00  0.00    +0.000 N 
ATOM      4  H   UNL     1       6.775   8.356  16.239  0.00  0.00    +0.000 HD
ENDROOT
BRANCH   2   5
ATOM      5  C   UNL     1       8.331   9.281  17.998  0.00  0.00    +0.000 C 
ATOM      6  C   UNL     1       9.111   9.693  19.009  0.00  0.00    +0.000 C 
BRANCH   6   7
ATOM      7  C   UNL     1       9.577  11.075  19.124  0.00  0.00    +0.000 A 
ATOM      8  C   UNL     1       9.511  11.943  18.034  0.00  0.00    +0.000 A 
ATOM      9  C   UNL     1       9.935  13.273  18.154  0.00  0.00    +0.000 A 
ATOM     10  C   UNL     1      10.435  13.750  19.375  0.00  0.00    +0.000 A 
ATOM     11  C   UNL     1      10.508  12.876  20.463  0.00  0.00    +0.000 A 
ATOM     12  C   UNL     1      10.084  11.545  20.346  0.00  0.00    +0.000 A 
BRANCH  10  13
ATOM     13  C   UNL     1      10.876  15.191  19.529  0.00  0.00    +0.000 C 
ATOM     14  F   UNL     1      11.178  15.799  18.348  0.00  0.00    +0.000 F 
ATOM     15  F   UNL     1       9.924  15.967  20.114  0.00  0.00    +0.000 F 
ATOM     16  F   UNL     1      11.988  15.312  20.305  0.00  0.00    +0.000 F 
ENDBRANCH  10  13
ENDBRANCH   6   7
ENDBRANCH   2   5
BRANCH   3  17
ATOM     17  C   UNL     1       6.498   6.295  16.600  0.00  0.00    +0.000 C 
BRANCH  17  18
ATOM     18  C   UNL     1       5.533   5.802  17.700  0.00  0.00    +0.000 C 
ATOM     19  N   UNL     1       4.120   6.000  17.285  0.00  0.00    +0.000 NA
ATOM     20  C   UNL     1       3.188   5.568  18.336  0.00  0.00    +0.000 C 
ATOM     21  C   UNL     1       3.402   4.136  18.852  0.00  0.00    +0.000 C 
ATOM     22  C   UNL     1       4.876   3.912  19.228  0.00  0.00    +0.000 C 
ATOM     23  C   UNL     1       5.815   4.335  18.089  0.00  0.00    +0.000 C 
ATOM     24  H   UNL     1       3.924   5.514  16.411  0.00  0.00    +0.000 HD
BRANCH  21  25
ATOM     25  O   UNL     1       2.553   3.938  19.988  0.00  0.00    +0.000 OA
ATOM     26  H   UNL     1       1.789   4.539  19.893  0.00  0.00    +0.000 HD
ENDBRANCH  21  25
BRANCH  22  27
ATOM     27  O   UNL     1       5.074   2.529  19.551  0.00  0.00    +0.000 OA
ATOM     28  H   UNL     1       4.788   2.418  20.480  0.00  0.00    +0.000 HD
ENDBRANCH  22  27
BRANCH  23  29
ATOM     29  O   UNL     1       5.652   3.438  16.979  0.00  0.00    +0.000 OA
ATOM     30  H   UNL     1       4.972   3.796  16.385  0.00  0.00    +0.000 HD
ENDBRANCH  23  29
ENDBRANCH  17  18
ENDBRANCH   3  17
TORSDOF 8
ENDMDL
MODEL 9
REMARK VINA RESULT:      -7.7      8.198     10.010
REMARK  Name = 
REMARK  8 active torsions:
REMARK  status: ('A' for Active; 'I' for Inactive)
REMARK    1  A    between atoms: C_2  and  C_3
REMARK    2  A    between atoms: C_4  and  C_5
REMARK    3  A    between atoms: C_8  and  C_9
REMARK    4  A    between atoms: N_15  and  C_16
REMARK    5  A    between atoms: C_16  and  C_17
REMARK    6  A    between atoms: C_20  and  O_21
REMARK    7  A    between atoms: C_22  and  O_23
REMARK    8  A    between atoms: C_24  and  O_25
REMARK                            x       y       z     vdW  Elec       q    Type
REMARK                         _______ _______ _______ _____ _____    ______ ____
ROOT
ATOM      1  O   UNL     1       0.515   9.213  20.417  0.00  0.00    +0.000 OA
ATOM      2  C   UNL     1       0.846   9.590  19.299  0.00  0.00    +0.000 C 
ATOM      3  N   UNL     1       0.412  10.756  18.721  0.00  0.00    +0.000 N 
ATOM      4  H   UNL     1       0.647  10.974  17.761  0.00  0.00    +0.000 HD
ENDROOT
BRANCH   2   5
ATOM      5  C   UNL     1       1.766   8.813  18.429  0.00  0.00    +0.000 C 
ATOM      6  C   UNL     1       2.220   7.615  18.827  0.00  0.00    +0.000 C 
BRANCH   6   7
ATOM      7  C   UNL     1       3.125   6.809  18.007  0.00  0.00    +0.000 A 
ATOM      8  C   UNL     1       3.032   5.417  18.000  0.00  0.00    +0.000 A 
ATOM      9  C   UNL     1       3.882   4.649  17.193  0.00  0.00    +0.000 A 
ATOM     10  C   UNL     1       4.844   5.271  16.383  0.00  0.00    +0.000 A 
ATOM     11  C   UNL     1       4.942   6.665  16.399  0.00  0.00    +0.000 A 
ATOM     12  C   UNL     1       4.091   7.436  17.204  0.00  0.00    +0.000 A 
BRANCH  10  13
ATOM     13  C   UNL     1       5.756   4.458  15.489  0.00  0.00    +0.000 C 
ATOM     14  F   UNL     1       5.839   3.145  15.842  0.00  0.00    +0.000 F 
ATOM     15  F   UNL     1       5.356   4.469  14.188  0.00  0.00    +0.000 F 
ATOM     16  F   UNL     1       7.035   4.925  15.491  0.00  0.00    +0.000 F 
ENDBRANCH  10  13
ENDBRANCH   6   7
ENDBRANCH   2   5
BRANCH   3  17
ATOM     17  C   UNL     1      -0.560  11.632  19.363  0.00  0.00    +0.000 C 
BRANCH  17  18
ATOM     18  C   UNL     1      -1.998  11.274  18.931  0.00  0.00    +0.000 C 
ATOM     19  N   UNL     1      -2.942  12.360  19.301  0.00  0.00    +0.000 NA
ATOM     20  C   UNL     1      -4.322  12.019  18.928  0.00  0.00    +0.000 C 
ATOM     21  C   UNL     1      -4.522  11.609  17.460  0.00  0.00    +0.000 C 
ATOM     22  C   UNL     1      -3.507  10.525  17.060  0.00  0.00    +0.000 C 
ATOM     23  C   UNL     1      -2.074  10.937  17.426  0.00  0.00    +0.000 C 
ATOM     24  H   UNL     1      -2.666  13.245  18.878  0.00  0.00    +0.000 HD
BRANCH  21  25
ATOM     25  O   UNL     1      -5.863  11.130  17.308  0.00  0.00    +0.000 OA
ATOM     26  H   UNL     1      -6.290  11.667  16.613  0.00  0.00    +0.000 HD
ENDBRANCH  21  25
BRANCH  22  27
ATOM     27  O   UNL     1      -3.612  10.281  15.650  0.00  0.00    +0.000 OA
ATOM     28  H   UNL     1      -4.165  11.001  15.286  0.00  0.00    +0.000 HD
ENDBRANCH  22  27
BRANCH  23  29
ATOM     29  O   UNL     1      -1.670  12.041  16.602  0.00  0.00    +0.000 OA
ATOM     30  H   UNL     1      -0.774  12.314  16.862  0.00  0.00    +0.000 HD
ENDBRANCH  23  29
ENDBRANCH  17  18
ENDBRANCH   3  17
TORSDOF 8
ENDMDL
