MODEL 1
REMARK VINA RESULT:      -8.8      0.000      0.000
REMARK  Name = 
REMARK  7 active torsions:
REMARK  status: ('A' for Active; 'I' for Inactive)
REMARK    1  A    between atoms: C_1  and  C_2
REMARK    2  A    between atoms: C_7  and  C_8
REMARK    3  A    between atoms: C_8  and  N_9
REMARK    4  A    between atoms: N_19  and  C_20
REMARK    5  A    between atoms: C_20  and  C_21
REMARK    6  A    between atoms: N_23  and  C_24
REMARK    7  A    between atoms: C_24  and  C_25
REMARK                            x       y       z     vdW  Elec       q    Type
REMARK                         _______ _______ _______ _____ _____    ______ ____
ROOT
ATOM      1  N   UNL     1       2.998   5.724  18.234  0.00  0.00    +0.000 N 
ATOM      2  C   UNL     1       2.923   4.632  19.107  0.00  0.00    +0.000 A 
ATOM      3  C   UNL     1       3.504   3.355  19.039  0.00  0.00    +0.000 A 
ATOM      4  C   UNL     1       3.301   2.473  20.110  0.00  0.00    +0.000 A 
ATOM      5  C   UNL     1       2.553   2.846  21.221  0.00  0.00    +0.000 A 
ATOM      6  C   UNL     1       2.003   4.127  21.300  0.00  0.00    +0.000 A 
ATOM      7  C   UNL     1       2.191   5.032  20.234  0.00  0.00    +0.000 A 
ATOM      8  C   UNL     1       1.881   6.397  20.053  0.00  0.00    +0.000 A 
ATOM      9  C   UNL     1       1.335   7.367  20.962  0.00  0.00    +0.000 A 
ATOM     10  N   UNL     1       1.365   8.634  20.677  0.00  0.00    +0.000 NA
ATOM     11  N   UNL     1       1.889   9.052  19.444  0.00  0.00    +0.000 N 
ATOM     12  C   UNL     1       2.285   8.186  18.418  0.00  0.00    +0.000 A 
ATOM     13  O   UNL     1       2.614   8.568  17.291  0.00  0.00    +0.000 OA
ATOM     14  C   UNL     1       2.333   6.796  18.814  0.00  0.00    +0.000 A 
ENDROOT
BRANCH   1  15
ATOM     15  C   UNL     1       3.937   5.812  17.081  0.00  0.00    +0.000 C 
BRANCH  15  22
ATOM     16  C   UNL     1       5.922   3.808  15.643  0.00  0.00    +0.000 C 
ATOM     17  C   UNL     1       6.287   4.692  16.796  0.00  0.00    +0.000 A 
ATOM     18  C   UNL     1       7.591   4.499  17.302  0.00  0.00    +0.000 A 
ATOM     19  C   UNL     1       7.934   4.976  18.548  0.00  0.00    +0.000 A 
ATOM     20  C   UNL     1       7.011   5.729  19.241  0.00  0.00    +0.000 A 
ATOM     21  C   UNL     1       5.843   6.132  18.653  0.00  0.00    +0.000 A 
ATOM     22  C   UNL     1       5.382   5.541  17.480  0.00  0.00    +0.000 A 
ENDBRANCH  15  22
ENDBRANCH   1  15
BRANCH  11  23
ATOM     23  C   UNL     1       1.854  10.486  19.194  0.00  0.00    +0.000 C 
BRANCH  23  24
ATOM     24  C   UNL     1       0.487  11.190  19.204  0.00  0.00    +0.000 C 
ATOM     25  O   UNL     1       0.455  12.424  19.280  0.00  0.00    +0.000 OA
ATOM     26  N   UNL     1      -0.684  10.457  19.161  0.00  0.00    +0.000 N 
ATOM     27  H   UNL     1      -0.663   9.459  18.991  0.00  0.00    +0.000 HD
BRANCH  26  28
ATOM     28  C   UNL     1      -1.944  11.169  18.945  0.00  0.00    +0.000 C 
BRANCH  28  29
ATOM     29  C   UNL     1      -2.713  10.913  17.657  0.00  0.00    +0.000 A 
ATOM     30  C   UNL     1      -2.250   9.960  16.754  0.00  0.00    +0.000 A 
ATOM     31  C   UNL     1      -2.846   9.828  15.502  0.00  0.00    +0.000 A 
ATOM     32  C   UNL     1      -3.952  10.578  15.192  0.00  0.00    +0.000 A 
ATOM     33  C   UNL     1      -4.483  11.313  16.223  0.00  0.00    +0.000 A 
ATOM     34  N   UNL     1      -3.888  11.533  17.432  0.00  0.00    +0.000 NA
ENDBRANCH  28  29
ENDBRANCH  26  28
ENDBRANCH  23  24
ENDBRANCH  11  23
TORSDOF 6
ENDMDL
MODEL 2
REMARK VINA RESULT:      -8.5      2.343      8.626
REMARK  Name = 
REMARK  7 active torsions:
REMARK  status: ('A' for Active; 'I' for Inactive)
REMARK    1  A    between atoms: C_1  and  C_2
REMARK    2  A    between atoms: C_7  and  C_8
REMARK    3  A    between atoms: C_8  and  N_9
REMARK    4  A    between atoms: N_19  and  C_20
REMARK    5  A    between atoms: C_20  and  C_21
REMARK    6  A    between atoms: N_23  and  C_24
REMARK    7  A    between atoms: C_24  and  C_25
REMARK                            x       y       z     vdW  Elec       q    Type
REMARK                         _______ _______ _______ _____ _____    ______ ____
ROOT
ATOM      1  N   UNL     1       1.108   9.897  19.631  0.00  0.00    +0.000 N 
ATOM      2  C   UNL     1       0.520  10.173  20.870  0.00  0.00    +0.000 A 
ATOM      3  C   UNL     1      -0.216  11.284  21.315  0.00  0.00    +0.000 A 
ATOM      4  C   UNL     1      -0.745  11.255  22.613  0.00  0.00    +0.000 A 
ATOM      5  C   UNL     1      -0.563  10.155  23.444  0.00  0.00    +0.000 A 
ATOM      6  C   UNL     1       0.141   9.039  22.987  0.00  0.00    +0.000 A 
ATOM      7  C   UNL     1       0.686   9.045  21.685  0.00  0.00    +0.000 A 
ATOM      8  C   UNL     1       1.329   8.065  20.898  0.00  0.00    +0.000 A 
ATOM      9  C   UNL     1       1.564   6.669  21.139  0.00  0.00    +0.000 A 
ATOM     10  N   UNL     1       1.946   5.884  20.177  0.00  0.00    +0.000 NA
ATOM     11  N   UNL     1       2.182   6.420  18.902  0.00  0.00    +0.000 N 
ATOM     12  C   UNL     1       2.153   7.787  18.601  0.00  0.00    +0.000 A 
ATOM     13  O   UNL     1       2.495   8.253  17.510  0.00  0.00    +0.000 OA
ATOM     14  C   UNL     1       1.624   8.609  19.666  0.00  0.00    +0.000 A 
ENDROOT
BRANCH   1  15
ATOM     15  C   UNL     1       0.882  10.701  18.397  0.00  0.00    +0.000 C 
BRANCH  15  22
ATOM     16  C   UNL     1      -0.907  13.293  18.729  0.00  0.00    +0.000 C 
ATOM     17  C   UNL     1      -1.376  12.002  18.129  0.00  0.00    +0.000 A 
ATOM     18  C   UNL     1      -2.749  11.963  17.803  0.00  0.00    +0.000 A 
ATOM     19  C   UNL     1      -3.379  10.759  17.578  0.00  0.00    +0.000 A 
ATOM     20  C   UNL     1      -2.620   9.609  17.580  0.00  0.00    +0.000 A 
ATOM     21  C   UNL     1      -1.254   9.663  17.645  0.00  0.00    +0.000 A 
ATOM     22  C   UNL     1      -0.594  10.823  18.040  0.00  0.00    +0.000 A 
ENDBRANCH  15  22
ENDBRANCH   1  15
BRANCH  11  23
ATOM     23  C   UNL     1       2.638   5.476  17.893  0.00  0.00    +0.000 C 
BRANCH  23  24
ATOM     24  C   UNL     1       4.151   5.362  17.637  0.00  0.00    +0.000 C 
ATOM     25  O   UNL     1       4.833   4.673  18.406  0.00  0.00    +0.000 OA
ATOM     26  N   UNL     1       4.741   6.042  16.588  0.00  0.00    +0.000 N 
ATOM     27  H   UNL     1       4.175   6.516  15.896  0.00  0.00    +0.000 HD
BRANCH  26  28
ATOM     28  C   UNL     1       6.129   5.727  16.249  0.00  0.00    +0.000 C 
BRANCH  28  29
ATOM     29  C   UNL     1       6.429   5.145  14.876  0.00  0.00    +0.000 A 
ATOM     30  C   UNL     1       5.490   4.328  14.251  0.00  0.00    +0.000 A 
ATOM     31  C   UNL     1       5.811   3.658  13.073  0.00  0.00    +0.000 A 
ATOM     32  C   UNL     1       7.027   3.875  12.477  0.00  0.00    +0.000 A 
ATOM     33  C   UNL     1       7.792   4.873  13.027  0.00  0.00    +0.000 A 
ATOM     34  N   UNL     1       7.554   5.493  14.220  0.00  0.00    +0.000 NA
ENDBRANCH  28  29
ENDBRANCH  26  28
ENDBRANCH  23  24
ENDBRANCH  11  23
TORSDOF 6
ENDMDL
MODEL 3
REMARK VINA RESULT:      -8.3      1.238      1.427
REMARK  Name = 
REMARK  7 active torsions:
REMARK  status: ('A' for Active; 'I' for Inactive)
REMARK    1  A    between atoms: C_1  and  C_2
REMARK    2  A    between atoms: C_7  and  C_8
REMARK    3  A    between atoms: C_8  and  N_9
REMARK    4  A    between atoms: N_19  and  C_20
REMARK    5  A    between atoms: C_20  and  C_21
REMARK    6  A    between atoms: N_23  and  C_24
REMARK    7  A    between atoms: C_24  and  C_25
REMARK                            x       y       z     vdW  Elec       q    Type
REMARK                         _______ _______ _______ _____ _____    ______ ____
ROOT
ATOM      1  N   UNL     1       3.079   5.660  17.782  0.00  0.00    +0.000 N 
ATOM      2  C   UNL     1       3.002   4.281  18.002  0.00  0.00    +0.000 A 
ATOM      3  C   UNL     1       3.649   3.207  17.367  0.00  0.00    +0.000 A 
ATOM      4  C   UNL     1       3.422   1.912  17.851  0.00  0.00    +0.000 A 
ATOM      5  C   UNL     1       2.587   1.683  18.939  0.00  0.00    +0.000 A 
ATOM      6  C   UNL     1       1.971   2.754  19.588  0.00  0.00    +0.000 A 
ATOM      7  C   UNL     1       2.181   4.068  19.119  0.00  0.00    +0.000 A 
ATOM      8  C   UNL     1       1.816   5.342  19.603  0.00  0.00    +0.000 A 
ATOM      9  C   UNL     1       1.166   5.736  20.822  0.00  0.00    +0.000 A 
ATOM     10  N   UNL     1       1.152   6.980  21.195  0.00  0.00    +0.000 NA
ATOM     11  N   UNL     1       1.732   7.955  20.369  0.00  0.00    +0.000 N 
ATOM     12  C   UNL     1       2.234   7.707  19.086  0.00  0.00    +0.000 A 
ATOM     13  O   UNL     1       2.615   8.597  18.319  0.00  0.00    +0.000 OA
ATOM     14  C   UNL     1       2.326   6.303  18.756  0.00  0.00    +0.000 A 
ENDROOT
BRANCH   1  15
ATOM     15  C   UNL     1       4.084   6.314  16.898  0.00  0.00    +0.000 C 
BRANCH  15  22
ATOM     16  C   UNL     1       5.767   4.666  14.782  0.00  0.00    +0.000 C 
ATOM     17  C   UNL     1       6.266   5.084  16.133  0.00  0.00    +0.000 A 
ATOM     18  C   UNL     1       7.544   4.590  16.472  0.00  0.00    +0.000 A 
ATOM     19  C   UNL     1       7.970   4.598  17.782  0.00  0.00    +0.000 A 
ATOM     20  C   UNL     1       7.165   5.188  18.732  0.00  0.00    +0.000 A 
ATOM     21  C   UNL     1       6.045   5.890  18.373  0.00  0.00    +0.000 A 
ATOM     22  C   UNL     1       5.490   5.765  17.103  0.00  0.00    +0.000 A 
ENDBRANCH  15  22
ENDBRANCH   1  15
BRANCH  11  23
ATOM     23  C   UNL     1       1.641   9.326  20.849  0.00  0.00    +0.000 C 
BRANCH  23  24
ATOM     24  C   UNL     1       0.458  10.185  20.371  0.00  0.00    +0.000 C 
ATOM     25  O   UNL     1      -0.524  10.308  21.113  0.00  0.00    +0.000 OA
ATOM     26  N   UNL     1       0.478  10.781  19.124  0.00  0.00    +0.000 N 
ATOM     27  H   UNL     1       1.319  10.773  18.561  0.00  0.00    +0.000 HD
BRANCH  26  28
ATOM     28  C   UNL     1      -0.557  11.765  18.807  0.00  0.00    +0.000 C 
BRANCH  28  29
ATOM     29  C   UNL     1      -1.821  11.290  18.105  0.00  0.00    +0.000 A 
ATOM     30  C   UNL     1      -1.746  10.270  17.161  0.00  0.00    +0.000 A 
ATOM     31  C   UNL     1      -2.859   9.936  16.393  0.00  0.00    +0.000 A 
ATOM     32  C   UNL     1      -4.060  10.554  16.633  0.00  0.00    +0.000 A 
ATOM     33  C   UNL     1      -4.104  11.369  17.736  0.00  0.00    +0.000 A 
ATOM     34  N   UNL     1      -3.024  11.785  18.461  0.00  0.00    +0.000 NA
ENDBRANCH  28  29
ENDBRANCH  26  28
ENDBRANCH  23  24
ENDBRANCH  11  23
TORSDOF 6
ENDMDL
MODEL 4
REMARK VINA RESULT:      -8.3      1.031      1.424
REMARK  Name = 
REMARK  7 active torsions:
REMARK  status: ('A' for Active; 'I' for Inactive)
REMARK    1  A    between atoms: C_1  and  C_2
REMARK    2  A    between atoms: C_7  and  C_8
REMARK    3  A    between atoms: C_8  and  N_9
REMARK    4  A    between atoms: N_19  and  C_20
REMARK    5  A    between atoms: C_20  and  C_21
REMARK    6  A    between atoms: N_23  and  C_24
REMARK    7  A    between atoms: C_24  and  C_25
REMARK                            x       y       z     vdW  Elec       q    Type
REMARK                         _______ _______ _______ _____ _____    ______ ____
ROOT
ATOM      1  N   UNL     1       2.993   5.888  18.226  0.00  0.00    +0.000 N 
ATOM      2  C   UNL     1       2.987   4.763  19.058  0.00  0.00    +0.000 A 
ATOM      3  C   UNL     1       3.651   3.530  18.948  0.00  0.00    +0.000 A 
ATOM      4  C   UNL     1       3.503   2.599  19.986  0.00  0.00    +0.000 A 
ATOM      5  C   UNL     1       2.730   2.883  21.107  0.00  0.00    +0.000 A 
ATOM      6  C   UNL     1       2.098   4.122  21.228  0.00  0.00    +0.000 A 
ATOM      7  C   UNL     1       2.229   5.075  20.196  0.00  0.00    +0.000 A 
ATOM      8  C   UNL     1       1.831   6.422  20.063  0.00  0.00    +0.000 A 
ATOM      9  C   UNL     1       1.222   7.322  21.002  0.00  0.00    +0.000 A 
ATOM     10  N   UNL     1       1.170   8.597  20.763  0.00  0.00    +0.000 NA
ATOM     11  N   UNL     1       1.668   9.092  19.548  0.00  0.00    +0.000 N 
ATOM     12  C   UNL     1       2.121   8.290  18.494  0.00  0.00    +0.000 A 
ATOM     13  O   UNL     1       2.427   8.733  17.382  0.00  0.00    +0.000 OA
ATOM     14  C   UNL     1       2.259   6.893  18.840  0.00  0.00    +0.000 A 
ENDROOT
BRANCH   1  15
ATOM     15  C   UNL     1       3.927   6.078  17.080  0.00  0.00    +0.000 C 
BRANCH  15  22
ATOM     16  C   UNL     1       5.706   3.974  15.520  0.00  0.00    +0.000 C 
ATOM     17  C   UNL     1       6.175   4.795  16.684  0.00  0.00    +0.000 A 
ATOM     18  C   UNL     1       7.476   4.490  17.138  0.00  0.00    +0.000 A 
ATOM     19  C   UNL     1       7.895   4.904  18.384  0.00  0.00    +0.000 A 
ATOM     20  C   UNL     1       7.055   5.703  19.128  0.00  0.00    +0.000 A 
ATOM     21  C   UNL     1       5.902   6.208  18.593  0.00  0.00    +0.000 A 
ATOM     22  C   UNL     1       5.359   5.688  17.421  0.00  0.00    +0.000 A 
ENDBRANCH  15  22
ENDBRANCH   1  15
BRANCH  11  23
ATOM     23  C   UNL     1       1.540  10.528  19.349  0.00  0.00    +0.000 C 
BRANCH  23  24
ATOM     24  C   UNL     1       0.270  11.055  18.659  0.00  0.00    +0.000 C 
ATOM     25  O   UNL     1       0.201  12.258  18.380  0.00  0.00    +0.000 OA
ATOM     26  N   UNL     1      -0.787  10.206  18.386  0.00  0.00    +0.000 N 
ATOM     27  H   UNL     1      -0.692   9.207  18.513  0.00  0.00    +0.000 HD
BRANCH  26  28
ATOM     28  C   UNL     1      -1.869  10.696  17.533  0.00  0.00    +0.000 C 
BRANCH  28  29
ATOM     29  C   UNL     1      -3.164  11.153  18.190  0.00  0.00    +0.000 A 
ATOM     30  C   UNL     1      -4.376  10.603  17.783  0.00  0.00    +0.000 A 
ATOM     31  C   UNL     1      -5.579  11.122  18.255  0.00  0.00    +0.000 A 
ATOM     32  C   UNL     1      -5.566  12.122  19.195  0.00  0.00    +0.000 A 
ATOM     33  C   UNL     1      -4.337  12.436  19.716  0.00  0.00    +0.000 A 
ATOM     34  N   UNL     1      -3.133  12.013  19.227  0.00  0.00    +0.000 NA
ENDBRANCH  28  29
ENDBRANCH  26  28
ENDBRANCH  23  24
ENDBRANCH  11  23
TORSDOF 6
ENDMDL
MODEL 5
REMARK VINA RESULT:      -8.3      2.306      2.856
REMARK  Name = 
REMARK  7 active torsions:
REMARK  status: ('A' for Active; 'I' for Inactive)
REMARK    1  A    between atoms: C_1  and  C_2
REMARK    2  A    between atoms: C_7  and  C_8
REMARK    3  A    between atoms: C_8  and  N_9
REMARK    4  A    between atoms: N_19  and  C_20
REMARK    5  A    between atoms: C_20  and  C_21
REMARK    6  A    between atoms: N_23  and  C_24
REMARK    7  A    between atoms: C_24  and  C_25
REMARK                            x       y       z     vdW  Elec       q    Type
REMARK                         _______ _______ _______ _____ _____    ______ ____
ROOT
ATOM      1  N   UNL     1       3.063   5.929  18.211  0.00  0.00    +0.000 N 
ATOM      2  C   UNL     1       3.118   4.785  19.015  0.00  0.00    +0.000 A 
ATOM      3  C   UNL     1       3.848   3.593  18.875  0.00  0.00    +0.000 A 
ATOM      4  C   UNL     1       3.751   2.630  19.888  0.00  0.00    +0.000 A 
ATOM      5  C   UNL     1       2.964   2.842  21.015  0.00  0.00    +0.000 A 
ATOM      6  C   UNL     1       2.265   4.041  21.166  0.00  0.00    +0.000 A 
ATOM      7  C   UNL     1       2.344   5.026  20.159  0.00  0.00    +0.000 A 
ATOM      8  C   UNL     1       1.873   6.353  20.059  0.00  0.00    +0.000 A 
ATOM      9  C   UNL     1       1.216   7.194  21.021  0.00  0.00    +0.000 A 
ATOM     10  N   UNL     1       1.095   8.470  20.814  0.00  0.00    +0.000 NA
ATOM     11  N   UNL     1       1.565   9.022  19.612  0.00  0.00    +0.000 N 
ATOM     12  C   UNL     1       2.061   8.273  18.538  0.00  0.00    +0.000 A 
ATOM     13  O   UNL     1       2.343   8.760  17.439  0.00  0.00    +0.000 OA
ATOM     14  C   UNL     1       2.275   6.877  18.849  0.00  0.00    +0.000 A 
ENDROOT
BRANCH   1  15
ATOM     15  C   UNL     1       3.985   6.199  17.072  0.00  0.00    +0.000 C 
BRANCH  15  22
ATOM     16  C   UNL     1       5.612   4.036  15.429  0.00  0.00    +0.000 C 
ATOM     17  C   UNL     1       6.160   4.826  16.579  0.00  0.00    +0.000 A 
ATOM     18  C   UNL     1       7.464   4.463  16.980  0.00  0.00    +0.000 A 
ATOM     19  C   UNL     1       7.948   4.848  18.211  0.00  0.00    +0.000 A 
ATOM     20  C   UNL     1       7.172   5.675  18.994  0.00  0.00    +0.000 A 
ATOM     21  C   UNL     1       6.021   6.233  18.508  0.00  0.00    +0.000 A 
ATOM     22  C   UNL     1       5.412   5.746  17.354  0.00  0.00    +0.000 A 
ENDBRANCH  15  22
ENDBRANCH   1  15
BRANCH  11  23
ATOM     23  C   UNL     1       1.359  10.454  19.449  0.00  0.00    +0.000 C 
BRANCH  23  24
ATOM     24  C   UNL     1       0.894  11.263  20.671  0.00  0.00    +0.000 C 
ATOM     25  O   UNL     1       1.568  12.236  21.031  0.00  0.00    +0.000 OA
ATOM     26  N   UNL     1      -0.238  10.891  21.373  0.00  0.00    +0.000 N 
ATOM     27  H   UNL     1      -0.849  10.166  21.021  0.00  0.00    +0.000 HD
BRANCH  26  28
ATOM     28  C   UNL     1      -0.766  11.813  22.380  0.00  0.00    +0.000 C 
BRANCH  28  29
ATOM     29  C   UNL     1      -2.207  12.283  22.251  0.00  0.00    +0.000 A 
ATOM     30  C   UNL     1      -2.953  12.544  23.397  0.00  0.00    +0.000 A 
ATOM     31  C   UNL     1      -4.316  12.816  23.305  0.00  0.00    +0.000 A 
ATOM     32  C   UNL     1      -4.907  12.916  22.070  0.00  0.00    +0.000 A 
ATOM     33  C   UNL     1      -4.054  12.883  20.995  0.00  0.00    +0.000 A 
ATOM     34  N   UNL     1      -2.734  12.539  21.037  0.00  0.00    +0.000 NA
ENDBRANCH  28  29
ENDBRANCH  26  28
ENDBRANCH  23  24
ENDBRANCH  11  23
TORSDOF 6
ENDMDL
MODEL 6
REMARK VINA RESULT:      -8.3      1.942      2.800
REMARK  Name = 
REMARK  7 active torsions:
REMARK  status: ('A' for Active; 'I' for Inactive)
REMARK    1  A    between atoms: C_1  and  C_2
REMARK    2  A    between atoms: C_7  and  C_8
REMARK    3  A    between atoms: C_8  and  N_9
REMARK    4  A    between atoms: N_19  and  C_20
REMARK    5  A    between atoms: C_20  and  C_21
REMARK    6  A    between atoms: N_23  and  C_24
REMARK    7  A    between atoms: C_24  and  C_25
REMARK                            x       y       z     vdW  Elec       q    Type
REMARK                         _______ _______ _______ _____ _____    ______ ____
ROOT
ATOM      1  N   UNL     1       3.038   5.702  18.240  0.00  0.00    +0.000 N 
ATOM      2  C   UNL     1       3.047   4.621  19.128  0.00  0.00    +0.000 A 
ATOM      3  C   UNL     1       3.715   3.386  19.073  0.00  0.00    +0.000 A 
ATOM      4  C   UNL     1       3.583   2.509  20.157  0.00  0.00    +0.000 A 
ATOM      5  C   UNL     1       2.822   2.845  21.271  0.00  0.00    +0.000 A 
ATOM      6  C   UNL     1       2.185   4.086  21.337  0.00  0.00    +0.000 A 
ATOM      7  C   UNL     1       2.300   4.986  20.257  0.00  0.00    +0.000 A 
ATOM      8  C   UNL     1       1.894   6.323  20.061  0.00  0.00    +0.000 A 
ATOM      9  C   UNL     1       1.291   7.266  20.962  0.00  0.00    +0.000 A 
ATOM     10  N   UNL     1       1.230   8.528  20.659  0.00  0.00    +0.000 NA
ATOM     11  N   UNL     1       1.712   8.963  19.415  0.00  0.00    +0.000 N 
ATOM     12  C   UNL     1       2.157   8.111  18.397  0.00  0.00    +0.000 A 
ATOM     13  O   UNL     1       2.449   8.499  17.262  0.00  0.00    +0.000 OA
ATOM     14  C   UNL     1       2.306   6.734  18.812  0.00  0.00    +0.000 A 
ENDROOT
BRANCH   1  15
ATOM     15  C   UNL     1       3.959   5.839  17.077  0.00  0.00    +0.000 C 
BRANCH  15  22
ATOM     16  C   UNL     1       5.878   3.817  15.576  0.00  0.00    +0.000 C 
ATOM     17  C   UNL     1       6.284   4.688  16.727  0.00  0.00    +0.000 A 
ATOM     18  C   UNL     1       7.597   4.471  17.199  0.00  0.00    +0.000 A 
ATOM     19  C   UNL     1       7.977   4.934  18.439  0.00  0.00    +0.000 A 
ATOM     20  C   UNL     1       7.082   5.695  19.160  0.00  0.00    +0.000 A 
ATOM     21  C   UNL     1       5.906   6.119  18.604  0.00  0.00    +0.000 A 
ATOM     22  C   UNL     1       5.408   5.544  17.438  0.00  0.00    +0.000 A 
ENDBRANCH  15  22
ENDBRANCH   1  15
BRANCH  11  23
ATOM     23  C   UNL     1       1.575  10.387  19.146  0.00  0.00    +0.000 C 
BRANCH  23  24
ATOM     24  C   UNL     1       0.157  10.964  18.997  0.00  0.00    +0.000 C 
ATOM     25  O   UNL     1      -0.691  10.305  18.385  0.00  0.00    +0.000 OA
ATOM     26  N   UNL     1      -0.153  12.210  19.510  0.00  0.00    +0.000 N 
ATOM     27  H   UNL     1       0.503  12.703  20.102  0.00  0.00    +0.000 HD
BRANCH  26  28
ATOM     28  C   UNL     1      -1.558  12.617  19.545  0.00  0.00    +0.000 C 
BRANCH  28  29
ATOM     29  C   UNL     1      -2.309  12.528  20.865  0.00  0.00    +0.000 A 
ATOM     30  C   UNL     1      -3.634  12.950  20.936  0.00  0.00    +0.000 A 
ATOM     31  C   UNL     1      -4.284  13.029  22.166  0.00  0.00    +0.000 A 
ATOM     32  C   UNL     1      -3.643  12.602  23.302  0.00  0.00    +0.000 A 
ATOM     33  C   UNL     1      -2.435  11.980  23.109  0.00  0.00    +0.000 A 
ATOM     34  N   UNL     1      -1.730  11.956  21.940  0.00  0.00    +0.000 NA
ENDBRANCH  28  29
ENDBRANCH  26  28
ENDBRANCH  23  24
ENDBRANCH  11  23
TORSDOF 6
ENDMDL
MODEL 7
REMARK VINA RESULT:      -8.1      2.399      8.549
REMARK  Name = 
REMARK  7 active torsions:
REMARK  status: ('A' for Active; 'I' for Inactive)
REMARK    1  A    between atoms: C_1  and  C_2
REMARK    2  A    between atoms: C_7  and  C_8
REMARK    3  A    between atoms: C_8  and  N_9
REMARK    4  A    between atoms: N_19  and  C_20
REMARK    5  A    between atoms: C_20  and  C_21
REMARK    6  A    between atoms: N_23  and  C_24
REMARK    7  A    between atoms: C_24  and  C_25
REMARK                            x       y       z     vdW  Elec       q    Type
REMARK                         _______ _______ _______ _____ _____    ______ ____
ROOT
ATOM      1  N   UNL     1       0.365  10.906  19.738  0.00  0.00    +0.000 N 
ATOM      2  C   UNL     1      -0.203  10.893  21.017  0.00  0.00    +0.000 A 
ATOM      3  C   UNL     1      -1.172  11.723  21.605  0.00  0.00    +0.000 A 
ATOM      4  C   UNL     1      -1.603  11.426  22.905  0.00  0.00    +0.000 A 
ATOM      5  C   UNL     1      -1.100  10.332  23.601  0.00  0.00    +0.000 A 
ATOM      6  C   UNL     1      -0.161   9.490  23.002  0.00  0.00    +0.000 A 
ATOM      7  C   UNL     1       0.291   9.769  21.695  0.00  0.00    +0.000 A 
ATOM      8  C   UNL     1       1.117   9.076  20.785  0.00  0.00    +0.000 A 
ATOM      9  C   UNL     1       1.714   7.771  20.860  0.00  0.00    +0.000 A 
ATOM     10  N   UNL     1       2.229   7.215  19.806  0.00  0.00    +0.000 NA
ATOM     11  N   UNL     1       2.248   7.921  18.593  0.00  0.00    +0.000 N 
ATOM     12  C   UNL     1       1.855   9.256  18.449  0.00  0.00    +0.000 A 
ATOM     13  O   UNL     1       2.005   9.904  17.408  0.00  0.00    +0.000 OA
ATOM     14  C   UNL     1       1.194   9.800  19.614  0.00  0.00    +0.000 A 
ENDROOT
BRANCH   1  15
ATOM     15  C   UNL     1      -0.128  11.745  18.610  0.00  0.00    +0.000 C 
BRANCH  15  22
ATOM     16  C   UNL     1      -2.907  12.954  19.529  0.00  0.00    +0.000 C 
ATOM     17  C   UNL     1      -2.739  11.898  18.478  0.00  0.00    +0.000 A 
ATOM     18  C   UNL     1      -3.946  11.367  17.973  0.00  0.00    +0.000 A 
ATOM     19  C   UNL     1      -3.948  10.177  17.280  0.00  0.00    +0.000 A 
ATOM     20  C   UNL     1      -2.740   9.572  17.007  0.00  0.00    +0.000 A 
ATOM     21  C   UNL     1      -1.556  10.205  17.272  0.00  0.00    +0.000 A 
ATOM     22  C   UNL     1      -1.501  11.312  18.114  0.00  0.00    +0.000 A 
ENDBRANCH  15  22
ENDBRANCH   1  15
BRANCH  11  23
ATOM     23  C   UNL     1       2.873   7.235  17.471  0.00  0.00    +0.000 C 
BRANCH  23  24
ATOM     24  C   UNL     1       3.098   5.718  17.582  0.00  0.00    +0.000 C 
ATOM     25  O   UNL     1       4.247   5.300  17.767  0.00  0.00    +0.000 OA
ATOM     26  N   UNL     1       2.041   4.837  17.445  0.00  0.00    +0.000 N 
ATOM     27  H   UNL     1       1.089   5.176  17.402  0.00  0.00    +0.000 HD
BRANCH  26  28
ATOM     28  C   UNL     1       2.261   3.430  17.781  0.00  0.00    +0.000 C 
BRANCH  28  29
ATOM     29  C   UNL     1       2.284   3.027  19.248  0.00  0.00    +0.000 A 
ATOM     30  C   UNL     1       1.106   3.051  19.989  0.00  0.00    +0.000 A 
ATOM     31  C   UNL     1       1.135   2.844  21.366  0.00  0.00    +0.000 A 
ATOM     32  C   UNL     1       2.320   2.525  21.981  0.00  0.00    +0.000 A 
ATOM     33  C   UNL     1       3.382   2.287  21.145  0.00  0.00    +0.000 A 
ATOM     34  N   UNL     1       3.417   2.557  19.806  0.00  0.00    +0.000 NA
ENDBRANCH  28  29
ENDBRANCH  26  28
ENDBRANCH  23  24
ENDBRANCH  11  23
TORSDOF 6
ENDMDL
MODEL 8
REMARK VINA RESULT:      -8.1      1.495      1.969
REMARK  Name = 
REMARK  7 active torsions:
REMARK  status: ('A' for Active; 'I' for Inactive)
REMARK    1  A    between atoms: C_1  and  C_2
REMARK    2  A    between atoms: C_7  and  C_8
REMARK    3  A    between atoms: C_8  and  N_9
REMARK    4  A    between atoms: N_19  and  C_20
REMARK    5  A    between atoms: C_20  and  C_21
REMARK    6  A    between atoms: N_23  and  C_24
REMARK    7  A    between atoms: C_24  and  C_25
REMARK                            x       y       z     vdW  Elec       q    Type
REMARK                         _______ _______ _______ _____ _____    ______ ____
ROOT
ATOM      1  N   UNL     1       3.006   5.868  18.214  0.00  0.00    +0.000 N 
ATOM      2  C   UNL     1       2.995   4.764  19.073  0.00  0.00    +0.000 A 
ATOM      3  C   UNL     1       3.643   3.520  18.986  0.00  0.00    +0.000 A 
ATOM      4  C   UNL     1       3.494   2.617  20.046  0.00  0.00    +0.000 A 
ATOM      5  C   UNL     1       2.736   2.936  21.168  0.00  0.00    +0.000 A 
ATOM      6  C   UNL     1       2.120   4.185  21.266  0.00  0.00    +0.000 A 
ATOM      7  C   UNL     1       2.253   5.112  20.210  0.00  0.00    +0.000 A 
ATOM      8  C   UNL     1       1.870   6.461  20.049  0.00  0.00    +0.000 A 
ATOM      9  C   UNL     1       1.281   7.390  20.973  0.00  0.00    +0.000 A 
ATOM     10  N   UNL     1       1.242   8.660  20.704  0.00  0.00    +0.000 NA
ATOM     11  N   UNL     1       1.734   9.119  19.472  0.00  0.00    +0.000 N 
ATOM     12  C   UNL     1       2.166   8.287  18.433  0.00  0.00    +0.000 A 
ATOM     13  O   UNL     1       2.467   8.700  17.309  0.00  0.00    +0.000 OA
ATOM     14  C   UNL     1       2.291   6.897  18.811  0.00  0.00    +0.000 A 
ENDROOT
BRANCH   1  15
ATOM     15  C   UNL     1       3.931   6.020  17.055  0.00  0.00    +0.000 C 
BRANCH  15  22
ATOM     16  C   UNL     1       5.734   3.903  15.540  0.00  0.00    +0.000 C 
ATOM     17  C   UNL     1       6.195   4.757  16.683  0.00  0.00    +0.000 A 
ATOM     18  C   UNL     1       7.501   4.480  17.141  0.00  0.00    +0.000 A 
ATOM     19  C   UNL     1       7.917   4.928  18.375  0.00  0.00    +0.000 A 
ATOM     20  C   UNL     1       7.068   5.734  19.103  0.00  0.00    +0.000 A 
ATOM     21  C   UNL     1       5.907   6.212  18.559  0.00  0.00    +0.000 A 
ATOM     22  C   UNL     1       5.369   5.657  17.401  0.00  0.00    +0.000 A 
ENDBRANCH  15  22
ENDBRANCH   1  15
BRANCH  11  23
ATOM     23  C   UNL     1       1.622  10.552  19.240  0.00  0.00    +0.000 C 
BRANCH  23  24
ATOM     24  C   UNL     1       0.658  11.357  20.128  0.00  0.00    +0.000 C 
ATOM     25  O   UNL     1       1.129  12.062  21.029  0.00  0.00    +0.000 OA
ATOM     26  N   UNL     1      -0.710  11.269  19.945  0.00  0.00    +0.000 N 
ATOM     27  H   UNL     1      -1.093  10.781  19.145  0.00  0.00    +0.000 HD
BRANCH  26  28
ATOM     28  C   UNL     1      -1.569  12.217  20.654  0.00  0.00    +0.000 C 
BRANCH  28  29
ATOM     29  C   UNL     1      -3.010  12.379  20.193  0.00  0.00    +0.000 A 
ATOM     30  C   UNL     1      -3.898  13.132  20.955  0.00  0.00    +0.000 A 
ATOM     31  C   UNL     1      -5.254  13.157  20.637  0.00  0.00    +0.000 A 
ATOM     32  C   UNL     1      -5.701  12.510  19.512  0.00  0.00    +0.000 A 
ATOM     33  C   UNL     1      -4.728  11.999  18.691  0.00  0.00    +0.000 A 
ATOM     34  N   UNL     1      -3.403  11.881  19.004  0.00  0.00    +0.000 NA
ENDBRANCH  28  29
ENDBRANCH  26  28
ENDBRANCH  23  24
ENDBRANCH  11  23
TORSDOF 6
ENDMDL
MODEL 9
REMARK VINA RESULT:      -8.0      1.777      4.012
REMARK  Name = 
REMARK  7 active torsions:
REMARK  status: ('A' for Active; 'I' for Inactive)
REMARK    1  A    between atoms: C_1  and  C_2
REMARK    2  A    between atoms: C_7  and  C_8
REMARK    3  A    between atoms: C_8  and  N_9
REMARK    4  A    between atoms: N_19  and  C_20
REMARK    5  A    between atoms: C_20  and  C_21
REMARK    6  A    between atoms: N_23  and  C_24
REMARK    7  A    between atoms: C_24  and  C_25
REMARK                            x       y       z     vdW  Elec       q    Type
REMARK                         _______ _______ _______ _____ _____    ______ ____
ROOT
ATOM      1  N   UNL     1       3.284   6.231  19.519  0.00  0.00    +0.000 N 
ATOM      2  C   UNL     1       4.047   5.939  18.383  0.00  0.00    +0.000 A 
ATOM      3  C   UNL     1       4.806   4.805  18.047  0.00  0.00    +0.000 A 
ATOM      4  C   UNL     1       5.423   4.766  16.790  0.00  0.00    +0.000 A 
ATOM      5  C   UNL     1       5.287   5.813  15.884  0.00  0.00    +0.000 A 
ATOM      6  C   UNL     1       4.507   6.924  16.209  0.00  0.00    +0.000 A 
ATOM      7  C   UNL     1       3.877   6.989  17.469  0.00  0.00    +0.000 A 
ATOM      8  C   UNL     1       2.952   7.885  18.048  0.00  0.00    +0.000 A 
ATOM      9  C   UNL     1       2.258   9.012  17.490  0.00  0.00    +0.000 A 
ATOM     10  N   UNL     1       1.256   9.551  18.116  0.00  0.00    +0.000 NA
ATOM     11  N   UNL     1       0.883   9.057  19.376  0.00  0.00    +0.000 N 
ATOM     12  C   UNL     1       1.596   8.084  20.086  0.00  0.00    +0.000 A 
ATOM     13  O   UNL     1       1.334   7.759  21.248  0.00  0.00    +0.000 OA
ATOM     14  C   UNL     1       2.635   7.441  19.313  0.00  0.00    +0.000 A 
ENDROOT
BRANCH   1  15
ATOM     15  C   UNL     1       2.947   5.241  20.580  0.00  0.00    +0.000 C 
BRANCH  15  22
ATOM     16  C   UNL     1       4.282   2.374  20.419  0.00  0.00    +0.000 C 
ATOM     17  C   UNL     1       2.874   2.686  20.009  0.00  0.00    +0.000 A 
ATOM     18  C   UNL     1       2.176   1.610  19.420  0.00  0.00    +0.000 A 
ATOM     19  C   UNL     1       1.028   1.838  18.694  0.00  0.00    +0.000 A 
ATOM     20  C   UNL     1       0.526   3.120  18.642  0.00  0.00    +0.000 A 
ATOM     21  C   UNL     1       1.054   4.118  19.415  0.00  0.00    +0.000 A 
ATOM     22  C   UNL     1       2.299   3.981  20.022  0.00  0.00    +0.000 A 
ENDBRANCH  15  22
ENDBRANCH   1  15
BRANCH  11  23
ATOM     23  C   UNL     1      -0.229   9.740  20.020  0.00  0.00    +0.000 C 
BRANCH  23  24
ATOM     24  C   UNL     1      -1.198  10.543  19.135  0.00  0.00    +0.000 C 
ATOM     25  O   UNL     1      -1.206  11.776  19.230  0.00  0.00    +0.000 OA
ATOM     26  N   UNL     1      -2.066   9.896  18.275  0.00  0.00    +0.000 N 
ATOM     27  H   UNL     1      -1.989   8.900  18.116  0.00  0.00    +0.000 HD
BRANCH  26  28
ATOM     28  C   UNL     1      -2.803  10.698  17.298  0.00  0.00    +0.000 C 
BRANCH  28  29
ATOM     29  C   UNL     1      -4.272  10.995  17.559  0.00  0.00    +0.000 A 
ATOM     30  C   UNL     1      -4.899  12.033  16.875  0.00  0.00    +0.000 A 
ATOM     31  C   UNL     1      -6.192  12.423  17.217  0.00  0.00    +0.000 A 
ATOM     32  C   UNL     1      -6.883  11.721  18.172  0.00  0.00    +0.000 A 
ATOM     33  C   UNL     1      -6.283  10.571  18.620  0.00  0.00    +0.000 A 
ATOM     34  N   UNL     1      -4.992  10.199  18.374  0.00  0.00    +0.000 NA
ENDBRANCH  28  29
ENDBRANCH  26  28
ENDBRANCH  23  24
ENDBRANCH  11  23
TORSDOF 6
ENDMDL
