MODEL 1
REMARK VINA RESULT:      -7.1      0.000      0.000
REMARK  Name = 
REMARK  13 active torsions:
REMARK  status: ('A' for Active; 'I' for Inactive)
REMARK    1  A    between atoms: C_1  and  C_2
REMARK    2  A    between atoms: C_2  and  C_3
REMARK    3  A    between atoms: C_3  and  C_4
REMARK    4  A    between atoms: C_3  and  C_8
REMARK    5  A    between atoms: N_6  and  O_7
REMARK    6  A    between atoms: C_8  and  C_9
REMARK    7  A    between atoms: C_8  and  C_11
REMARK    8  A    between atoms: C_9  and  O_10
REMARK    9  A    between atoms: C_11  and  C_12
REMARK   10  A    between atoms: N_14  and  C_15
REMARK   11  A    between atoms: C_15  and  C_16
REMARK   12  A    between atoms: C_19  and  C_20
REMARK   13  A    between atoms: N_24  and  C_25
REMARK                            x       y       z     vdW  Elec       q    Type
REMARK                         _______ _______ _______ _____ _____    ______ ____
ROOT
ATOM      1  C   UNL     1       4.005   5.150  19.727  0.00  0.00    +0.000 C 
ENDROOT
BRANCH   1   2
ATOM      2  C   UNL     1       4.724   5.607  18.488  0.00  0.00    +0.000 A 
ATOM      3  C   UNL     1       5.794   5.067  17.823  0.00  0.00    +0.000 A 
ATOM      4  N   UNL     1       6.118   5.883  16.770  0.00  0.00    +0.000 N 
ATOM      5  C   UNL     1       5.222   6.871  16.687  0.00  0.00    +0.000 A 
ATOM      6  N   UNL     1       4.355   6.722  17.707  0.00  0.00    +0.000 N 
ATOM      7  C   UNL     1       3.189   7.579  17.900  0.00  0.00    +0.000 C 
BRANCH   4   8
ATOM      8  C   UNL     1       7.228   5.631  15.854  0.00  0.00    +0.000 C 
BRANCH   8   9
ATOM      9  C   UNL     1       6.736   4.896  14.642  0.00  0.00    +0.000 A 
ATOM     10  C   UNL     1       7.487   4.852  13.456  0.00  0.00    +0.000 A 
ATOM     11  C   UNL     1       7.028   4.124  12.355  0.00  0.00    +0.000 A 
ATOM     12  C   UNL     1       5.819   3.424  12.426  0.00  0.00    +0.000 A 
ATOM     13  C   UNL     1       5.314   2.620  11.264  0.00  0.00    +0.000 C 
ATOM     14  C   UNL     1       5.077   3.459  13.613  0.00  0.00    +0.000 A 
ATOM     15  C   UNL     1       5.531   4.186  14.710  0.00  0.00    +0.000 A 
ENDBRANCH   8   9
ENDBRANCH   4   8
ENDBRANCH   1   2
BRANCH   1  16
ATOM     16  C   UNL     1       2.653   4.388  19.493  0.00  0.00    +0.000 C 
BRANCH  16  17
ATOM     17  C   UNL     1       2.808   2.831  19.426  0.00  0.00    +0.000 C 
BRANCH  17  18
ATOM     18  C   UNL     1       3.572   2.343  20.655  0.00  0.00    +0.000 C 
ATOM     19  O   UNL     1       3.094   2.454  21.786  0.00  0.00    +0.000 OA
ATOM     20  N   UNL     1       4.836   1.878  20.426  0.00  0.00    +0.000 N 
ATOM     21  H   UNL     1       5.309   1.844  19.530  0.00  0.00    +0.000 HD
BRANCH  20  22
ATOM     22  O   UNL     1       5.593   1.488  21.552  0.00  0.00    +0.000 OA
ATOM     23  H   UNL     1       6.310   2.156  21.584  0.00  0.00    +0.000 HD
ENDBRANCH  20  22
ENDBRANCH  17  18
BRANCH  17  25
ATOM     24  C   UNL     1       2.842   2.913  16.882  0.00  0.00    +0.000 C 
ATOM     25  C   UNL     1       3.379   2.219  18.135  0.00  0.00    +0.000 C 
ENDBRANCH  17  25
ENDBRANCH  16  17
BRANCH  16  26
ATOM     26  C   UNL     1       1.630   4.895  20.527  0.00  0.00    +0.000 C 
BRANCH  26  27
ATOM     27  O   UNL     1       0.490   4.069  20.629  0.00  0.00    +0.000 OA
ATOM     28  H   UNL     1       0.747   3.142  20.489  0.00  0.00    +0.000 HD
ENDBRANCH  26  27
ENDBRANCH  16  26
ENDBRANCH   1  16
TORSDOF 10
ENDMDL
MODEL 2
REMARK VINA RESULT:      -6.9      3.159      6.923
REMARK  Name = 
REMARK  13 active torsions:
REMARK  status: ('A' for Active; 'I' for Inactive)
REMARK    1  A    between atoms: C_1  and  C_2
REMARK    2  A    between atoms: C_2  and  C_3
REMARK    3  A    between atoms: C_3  and  C_4
REMARK    4  A    between atoms: C_3  and  C_8
REMARK    5  A    between atoms: N_6  and  O_7
REMARK    6  A    between atoms: C_8  and  C_9
REMARK    7  A    between atoms: C_8  and  C_11
REMARK    8  A    between atoms: C_9  and  O_10
REMARK    9  A    between atoms: C_11  and  C_12
REMARK   10  A    between atoms: N_14  and  C_15
REMARK   11  A    between atoms: C_15  and  C_16
REMARK   12  A    between atoms: C_19  and  C_20
REMARK   13  A    between atoms: N_24  and  C_25
REMARK                            x       y       z     vdW  Elec       q    Type
REMARK                         _______ _______ _______ _____ _____    ______ ____
ROOT
ATOM      1  C   UNL     1       5.277   3.950  18.047  0.00  0.00    +0.000 C 
ENDROOT
BRANCH   1   2
ATOM      2  C   UNL     1       3.992   4.393  18.689  0.00  0.00    +0.000 A 
ATOM      3  C   UNL     1       3.741   5.389  19.597  0.00  0.00    +0.000 A 
ATOM      4  N   UNL     1       2.408   5.368  19.920  0.00  0.00    +0.000 N 
ATOM      5  C   UNL     1       1.788   4.454  19.169  0.00  0.00    +0.000 A 
ATOM      6  N   UNL     1       2.720   3.857  18.401  0.00  0.00    +0.000 N 
ATOM      7  C   UNL     1       2.402   2.849  17.394  0.00  0.00    +0.000 C 
BRANCH   4   8
ATOM      8  C   UNL     1       1.788   6.277  20.882  0.00  0.00    +0.000 C 
BRANCH   8   9
ATOM      9  C   UNL     1       1.613   7.634  20.266  0.00  0.00    +0.000 A 
ATOM     10  C   UNL     1       1.997   7.893  18.940  0.00  0.00    +0.000 A 
ATOM     11  C   UNL     1       1.783   9.153  18.375  0.00  0.00    +0.000 A 
ATOM     12  C   UNL     1       1.178  10.168  19.123  0.00  0.00    +0.000 A 
ATOM     13  C   UNL     1       0.922  11.524  18.533  0.00  0.00    +0.000 C 
ATOM     14  C   UNL     1       0.786   9.906  20.442  0.00  0.00    +0.000 A 
ATOM     15  C   UNL     1       1.000   8.652  21.007  0.00  0.00    +0.000 A 
ENDBRANCH   8   9
ENDBRANCH   4   8
ENDBRANCH   1   2
BRANCH   1  16
ATOM     16  C   UNL     1       5.770   4.814  16.834  0.00  0.00    +0.000 C 
BRANCH  16  17
ATOM     17  C   UNL     1       6.939   5.793  17.189  0.00  0.00    +0.000 C 
BRANCH  17  18
ATOM     18  C   UNL     1       7.798   5.181  18.294  0.00  0.00    +0.000 C 
ATOM     19  O   UNL     1       8.503   4.193  18.077  0.00  0.00    +0.000 OA
ATOM     20  N   UNL     1       7.652   5.731  19.536  0.00  0.00    +0.000 N 
ATOM     21  H   UNL     1       7.024   6.486  19.787  0.00  0.00    +0.000 HD
BRANCH  20  22
ATOM     22  O   UNL     1       8.378   5.138  20.592  0.00  0.00    +0.000 OA
ATOM     23  H   UNL     1       8.236   4.178  20.452  0.00  0.00    +0.000 HD
ENDBRANCH  20  22
ENDBRANCH  17  18
BRANCH  17  25
ATOM     24  C   UNL     1       7.820   8.156  17.541  0.00  0.00    +0.000 C 
ATOM     25  C   UNL     1       6.583   7.256  17.505  0.00  0.00    +0.000 C 
ENDBRANCH  17  25
ENDBRANCH  16  17
BRANCH  16  26
ATOM     26  C   UNL     1       6.052   3.866  15.652  0.00  0.00    +0.000 C 
BRANCH  26  27
ATOM     27  O   UNL     1       5.808   4.461  14.396  0.00  0.00    +0.000 OA
ATOM     28  H   UNL     1       5.823   5.429  14.486  0.00  0.00    +0.000 HD
ENDBRANCH  26  27
ENDBRANCH  16  26
ENDBRANCH   1  16
TORSDOF 10
ENDMDL
MODEL 3
REMARK VINA RESULT:      -6.9      3.744      7.502
REMARK  Name = 
REMARK  13 active torsions:
REMARK  status: ('A' for Active; 'I' for Inactive)
REMARK    1  A    between atoms: C_1  and  C_2
REMARK    2  A    between atoms: C_2  and  C_3
REMARK    3  A    between atoms: C_3  and  C_4
REMARK    4  A    between atoms: C_3  and  C_8
REMARK    5  A    between atoms: N_6  and  O_7
REMARK    6  A    between atoms: C_8  and  C_9
REMARK    7  A    between atoms: C_8  and  C_11
REMARK    8  A    between atoms: C_9  and  O_10
REMARK    9  A    between atoms: C_11  and  C_12
REMARK   10  A    between atoms: N_14  and  C_15
REMARK   11  A    between atoms: C_15  and  C_16
REMARK   12  A    between atoms: C_19  and  C_20
REMARK   13  A    between atoms: N_24  and  C_25
REMARK                            x       y       z     vdW  Elec       q    Type
REMARK                         _______ _______ _______ _____ _____    ______ ____
ROOT
ATOM      1  C   UNL     1       3.596   4.979  17.441  0.00  0.00    +0.000 C 
ENDROOT
BRANCH   1   2
ATOM      2  C   UNL     1       2.855   5.570  18.608  0.00  0.00    +0.000 A 
ATOM      3  C   UNL     1       2.806   6.857  19.079  0.00  0.00    +0.000 A 
ATOM      4  N   UNL     1       2.028   6.885  20.207  0.00  0.00    +0.000 N 
ATOM      5  C   UNL     1       1.500   5.675  20.409  0.00  0.00    +0.000 A 
ATOM      6  N   UNL     1       1.972   4.859  19.446  0.00  0.00    +0.000 N 
ATOM      7  C   UNL     1       1.554   3.468  19.300  0.00  0.00    +0.000 C 
BRANCH   4   8
ATOM      8  C   UNL     1       1.774   8.092  20.992  0.00  0.00    +0.000 C 
BRANCH   8   9
ATOM      9  C   UNL     1       0.873   9.019  20.230  0.00  0.00    +0.000 A 
ATOM     10  C   UNL     1      -0.167   9.717  20.865  0.00  0.00    +0.000 A 
ATOM     11  C   UNL     1      -0.964  10.609  20.143  0.00  0.00    +0.000 A 
ATOM     12  C   UNL     1      -0.729  10.821  18.781  0.00  0.00    +0.000 A 
ATOM     13  C   UNL     1      -1.560  11.787  17.987  0.00  0.00    +0.000 C 
ATOM     14  C   UNL     1       0.316  10.133  18.151  0.00  0.00    +0.000 A 
ATOM     15  C   UNL     1       1.109   9.243  18.868  0.00  0.00    +0.000 A 
ENDBRANCH   8   9
ENDBRANCH   4   8
ENDBRANCH   1   2
BRANCH   1  16
ATOM     16  C   UNL     1       5.106   4.634  17.692  0.00  0.00    +0.000 C 
BRANCH  16  17
ATOM     17  C   UNL     1       6.098   5.735  17.187  0.00  0.00    +0.000 C 
BRANCH  17  18
ATOM     18  C   UNL     1       6.917   5.187  16.021  0.00  0.00    +0.000 C 
ATOM     19  O   UNL     1       7.878   4.438  16.216  0.00  0.00    +0.000 OA
ATOM     20  N   UNL     1       6.580   5.655  14.782  0.00  0.00    +0.000 N 
ATOM     21  H   UNL     1       5.857   6.335  14.576  0.00  0.00    +0.000 HD
BRANCH  20  22
ATOM     22  O   UNL     1       7.368   5.222  13.694  0.00  0.00    +0.000 OA
ATOM     23  H   UNL     1       8.016   4.617  14.112  0.00  0.00    +0.000 HD
ENDBRANCH  20  22
ENDBRANCH  17  18
BRANCH  17  25
ATOM     24  C   UNL     1       7.695   7.661  17.657  0.00  0.00    +0.000 C 
ATOM     25  C   UNL     1       6.998   6.424  18.227  0.00  0.00    +0.000 C 
ENDBRANCH  17  25
ENDBRANCH  16  17
BRANCH  16  26
ATOM     26  C   UNL     1       5.270   4.241  19.172  0.00  0.00    +0.000 C 
BRANCH  26  27
ATOM     27  O   UNL     1       5.248   2.845  19.379  0.00  0.00    +0.000 OA
ATOM     28  H   UNL     1       5.780   2.406  18.694  0.00  0.00    +0.000 HD
ENDBRANCH  26  27
ENDBRANCH  16  26
ENDBRANCH   1  16
TORSDOF 10
ENDMDL
MODEL 4
REMARK VINA RESULT:      -6.8      3.512      7.311
REMARK  Name = 
REMARK  13 active torsions:
REMARK  status: ('A' for Active; 'I' for Inactive)
REMARK    1  A    between atoms: C_1  and  C_2
REMARK    2  A    between atoms: C_2  and  C_3
REMARK    3  A    between atoms: C_3  and  C_4
REMARK    4  A    between atoms: C_3  and  C_8
REMARK    5  A    between atoms: N_6  and  O_7
REMARK    6  A    between atoms: C_8  and  C_9
REMARK    7  A    between atoms: C_8  and  C_11
REMARK    8  A    between atoms: C_9  and  O_10
REMARK    9  A    between atoms: C_11  and  C_12
REMARK   10  A    between atoms: N_14  and  C_15
REMARK   11  A    between atoms: C_15  and  C_16
REMARK   12  A    between atoms: C_19  and  C_20
REMARK   13  A    between atoms: N_24  and  C_25
REMARK                            x       y       z     vdW  Elec       q    Type
REMARK                         _______ _______ _______ _____ _____    ______ ____
ROOT
ATOM      1  C   UNL     1       3.626   5.204  17.179  0.00  0.00    +0.000 C 
ENDROOT
BRANCH   1   2
ATOM      2  C   UNL     1       2.875   5.618  18.413  0.00  0.00    +0.000 A 
ATOM      3  C   UNL     1       2.799   6.830  19.051  0.00  0.00    +0.000 A 
ATOM      4  N   UNL     1       2.023   6.691  20.173  0.00  0.00    +0.000 N 
ATOM      5  C   UNL     1       1.522   5.453  20.211  0.00  0.00    +0.000 A 
ATOM      6  N   UNL     1       2.010   4.783  19.149  0.00  0.00    +0.000 N 
ATOM      7  C   UNL     1       1.623   3.415  18.819  0.00  0.00    +0.000 C 
BRANCH   4   8
ATOM      8  C   UNL     1       1.744   7.777  21.111  0.00  0.00    +0.000 C 
BRANCH   8   9
ATOM      9  C   UNL     1       0.961   8.858  20.426  0.00  0.00    +0.000 A 
ATOM     10  C   UNL     1      -0.052   9.566  21.093  0.00  0.00    +0.000 A 
ATOM     11  C   UNL     1      -0.736  10.599  20.448  0.00  0.00    +0.000 A 
ATOM     12  C   UNL     1      -0.414  10.944  19.131  0.00  0.00    +0.000 A 
ATOM     13  C   UNL     1      -1.122  12.061  18.423  0.00  0.00    +0.000 C 
ATOM     14  C   UNL     1       0.604  10.245  18.470  0.00  0.00    +0.000 A 
ATOM     15  C   UNL     1       1.286   9.214  19.111  0.00  0.00    +0.000 A 
ENDBRANCH   8   9
ENDBRANCH   4   8
ENDBRANCH   1   2
BRANCH   1  16
ATOM     16  C   UNL     1       4.732   4.110  17.384  0.00  0.00    +0.000 C 
BRANCH  16  17
ATOM     17  C   UNL     1       5.776   4.040  16.220  0.00  0.00    +0.000 C 
BRANCH  17  18
ATOM     18  C   UNL     1       6.973   4.926  16.557  0.00  0.00    +0.000 C 
ATOM     19  O   UNL     1       8.009   4.445  17.023  0.00  0.00    +0.000 OA
ATOM     20  N   UNL     1       6.783   6.270  16.404  0.00  0.00    +0.000 N 
ATOM     21  H   UNL     1       5.926   6.724  16.108  0.00  0.00    +0.000 HD
BRANCH  20  22
ATOM     22  O   UNL     1       7.848   7.118  16.778  0.00  0.00    +0.000 OA
ATOM     23  H   UNL     1       7.500   8.015  16.587  0.00  0.00    +0.000 HD
ENDBRANCH  20  22
ENDBRANCH  17  18
BRANCH  17  25
ATOM     24  C   UNL     1       6.286   3.842  13.734  0.00  0.00    +0.000 C 
ATOM     25  C   UNL     1       5.276   4.299  14.788  0.00  0.00    +0.000 C 
ENDBRANCH  17  25
ENDBRANCH  16  17
BRANCH  16  26
ATOM     26  C   UNL     1       5.336   4.295  18.789  0.00  0.00    +0.000 C 
BRANCH  26  27
ATOM     27  O   UNL     1       5.398   3.093  19.527  0.00  0.00    +0.000 OA
ATOM     28  H   UNL     1       6.310   2.758  19.527  0.00  0.00    +0.000 HD
ENDBRANCH  26  27
ENDBRANCH  16  26
ENDBRANCH   1  16
TORSDOF 10
ENDMDL
MODEL 5
REMARK VINA RESULT:      -6.6      1.534      2.159
REMARK  Name = 
REMARK  13 active torsions:
REMARK  status: ('A' for Active; 'I' for Inactive)
REMARK    1  A    between atoms: C_1  and  C_2
REMARK    2  A    between atoms: C_2  and  C_3
REMARK    3  A    between atoms: C_3  and  C_4
REMARK    4  A    between atoms: C_3  and  C_8
REMARK    5  A    between atoms: N_6  and  O_7
REMARK    6  A    between atoms: C_8  and  C_9
REMARK    7  A    between atoms: C_8  and  C_11
REMARK    8  A    between atoms: C_9  and  O_10
REMARK    9  A    between atoms: C_11  and  C_12
REMARK   10  A    between atoms: N_14  and  C_15
REMARK   11  A    between atoms: C_15  and  C_16
REMARK   12  A    between atoms: C_19  and  C_20
REMARK   13  A    between atoms: N_24  and  C_25
REMARK                            x       y       z     vdW  Elec       q    Type
REMARK                         _______ _______ _______ _____ _____    ______ ____
ROOT
ATOM      1  C   UNL     1       4.035   5.507  19.731  0.00  0.00    +0.000 C 
ENDROOT
BRANCH   1   2
ATOM      2  C   UNL     1       4.748   5.823  18.447  0.00  0.00    +0.000 A 
ATOM      3  C   UNL     1       5.812   5.209  17.838  0.00  0.00    +0.000 A 
ATOM      4  N   UNL     1       6.133   5.904  16.701  0.00  0.00    +0.000 N 
ATOM      5  C   UNL     1       5.240   6.880  16.515  0.00  0.00    +0.000 A 
ATOM      6  N   UNL     1       4.379   6.847  17.550  0.00  0.00    +0.000 N 
ATOM      7  C   UNL     1       3.217   7.725  17.654  0.00  0.00    +0.000 C 
BRANCH   4   8
ATOM      8  C   UNL     1       7.237   5.548  15.812  0.00  0.00    +0.000 C 
BRANCH   8   9
ATOM      9  C   UNL     1       6.720   4.770  14.637  0.00  0.00    +0.000 A 
ATOM     10  C   UNL     1       5.507   4.066  14.700  0.00  0.00    +0.000 A 
ATOM     11  C   UNL     1       5.024   3.386  13.579  0.00  0.00    +0.000 A 
ATOM     12  C   UNL     1       5.742   3.406  12.379  0.00  0.00    +0.000 A 
ATOM     13  C   UNL     1       5.236   2.698  11.156  0.00  0.00    +0.000 C 
ATOM     14  C   UNL     1       6.947   4.117  12.314  0.00  0.00    +0.000 A 
ATOM     15  C   UNL     1       7.430   4.794  13.430  0.00  0.00    +0.000 A 
ENDBRANCH   8   9
ENDBRANCH   4   8
ENDBRANCH   1   2
BRANCH   1  16
ATOM     16  C   UNL     1       2.639   4.803  19.586  0.00  0.00    +0.000 C 
BRANCH  16  17
ATOM     17  C   UNL     1       2.675   3.265  19.871  0.00  0.00    +0.000 C 
BRANCH  17  18
ATOM     18  C   UNL     1       3.149   2.526  18.621  0.00  0.00    +0.000 C 
ATOM     19  O   UNL     1       2.788   2.883  17.497  0.00  0.00    +0.000 OA
ATOM     20  N   UNL     1       3.902   1.407  18.839  0.00  0.00    +0.000 N 
ATOM     21  H   UNL     1       4.155   1.022  19.741  0.00  0.00    +0.000 HD
BRANCH  20  22
ATOM     22  O   UNL     1       4.292   0.663  17.705  0.00  0.00    +0.000 OA
ATOM     23  H   UNL     1       4.773   1.320  17.158  0.00  0.00    +0.000 HD
ENDBRANCH  20  22
ENDBRANCH  17  18
BRANCH  17  25
ATOM     24  C   UNL     1       1.492   2.470  21.980  0.00  0.00    +0.000 C 
ATOM     25  C   UNL     1       1.412   2.612  20.459  0.00  0.00    +0.000 C 
ENDBRANCH  17  25
ENDBRANCH  16  17
BRANCH  16  26
ATOM     26  C   UNL     1       1.613   5.595  20.419  0.00  0.00    +0.000 C 
BRANCH  26  27
ATOM     27  O   UNL     1       2.069   6.882  20.779  0.00  0.00    +0.000 OA
ATOM     28  H   UNL     1       1.431   7.294  21.387  0.00  0.00    +0.000 HD
ENDBRANCH  26  27
ENDBRANCH  16  26
ENDBRANCH   1  16
TORSDOF 10
ENDMDL
MODEL 6
REMARK VINA RESULT:      -6.6      1.232      1.343
REMARK  Name = 
REMARK  13 active torsions:
REMARK  status: ('A' for Active; 'I' for Inactive)
REMARK    1  A    between atoms: C_1  and  C_2
REMARK    2  A    between atoms: C_2  and  C_3
REMARK    3  A    between atoms: C_3  and  C_4
REMARK    4  A    between atoms: C_3  and  C_8
REMARK    5  A    between atoms: N_6  and  O_7
REMARK    6  A    between atoms: C_8  and  C_9
REMARK    7  A    between atoms: C_8  and  C_11
REMARK    8  A    between atoms: C_9  and  O_10
REMARK    9  A    between atoms: C_11  and  C_12
REMARK   10  A    between atoms: N_14  and  C_15
REMARK   11  A    between atoms: C_15  and  C_16
REMARK   12  A    between atoms: C_19  and  C_20
REMARK   13  A    between atoms: N_24  and  C_25
REMARK                            x       y       z     vdW  Elec       q    Type
REMARK                         _______ _______ _______ _____ _____    ______ ____
ROOT
ATOM      1  C   UNL     1       4.029   5.517  19.782  0.00  0.00    +0.000 C 
ENDROOT
BRANCH   1   2
ATOM      2  C   UNL     1       4.752   5.793  18.494  0.00  0.00    +0.000 A 
ATOM      3  C   UNL     1       5.807   5.148  17.902  0.00  0.00    +0.000 A 
ATOM      4  N   UNL     1       6.144   5.813  16.752  0.00  0.00    +0.000 N 
ATOM      5  C   UNL     1       5.271   6.802  16.543  0.00  0.00    +0.000 A 
ATOM      6  N   UNL     1       4.406   6.806  17.576  0.00  0.00    +0.000 N 
ATOM      7  C   UNL     1       3.260   7.708  17.657  0.00  0.00    +0.000 C 
BRANCH   4   8
ATOM      8  C   UNL     1       7.244   5.418  15.874  0.00  0.00    +0.000 C 
BRANCH   8   9
ATOM      9  C   UNL     1       6.704   4.755  14.641  0.00  0.00    +0.000 A 
ATOM     10  C   UNL     1       7.418   4.761  13.432  0.00  0.00    +0.000 A 
ATOM     11  C   UNL     1       6.915   4.099  12.310  0.00  0.00    +0.000 A 
ATOM     12  C   UNL     1       5.697   3.415  12.381  0.00  0.00    +0.000 A 
ATOM     13  C   UNL     1       5.144   2.681  11.195  0.00  0.00    +0.000 C 
ATOM     14  C   UNL     1       4.991   3.400  13.591  0.00  0.00    +0.000 A 
ATOM     15  C   UNL     1       5.489   4.061  14.709  0.00  0.00    +0.000 A 
ENDBRANCH   8   9
ENDBRANCH   4   8
ENDBRANCH   1   2
BRANCH   1  16
ATOM     16  C   UNL     1       2.647   4.784  19.649  0.00  0.00    +0.000 C 
BRANCH  16  17
ATOM     17  C   UNL     1       2.605   3.384  20.348  0.00  0.00    +0.000 C 
BRANCH  17  18
ATOM     18  C   UNL     1       3.730   2.508  19.801  0.00  0.00    +0.000 C 
ATOM     19  O   UNL     1       3.814   2.259  18.597  0.00  0.00    +0.000 OA
ATOM     20  N   UNL     1       4.559   1.951  20.734  0.00  0.00    +0.000 N 
ATOM     21  H   UNL     1       4.484   2.053  21.740  0.00  0.00    +0.000 HD
BRANCH  20  22
ATOM     22  O   UNL     1       5.563   1.077  20.263  0.00  0.00    +0.000 OA
ATOM     23  H   UNL     1       5.344   0.226  20.698  0.00  0.00    +0.000 HD
ENDBRANCH  20  22
ENDBRANCH  17  18
BRANCH  17  25
ATOM     24  C   UNL     1       0.665   2.489  18.964  0.00  0.00    +0.000 C 
ATOM     25  C   UNL     1       1.266   2.628  20.364  0.00  0.00    +0.000 C 
ENDBRANCH  17  25
ENDBRANCH  16  17
BRANCH  16  26
ATOM     26  C   UNL     1       1.541   5.763  20.087  0.00  0.00    +0.000 C 
BRANCH  26  27
ATOM     27  O   UNL     1       2.016   6.797  20.922  0.00  0.00    +0.000 OA
ATOM     28  H   UNL     1       1.380   6.952  21.641  0.00  0.00    +0.000 HD
ENDBRANCH  26  27
ENDBRANCH  16  26
ENDBRANCH   1  16
TORSDOF 10
ENDMDL
MODEL 7
REMARK VINA RESULT:      -6.5      3.898      7.297
REMARK  Name = 
REMARK  13 active torsions:
REMARK  status: ('A' for Active; 'I' for Inactive)
REMARK    1  A    between atoms: C_1  and  C_2
REMARK    2  A    between atoms: C_2  and  C_3
REMARK    3  A    between atoms: C_3  and  C_4
REMARK    4  A    between atoms: C_3  and  C_8
REMARK    5  A    between atoms: N_6  and  O_7
REMARK    6  A    between atoms: C_8  and  C_9
REMARK    7  A    between atoms: C_8  and  C_11
REMARK    8  A    between atoms: C_9  and  O_10
REMARK    9  A    between atoms: C_11  and  C_12
REMARK   10  A    between atoms: N_14  and  C_15
REMARK   11  A    between atoms: C_15  and  C_16
REMARK   12  A    between atoms: C_19  and  C_20
REMARK   13  A    between atoms: N_24  and  C_25
REMARK                            x       y       z     vdW  Elec       q    Type
REMARK                         _______ _______ _______ _____ _____    ______ ____
ROOT
ATOM      1  C   UNL     1       2.108   4.342  17.744  0.00  0.00    +0.000 C 
ENDROOT
BRANCH   1   2
ATOM      2  C   UNL     1       2.140   5.746  18.278  0.00  0.00    +0.000 A 
ATOM      3  C   UNL     1       2.139   6.953  17.628  0.00  0.00    +0.000 A 
ATOM      4  N   UNL     1       2.229   7.957  18.556  0.00  0.00    +0.000 N 
ATOM      5  C   UNL     1       2.184   7.428  19.782  0.00  0.00    +0.000 A 
ATOM      6  N   UNL     1       2.115   6.090  19.646  0.00  0.00    +0.000 N 
ATOM      7  C   UNL     1       1.978   5.175  20.776  0.00  0.00    +0.000 C 
BRANCH   4   8
ATOM      8  C   UNL     1       2.279   9.379  18.219  0.00  0.00    +0.000 C 
BRANCH   8   9
ATOM      9  C   UNL     1       0.984  10.040  18.592  0.00  0.00    +0.000 A 
ATOM     10  C   UNL     1       0.917  10.991  19.623  0.00  0.00    +0.000 A 
ATOM     11  C   UNL     1      -0.292  11.626  19.921  0.00  0.00    +0.000 A 
ATOM     12  C   UNL     1      -1.446  11.326  19.190  0.00  0.00    +0.000 A 
ATOM     13  C   UNL     1      -2.751  12.007  19.480  0.00  0.00    +0.000 C 
ATOM     14  C   UNL     1      -1.375  10.385  18.155  0.00  0.00    +0.000 A 
ATOM     15  C   UNL     1      -0.172   9.750  17.858  0.00  0.00    +0.000 A 
ENDBRANCH   8   9
ENDBRANCH   4   8
ENDBRANCH   1   2
BRANCH   1  16
ATOM     16  C   UNL     1       3.482   3.764  17.254  0.00  0.00    +0.000 C 
BRANCH  16  17
ATOM     17  C   UNL     1       4.690   4.735  17.475  0.00  0.00    +0.000 C 
BRANCH  17  18
ATOM     18  C   UNL     1       5.430   4.934  16.154  0.00  0.00    +0.000 C 
ATOM     19  O   UNL     1       5.451   6.033  15.596  0.00  0.00    +0.000 OA
ATOM     20  N   UNL     1       5.971   3.809  15.597  0.00  0.00    +0.000 N 
ATOM     21  H   UNL     1       5.910   2.868  15.969  0.00  0.00    +0.000 HD
BRANCH  20  22
ATOM     22  O   UNL     1       6.597   3.950  14.340  0.00  0.00    +0.000 OA
ATOM     23  H   UNL     1       7.012   4.837  14.393  0.00  0.00    +0.000 HD
ENDBRANCH  20  22
ENDBRANCH  17  18
BRANCH  17  25
ATOM     24  C   UNL     1       6.678   5.547  18.843  0.00  0.00    +0.000 C 
ATOM     25  C   UNL     1       5.668   4.419  18.620  0.00  0.00    +0.000 C 
ENDBRANCH  17  25
ENDBRANCH  16  17
BRANCH  16  26
ATOM     26  C   UNL     1       3.657   2.360  17.864  0.00  0.00    +0.000 C 
BRANCH  26  27
ATOM     27  O   UNL     1       2.455   1.622  17.906  0.00  0.00    +0.000 OA
ATOM     28  H   UNL     1       2.657   0.671  17.900  0.00  0.00    +0.000 HD
ENDBRANCH  26  27
ENDBRANCH  16  26
ENDBRANCH   1  16
TORSDOF 10
ENDMDL
MODEL 8
REMARK VINA RESULT:      -6.5      3.795      7.732
REMARK  Name = 
REMARK  13 active torsions:
REMARK  status: ('A' for Active; 'I' for Inactive)
REMARK    1  A    between atoms: C_1  and  C_2
REMARK    2  A    between atoms: C_2  and  C_3
REMARK    3  A    between atoms: C_3  and  C_4
REMARK    4  A    between atoms: C_3  and  C_8
REMARK    5  A    between atoms: N_6  and  O_7
REMARK    6  A    between atoms: C_8  and  C_9
REMARK    7  A    between atoms: C_8  and  C_11
REMARK    8  A    between atoms: C_9  and  O_10
REMARK    9  A    between atoms: C_11  and  C_12
REMARK   10  A    between atoms: N_14  and  C_15
REMARK   11  A    between atoms: C_15  and  C_16
REMARK   12  A    between atoms: C_19  and  C_20
REMARK   13  A    between atoms: N_24  and  C_25
REMARK                            x       y       z     vdW  Elec       q    Type
REMARK                         _______ _______ _______ _____ _____    ______ ____
ROOT
ATOM      1  C   UNL     1       3.927   4.351  17.294  0.00  0.00    +0.000 C 
ENDROOT
BRANCH   1   2
ATOM      2  C   UNL     1       3.215   5.478  17.987  0.00  0.00    +0.000 A 
ATOM      3  C   UNL     1       3.096   6.802  17.653  0.00  0.00    +0.000 A 
ATOM      4  N   UNL     1       2.388   7.445  18.635  0.00  0.00    +0.000 N 
ATOM      5  C   UNL     1       1.967   6.548  19.532  0.00  0.00    +0.000 A 
ATOM      6  N   UNL     1       2.441   5.344  19.158  0.00  0.00    +0.000 N 
ATOM      7  C   UNL     1       2.124   4.104  19.861  0.00  0.00    +0.000 C 
BRANCH   4   8
ATOM      8  C   UNL     1       2.089   8.875  18.623  0.00  0.00    +0.000 C 
BRANCH   8   9
ATOM      9  C   UNL     1       1.252   9.235  19.815  0.00  0.00    +0.000 A 
ATOM     10  C   UNL     1       1.591   8.802  21.107  0.00  0.00    +0.000 A 
ATOM     11  C   UNL     1       0.821   9.187  22.207  0.00  0.00    +0.000 A 
ATOM     12  C   UNL     1      -0.293  10.015  22.034  0.00  0.00    +0.000 A 
ATOM     13  C   UNL     1      -1.126  10.457  23.201  0.00  0.00    +0.000 C 
ATOM     14  C   UNL     1      -0.624  10.456  20.746  0.00  0.00    +0.000 A 
ATOM     15  C   UNL     1       0.141  10.071  19.648  0.00  0.00    +0.000 A 
ENDBRANCH   8   9
ENDBRANCH   4   8
ENDBRANCH   1   2
BRANCH   1  16
ATOM     16  C   UNL     1       5.480   4.284  17.511  0.00  0.00    +0.000 C 
BRANCH  16  17
ATOM     17  C   UNL     1       6.273   5.399  16.751  0.00  0.00    +0.000 C 
BRANCH  17  18
ATOM     18  C   UNL     1       6.780   4.847  15.421  0.00  0.00    +0.000 C 
ATOM     19  O   UNL     1       7.735   5.365  14.840  0.00  0.00    +0.000 OA
ATOM     20  N   UNL     1       6.051   3.823  14.884  0.00  0.00    +0.000 N 
ATOM     21  H   UNL     1       5.209   3.417  15.276  0.00  0.00    +0.000 HD
BRANCH  20  22
ATOM     22  O   UNL     1       6.452   3.342  13.619  0.00  0.00    +0.000 OA
ATOM     23  H   UNL     1       6.193   2.396  13.645  0.00  0.00    +0.000 HD
ENDBRANCH  20  22
ENDBRANCH  17  18
BRANCH  17  25
ATOM     24  C   UNL     1       7.255   7.655  17.408  0.00  0.00    +0.000 C 
ATOM     25  C   UNL     1       7.390   6.134  17.512  0.00  0.00    +0.000 C 
ENDBRANCH  17  25
ENDBRANCH  16  17
BRANCH  16  26
ATOM     26  C   UNL     1       5.750   4.212  19.027  0.00  0.00    +0.000 C 
BRANCH  26  27
ATOM     27  O   UNL     1       5.357   2.985  19.601  0.00  0.00    +0.000 OA
ATOM     28  H   UNL     1       5.433   3.039  20.569  0.00  0.00    +0.000 HD
ENDBRANCH  26  27
ENDBRANCH  16  26
ENDBRANCH   1  16
TORSDOF 10
ENDMDL
MODEL 9
REMARK VINA RESULT:      -6.5      3.780      7.202
REMARK  Name = 
REMARK  13 active torsions:
REMARK  status: ('A' for Active; 'I' for Inactive)
REMARK    1  A    between atoms: C_1  and  C_2
REMARK    2  A    between atoms: C_2  and  C_3
REMARK    3  A    between atoms: C_3  and  C_4
REMARK    4  A    between atoms: C_3  and  C_8
REMARK    5  A    between atoms: N_6  and  O_7
REMARK    6  A    between atoms: C_8  and  C_9
REMARK    7  A    between atoms: C_8  and  C_11
REMARK    8  A    between atoms: C_9  and  O_10
REMARK    9  A    between atoms: C_11  and  C_12
REMARK   10  A    between atoms: N_14  and  C_15
REMARK   11  A    between atoms: C_15  and  C_16
REMARK   12  A    between atoms: C_19  and  C_20
REMARK   13  A    between atoms: N_24  and  C_25
REMARK                            x       y       z     vdW  Elec       q    Type
REMARK                         _______ _______ _______ _____ _____    ______ ____
ROOT
ATOM      1  C   UNL     1       1.969   4.268  17.893  0.00  0.00    +0.000 C 
ENDROOT
BRANCH   1   2
ATOM      2  C   UNL     1       2.060   5.701  18.336  0.00  0.00    +0.000 A 
ATOM      3  C   UNL     1       2.078   6.864  17.609  0.00  0.00    +0.000 A 
ATOM      4  N   UNL     1       2.227   7.921  18.469  0.00  0.00    +0.000 N 
ATOM      5  C   UNL     1       2.202   7.472  19.727  0.00  0.00    +0.000 A 
ATOM      6  N   UNL     1       2.087   6.130  19.679  0.00  0.00    +0.000 N 
ATOM      7  C   UNL     1       1.955   5.294  20.868  0.00  0.00    +0.000 C 
BRANCH   4   8
ATOM      8  C   UNL     1       2.311   9.316  18.041  0.00  0.00    +0.000 C 
BRANCH   8   9
ATOM      9  C   UNL     1       1.054  10.045  18.416  0.00  0.00    +0.000 A 
ATOM     10  C   UNL     1      -0.188   9.698  17.860  0.00  0.00    +0.000 A 
ATOM     11  C   UNL     1      -1.351  10.362  18.259  0.00  0.00    +0.000 A 
ATOM     12  C   UNL     1      -1.290  11.376  19.221  0.00  0.00    +0.000 A 
ATOM     13  C   UNL     1      -2.527  12.092  19.678  0.00  0.00    +0.000 C 
ATOM     14  C   UNL     1      -0.052  11.713  19.782  0.00  0.00    +0.000 A 
ATOM     15  C   UNL     1       1.108  11.054  19.385  0.00  0.00    +0.000 A 
ENDBRANCH   8   9
ENDBRANCH   4   8
ENDBRANCH   1   2
BRANCH   1  16
ATOM     16  C   UNL     1       3.317   3.602  17.444  0.00  0.00    +0.000 C 
BRANCH  16  17
ATOM     17  C   UNL     1       4.565   4.534  17.601  0.00  0.00    +0.000 C 
BRANCH  17  18
ATOM     18  C   UNL     1       5.295   4.638  16.264  0.00  0.00    +0.000 C 
ATOM     19  O   UNL     1       5.286   5.685  15.614  0.00  0.00    +0.000 OA
ATOM     20  N   UNL     1       5.861   3.482  15.802  0.00  0.00    +0.000 N 
ATOM     21  H   UNL     1       5.825   2.575  16.253  0.00  0.00    +0.000 HD
BRANCH  20  22
ATOM     22  O   UNL     1       6.478   3.531  14.534  0.00  0.00    +0.000 OA
ATOM     23  H   UNL     1       5.719   3.537  13.913  0.00  0.00    +0.000 HD
ENDBRANCH  20  22
ENDBRANCH  17  18
BRANCH  17  25
ATOM     24  C   UNL     1       6.513   5.397  18.996  0.00  0.00    +0.000 C 
ATOM     25  C   UNL     1       5.545   4.238  18.750  0.00  0.00    +0.000 C 
ENDBRANCH  17  25
ENDBRANCH  16  17
BRANCH  16  26
ATOM     26  C   UNL     1       3.435   2.235  18.144  0.00  0.00    +0.000 C 
BRANCH  26  27
ATOM     27  O   UNL     1       2.712   2.170  19.355  0.00  0.00    +0.000 OA
ATOM     28  H   UNL     1       3.111   1.500  19.936  0.00  0.00    +0.000 HD
ENDBRANCH  26  27
ENDBRANCH  16  26
ENDBRANCH   1  16
TORSDOF 10
ENDMDL
