MODEL 1
REMARK VINA RESULT:      -7.3      0.000      0.000
REMARK  Name = 
REMARK  3 active torsions:
REMARK  status: ('A' for Active; 'I' for Inactive)
REMARK    1  A    between atoms: C_1  and  C_2
REMARK    2  A    between atoms: C_5  and  C_6
REMARK    3  A    between atoms: C_8  and  C_9
REMARK                            x       y       z     vdW  Elec       q    Type
REMARK                         _______ _______ _______ _____ _____    ______ ____
ROOT
ATOM      1  C   UNL     1       6.467   4.250  13.550  0.00  0.00    +0.000 C 
ATOM      2  C   UNL     1       6.325   4.515  15.021  0.00  0.00    +0.000 C 
ATOM      3  C   UNL     1       7.331   4.308  15.888  0.00  0.00    +0.000 C 
ATOM      4  C   UNL     1       7.201   4.601  17.293  0.00  0.00    +0.000 C 
ATOM      5  C   UNL     1       6.041   5.024  17.815  0.00  0.00    +0.000 C 
ATOM      6  C   UNL     1       4.777   5.207  17.005  0.00  0.00    +0.000 C 
ATOM      7  C   UNL     1       4.980   5.043  15.467  0.00  0.00    +0.000 C 
ENDROOT
BRANCH   6   8
ATOM      8  C   UNL     1       3.663   4.279  17.486  0.00  0.00    +0.000 A 
ATOM      9  C   UNL     1       2.433   4.816  17.893  0.00  0.00    +0.000 A 
ATOM     10  C   UNL     1       1.411   3.982  18.347  0.00  0.00    +0.000 A 
ATOM     11  C   UNL     1       1.606   2.604  18.401  0.00  0.00    +0.000 A 
ATOM     12  C   UNL     1       2.821   2.056  17.999  0.00  0.00    +0.000 A 
ATOM     13  C   UNL     1       3.845   2.886  17.541  0.00  0.00    +0.000 A 
ENDBRANCH   6   8
BRANCH   5  14
ATOM     14  C   UNL     1       6.008   5.358  19.260  0.00  0.00    +0.000 C 
ATOM     15  O   UNL     1       7.010   5.377  19.964  0.00  0.00    +0.000 OA
ENDBRANCH   5  14
TORSDOF 2
ENDMDL
MODEL 2
REMARK VINA RESULT:      -7.3      0.073      1.249
REMARK  Name = 
REMARK  3 active torsions:
REMARK  status: ('A' for Active; 'I' for Inactive)
REMARK    1  A    between atoms: C_1  and  C_2
REMARK    2  A    between atoms: C_5  and  C_6
REMARK    3  A    between atoms: C_8  and  C_9
REMARK                            x       y       z     vdW  Elec       q    Type
REMARK                         _______ _______ _______ _____ _____    ______ ____
ROOT
ATOM      1  C   UNL     1       6.489   4.346  13.566  0.00  0.00    +0.000 C 
ATOM      2  C   UNL     1       6.352   4.591  15.041  0.00  0.00    +0.000 C 
ATOM      3  C   UNL     1       7.357   4.361  15.903  0.00  0.00    +0.000 C 
ATOM      4  C   UNL     1       7.233   4.635  17.312  0.00  0.00    +0.000 C 
ATOM      5  C   UNL     1       6.077   5.062  17.842  0.00  0.00    +0.000 C 
ATOM      6  C   UNL     1       4.814   5.270  17.037  0.00  0.00    +0.000 C 
ATOM      7  C   UNL     1       5.013   5.127  15.497  0.00  0.00    +0.000 C 
ENDROOT
BRANCH   6   8
ATOM      8  C   UNL     1       3.692   4.347  17.506  0.00  0.00    +0.000 A 
ATOM      9  C   UNL     1       3.894   2.960  17.533  0.00  0.00    +0.000 A 
ATOM     10  C   UNL     1       2.874   2.102  17.946  0.00  0.00    +0.000 A 
ATOM     11  C   UNL     1       1.642   2.621  18.336  0.00  0.00    +0.000 A 
ATOM     12  C   UNL     1       1.425   3.997  18.315  0.00  0.00    +0.000 A 
ATOM     13  C   UNL     1       2.445   4.857  17.906  0.00  0.00    +0.000 A 
ENDBRANCH   6   8
BRANCH   5  14
ATOM     14  C   UNL     1       6.051   5.376  19.292  0.00  0.00    +0.000 C 
ATOM     15  O   UNL     1       7.051   5.357  19.998  0.00  0.00    +0.000 OA
ENDBRANCH   5  14
TORSDOF 2
ENDMDL
MODEL 3
REMARK VINA RESULT:      -7.0      2.427      3.754
REMARK  Name = 
REMARK  3 active torsions:
REMARK  status: ('A' for Active; 'I' for Inactive)
REMARK    1  A    between atoms: C_1  and  C_2
REMARK    2  A    between atoms: C_5  and  C_6
REMARK    3  A    between atoms: C_8  and  C_9
REMARK                            x       y       z     vdW  Elec       q    Type
REMARK                         _______ _______ _______ _____ _____    ______ ____
ROOT
ATOM      1  C   UNL     1       1.819   9.022  17.782  0.00  0.00    +0.000 C 
ATOM      2  C   UNL     1       2.726   7.872  18.113  0.00  0.00    +0.000 C 
ATOM      3  C   UNL     1       3.762   7.528  17.329  0.00  0.00    +0.000 C 
ATOM      4  C   UNL     1       4.652   6.447  17.671  0.00  0.00    +0.000 C 
ATOM      5  C   UNL     1       4.442   5.684  18.753  0.00  0.00    +0.000 C 
ATOM      6  C   UNL     1       3.265   5.861  19.686  0.00  0.00    +0.000 C 
ATOM      7  C   UNL     1       2.409   7.131  19.392  0.00  0.00    +0.000 C 
ENDROOT
BRANCH   6   8
ATOM      8  C   UNL     1       2.371   4.623  19.703  0.00  0.00    +0.000 A 
ATOM      9  C   UNL     1       2.063   4.000  20.921  0.00  0.00    +0.000 A 
ATOM     10  C   UNL     1       1.259   2.861  20.952  0.00  0.00    +0.000 A 
ATOM     11  C   UNL     1       0.755   2.330  19.767  0.00  0.00    +0.000 A 
ATOM     12  C   UNL     1       1.052   2.937  18.549  0.00  0.00    +0.000 A 
ATOM     13  C   UNL     1       1.853   4.079  18.515  0.00  0.00    +0.000 A 
ENDBRANCH   6   8
BRANCH   5  14
ATOM     14  C   UNL     1       5.438   4.630  19.066  0.00  0.00    +0.000 C 
ATOM     15  O   UNL     1       6.640   4.851  19.151  0.00  0.00    +0.000 OA
ENDBRANCH   5  14
TORSDOF 2
ENDMDL
MODEL 4
REMARK VINA RESULT:      -6.9      2.436      3.896
REMARK  Name = 
REMARK  3 active torsions:
REMARK  status: ('A' for Active; 'I' for Inactive)
REMARK    1  A    between atoms: C_1  and  C_2
REMARK    2  A    between atoms: C_5  and  C_6
REMARK    3  A    between atoms: C_8  and  C_9
REMARK                            x       y       z     vdW  Elec       q    Type
REMARK                         _______ _______ _______ _____ _____    ______ ____
ROOT
ATOM      1  C   UNL     1       1.542   9.188  17.897  0.00  0.00    +0.000 C 
ATOM      2  C   UNL     1       2.505   8.061  18.132  0.00  0.00    +0.000 C 
ATOM      3  C   UNL     1       3.491   7.768  17.267  0.00  0.00    +0.000 C 
ATOM      4  C   UNL     1       4.437   6.710  17.518  0.00  0.00    +0.000 C 
ATOM      5  C   UNL     1       4.331   5.917  18.594  0.00  0.00    +0.000 C 
ATOM      6  C   UNL     1       3.221   6.036  19.614  0.00  0.00    +0.000 C 
ATOM      7  C   UNL     1       2.306   7.284  19.414  0.00  0.00    +0.000 C 
ENDROOT
BRANCH   6   8
ATOM      8  C   UNL     1       2.370   4.769  19.667  0.00  0.00    +0.000 A 
ATOM      9  C   UNL     1       1.860   4.220  18.481  0.00  0.00    +0.000 A 
ATOM     10  C   UNL     1       1.070   3.071  18.514  0.00  0.00    +0.000 A 
ATOM     11  C   UNL     1       0.779   2.458  19.730  0.00  0.00    +0.000 A 
ATOM     12  C   UNL     1       1.278   2.991  20.916  0.00  0.00    +0.000 A 
ATOM     13  C   UNL     1       2.072   4.138  20.887  0.00  0.00    +0.000 A 
ENDBRANCH   6   8
BRANCH   5  14
ATOM     14  C   UNL     1       5.380   4.890  18.808  0.00  0.00    +0.000 C 
ATOM     15  O   UNL     1       6.210   4.959  19.706  0.00  0.00    +0.000 OA
ENDBRANCH   5  14
TORSDOF 2
ENDMDL
MODEL 5
REMARK VINA RESULT:      -6.8      2.090      5.146
REMARK  Name = 
REMARK  3 active torsions:
REMARK  status: ('A' for Active; 'I' for Inactive)
REMARK    1  A    between atoms: C_1  and  C_2
REMARK    2  A    between atoms: C_5  and  C_6
REMARK    3  A    between atoms: C_8  and  C_9
REMARK                            x       y       z     vdW  Elec       q    Type
REMARK                         _______ _______ _______ _____ _____    ______ ____
ROOT
ATOM      1  C   UNL     1       1.915   7.521  20.346  0.00  0.00    +0.000 C 
ATOM      2  C   UNL     1       2.130   6.168  19.732  0.00  0.00    +0.000 C 
ATOM      3  C   UNL     1       1.846   5.029  20.388  0.00  0.00    +0.000 C 
ATOM      4  C   UNL     1       2.018   3.734  19.779  0.00  0.00    +0.000 C 
ATOM      5  C   UNL     1       2.542   3.603  18.552  0.00  0.00    +0.000 C 
ATOM      6  C   UNL     1       3.016   4.769  17.715  0.00  0.00    +0.000 C 
ATOM      7  C   UNL     1       2.673   6.165  18.321  0.00  0.00    +0.000 C 
ENDROOT
BRANCH   6   8
ATOM      8  C   UNL     1       4.513   4.680  17.425  0.00  0.00    +0.000 A 
ATOM      9  C   UNL     1       5.438   4.957  18.442  0.00  0.00    +0.000 A 
ATOM     10  C   UNL     1       6.809   4.892  18.190  0.00  0.00    +0.000 A 
ATOM     11  C   UNL     1       7.270   4.553  16.921  0.00  0.00    +0.000 A 
ATOM     12  C   UNL     1       6.363   4.275  15.901  0.00  0.00    +0.000 A 
ATOM     13  C   UNL     1       4.992   4.334  16.150  0.00  0.00    +0.000 A 
ENDBRANCH   6   8
BRANCH   5  14
ATOM     14  C   UNL     1       2.630   2.238  17.976  0.00  0.00    +0.000 C 
ATOM     15  O   UNL     1       3.486   1.427  18.307  0.00  0.00    +0.000 OA
ENDBRANCH   5  14
TORSDOF 2
ENDMDL
MODEL 6
REMARK VINA RESULT:      -6.7      2.097      5.180
REMARK  Name = 
REMARK  3 active torsions:
REMARK  status: ('A' for Active; 'I' for Inactive)
REMARK    1  A    between atoms: C_1  and  C_2
REMARK    2  A    between atoms: C_5  and  C_6
REMARK    3  A    between atoms: C_8  and  C_9
REMARK                            x       y       z     vdW  Elec       q    Type
REMARK                         _______ _______ _______ _____ _____    ______ ____
ROOT
ATOM      1  C   UNL     1       1.903   7.571  20.346  0.00  0.00    +0.000 C 
ATOM      2  C   UNL     1       2.117   6.212  19.745  0.00  0.00    +0.000 C 
ATOM      3  C   UNL     1       1.837   5.080  20.413  0.00  0.00    +0.000 C 
ATOM      4  C   UNL     1       2.007   3.779  19.817  0.00  0.00    +0.000 C 
ATOM      5  C   UNL     1       2.525   3.635  18.589  0.00  0.00    +0.000 C 
ATOM      6  C   UNL     1       2.995   4.794  17.738  0.00  0.00    +0.000 C 
ATOM      7  C   UNL     1       2.653   6.196  18.331  0.00  0.00    +0.000 C 
ENDROOT
BRANCH   6   8
ATOM      8  C   UNL     1       4.490   4.703  17.443  0.00  0.00    +0.000 A 
ATOM      9  C   UNL     1       4.929   4.330  16.164  0.00  0.00    +0.000 A 
ATOM     10  C   UNL     1       6.291   4.230  15.882  0.00  0.00    +0.000 A 
ATOM     11  C   UNL     1       7.231   4.500  16.874  0.00  0.00    +0.000 A 
ATOM     12  C   UNL     1       6.812   4.872  18.149  0.00  0.00    +0.000 A 
ATOM     13  C   UNL     1       5.449   4.976  18.433  0.00  0.00    +0.000 A 
ENDBRANCH   6   8
BRANCH   5  14
ATOM     14  C   UNL     1       2.613   2.265  18.026  0.00  0.00    +0.000 C 
ATOM     15  O   UNL     1       3.475   1.461  18.357  0.00  0.00    +0.000 OA
ENDBRANCH   5  14
TORSDOF 2
ENDMDL
MODEL 7
REMARK VINA RESULT:      -6.6      2.133      5.153
REMARK  Name = 
REMARK  3 active torsions:
REMARK  status: ('A' for Active; 'I' for Inactive)
REMARK    1  A    between atoms: C_1  and  C_2
REMARK    2  A    between atoms: C_5  and  C_6
REMARK    3  A    between atoms: C_8  and  C_9
REMARK                            x       y       z     vdW  Elec       q    Type
REMARK                         _______ _______ _______ _____ _____    ______ ____
ROOT
ATOM      1  C   UNL     1       1.629   4.763  20.128  0.00  0.00    +0.000 C 
ATOM      2  C   UNL     1       2.578   4.534  18.988  0.00  0.00    +0.000 C 
ATOM      3  C   UNL     1       2.813   3.310  18.485  0.00  0.00    +0.000 C 
ATOM      4  C   UNL     1       3.696   3.100  17.365  0.00  0.00    +0.000 C 
ATOM      5  C   UNL     1       4.384   4.113  16.819  0.00  0.00    +0.000 C 
ATOM      6  C   UNL     1       4.324   5.536  17.327  0.00  0.00    +0.000 C 
ATOM      7  C   UNL     1       3.245   5.771  18.429  0.00  0.00    +0.000 C 
ENDROOT
BRANCH   6   8
ATOM      8  C   UNL     1       5.687   6.013  17.823  0.00  0.00    +0.000 A 
ATOM      9  C   UNL     1       6.322   7.092  17.191  0.00  0.00    +0.000 A 
ATOM     10  C   UNL     1       7.573   7.531  17.624  0.00  0.00    +0.000 A 
ATOM     11  C   UNL     1       8.205   6.897  18.691  0.00  0.00    +0.000 A 
ATOM     12  C   UNL     1       7.588   5.824  19.329  0.00  0.00    +0.000 A 
ATOM     13  C   UNL     1       6.334   5.384  18.901  0.00  0.00    +0.000 A 
ENDBRANCH   6   8
BRANCH   5  14
ATOM     14  C   UNL     1       5.226   3.822  15.632  0.00  0.00    +0.000 C 
ATOM     15  O   UNL     1       5.324   4.586  14.679  0.00  0.00    +0.000 OA
ENDBRANCH   5  14
TORSDOF 2
ENDMDL
MODEL 8
REMARK VINA RESULT:      -6.6      1.465      1.530
REMARK  Name = 
REMARK  3 active torsions:
REMARK  status: ('A' for Active; 'I' for Inactive)
REMARK    1  A    between atoms: C_1  and  C_2
REMARK    2  A    between atoms: C_5  and  C_6
REMARK    3  A    between atoms: C_8  and  C_9
REMARK                            x       y       z     vdW  Elec       q    Type
REMARK                         _______ _______ _______ _____ _____    ______ ____
ROOT
ATOM      1  C   UNL     1       5.532   4.174  14.116  0.00  0.00    +0.000 C 
ATOM      2  C   UNL     1       5.941   4.609  15.493  0.00  0.00    +0.000 C 
ATOM      3  C   UNL     1       7.130   4.280  16.026  0.00  0.00    +0.000 C 
ATOM      4  C   UNL     1       7.533   4.733  17.334  0.00  0.00    +0.000 C 
ATOM      5  C   UNL     1       6.705   5.443  18.113  0.00  0.00    +0.000 C 
ATOM      6  C   UNL     1       5.293   5.811  17.717  0.00  0.00    +0.000 C 
ATOM      7  C   UNL     1       4.935   5.455  16.241  0.00  0.00    +0.000 C 
ENDROOT
BRANCH   6   8
ATOM      8  C   UNL     1       4.266   5.195  18.666  0.00  0.00    +0.000 A 
ATOM      9  C   UNL     1       3.334   6.018  19.316  0.00  0.00    +0.000 A 
ATOM     10  C   UNL     1       2.399   5.472  20.195  0.00  0.00    +0.000 A 
ATOM     11  C   UNL     1       2.384   4.100  20.436  0.00  0.00    +0.000 A 
ATOM     12  C   UNL     1       3.303   3.270  19.798  0.00  0.00    +0.000 A 
ATOM     13  C   UNL     1       4.238   3.812  18.915  0.00  0.00    +0.000 A 
ENDBRANCH   6   8
BRANCH   5  14
ATOM     14  C   UNL     1       7.218   5.920  19.421  0.00  0.00    +0.000 C 
ATOM     15  O   UNL     1       7.726   5.175  20.251  0.00  0.00    +0.000 OA
ENDBRANCH   5  14
TORSDOF 2
ENDMDL
MODEL 9
REMARK VINA RESULT:      -6.6      1.519      1.978
REMARK  Name = 
REMARK  3 active torsions:
REMARK  status: ('A' for Active; 'I' for Inactive)
REMARK    1  A    between atoms: C_1  and  C_2
REMARK    2  A    between atoms: C_5  and  C_6
REMARK    3  A    between atoms: C_8  and  C_9
REMARK                            x       y       z     vdW  Elec       q    Type
REMARK                         _______ _______ _______ _____ _____    ______ ____
ROOT
ATOM      1  C   UNL     1       5.424   4.319  14.162  0.00  0.00    +0.000 C 
ATOM      2  C   UNL     1       5.886   4.646  15.553  0.00  0.00    +0.000 C 
ATOM      3  C   UNL     1       7.101   4.293  16.007  0.00  0.00    +0.000 C 
ATOM      4  C   UNL     1       7.553   4.643  17.330  0.00  0.00    +0.000 C 
ATOM      5  C   UNL     1       6.751   5.275  18.198  0.00  0.00    +0.000 C 
ATOM      6  C   UNL     1       5.318   5.651  17.894  0.00  0.00    +0.000 C 
ATOM      7  C   UNL     1       4.902   5.411  16.409  0.00  0.00    +0.000 C 
ENDROOT
BRANCH   6   8
ATOM      8  C   UNL     1       4.341   4.943  18.830  0.00  0.00    +0.000 A 
ATOM      9  C   UNL     1       4.380   3.547  18.954  0.00  0.00    +0.000 A 
ATOM     10  C   UNL     1       3.486   2.885  19.796  0.00  0.00    +0.000 A 
ATOM     11  C   UNL     1       2.542   3.609  20.519  0.00  0.00    +0.000 A 
ATOM     12  C   UNL     1       2.491   4.996  20.407  0.00  0.00    +0.000 A 
ATOM     13  C   UNL     1       3.387   5.662  19.569  0.00  0.00    +0.000 A 
ENDBRANCH   6   8
BRANCH   5  14
ATOM     14  C   UNL     1       7.314   5.650  19.519  0.00  0.00    +0.000 C 
ATOM     15  O   UNL     1       8.345   5.166  19.968  0.00  0.00    +0.000 OA
ENDBRANCH   5  14
TORSDOF 2
ENDMDL
