MODEL 1
REMARK VINA RESULT:      -7.0      0.000      0.000
REMARK  Name = 
REMARK  7 active torsions:
REMARK  status: ('A' for Active; 'I' for Inactive)
REMARK    1  A    between atoms: C_2  and  N_3
REMARK    2  A    between atoms: C_2  and  N_17
REMARK    3  A    between atoms: N_3  and  N_4
REMARK    4  A    between atoms: C_5  and  C_6
REMARK    5  A    between atoms: N_7  and  N_8
REMARK    6  A    between atoms: N_8  and  C_9
REMARK    7  A    between atoms: C_9  and  N_11
REMARK                            x       y       z     vdW  Elec       q    Type
REMARK                         _______ _______ _______ _____ _____    ______ ____
ROOT
ATOM      1  N   UNL     1       6.942   5.799  18.662  0.00  0.00    +0.000 NA
ATOM      2  C   UNL     1       7.857   6.717  18.466  0.00  0.00    +0.000 C 
ENDROOT
BRANCH   1   3
ATOM      3  N   UNL     1       5.694   5.875  18.117  0.00  0.00    +0.000 N 
ATOM      4  H   UNL     1       5.000   6.498  18.529  0.00  0.00    +0.000 HD
BRANCH   3   6
ATOM      5  S   UNL     1       5.884   4.250  15.957  0.00  0.00    +0.000 S 
ATOM      6  C   UNL     1       5.180   4.798  17.385  0.00  0.00    +0.000 C 
BRANCH   6   7
ATOM      7  N   UNL     1       4.028   4.240  17.960  0.00  0.00    +0.000 N 
ATOM      8  C   UNL     1       4.027   2.918  18.599  0.00  0.00    +0.000 C 
ATOM      9  C   UNL     1       2.834   2.099  18.122  0.00  0.00    +0.000 C 
ATOM     10  C   UNL     1       1.518   2.859  18.309  0.00  0.00    +0.000 C 
ATOM     11  C   UNL     1       1.594   4.275  17.741  0.00  0.00    +0.000 C 
ATOM     12  C   UNL     1       2.820   5.023  18.259  0.00  0.00    +0.000 C 
ENDBRANCH   6   7
ENDBRANCH   3   6
ENDBRANCH   1   3
BRANCH   2  13
ATOM     13  C   UNL     1       7.728   7.959  17.658  0.00  0.00    +0.000 C 
ATOM     14  N   UNL     1       8.266   9.116  17.901  0.00  0.00    +0.000 NA
BRANCH  14  15
ATOM     15  N   UNL     1       8.994   9.359  19.034  0.00  0.00    +0.000 N 
ATOM     16  H   UNL     1       8.984   8.687  19.790  0.00  0.00    +0.000 HD
BRANCH  15  17
ATOM     17  C   UNL     1       9.331  10.676  19.381  0.00  0.00    +0.000 C 
ATOM     18  S   UNL     1       9.323  11.259  20.961  0.00  0.00    +0.000 S 
BRANCH  17  19
ATOM     19  N   UNL     1       9.666  11.471  18.272  0.00  0.00    +0.000 N 
ATOM     20  C   UNL     1      11.002  11.493  17.674  0.00  0.00    +0.000 C 
ATOM     21  C   UNL     1      11.669  12.842  17.912  0.00  0.00    +0.000 C 
ATOM     22  C   UNL     1      10.789  13.978  17.393  0.00  0.00    +0.000 C 
ATOM     23  C   UNL     1       9.376  13.889  17.976  0.00  0.00    +0.000 C 
ATOM     24  C   UNL     1       8.755  12.506  17.755  0.00  0.00    +0.000 C 
ENDBRANCH  17  19
ENDBRANCH  15  17
ENDBRANCH  14  15
ENDBRANCH   2  13
TORSDOF 7
ENDMDL
MODEL 2
REMARK VINA RESULT:      -6.7      5.039      8.178
REMARK  Name = 
REMARK  7 active torsions:
REMARK  status: ('A' for Active; 'I' for Inactive)
REMARK    1  A    between atoms: C_2  and  N_3
REMARK    2  A    between atoms: C_2  and  N_17
REMARK    3  A    between atoms: N_3  and  N_4
REMARK    4  A    between atoms: C_5  and  C_6
REMARK    5  A    between atoms: N_7  and  N_8
REMARK    6  A    between atoms: N_8  and  C_9
REMARK    7  A    between atoms: C_9  and  N_11
REMARK                            x       y       z     vdW  Elec       q    Type
REMARK                         _______ _______ _______ _____ _____    ______ ____
ROOT
ATOM      1  N   UNL     1       7.913   4.708  16.936  0.00  0.00    +0.000 NA
ATOM      2  C   UNL     1       7.852   4.543  18.235  0.00  0.00    +0.000 C 
ENDROOT
BRANCH   1   3
ATOM      3  N   UNL     1       7.450   5.830  16.314  0.00  0.00    +0.000 N 
ATOM      4  H   UNL     1       7.560   6.739  16.765  0.00  0.00    +0.000 HD
BRANCH   3   6
ATOM      5  S   UNL     1       4.954   6.571  15.565  0.00  0.00    +0.000 S 
ATOM      6  C   UNL     1       6.407   5.739  15.384  0.00  0.00    +0.000 C 
BRANCH   6   7
ATOM      7  N   UNL     1       6.700   4.887  14.308  0.00  0.00    +0.000 N 
ATOM      8  C   UNL     1       7.847   5.108  13.419  0.00  0.00    +0.000 C 
ATOM      9  C   UNL     1       7.422   4.975  11.962  0.00  0.00    +0.000 C 
ATOM     10  C   UNL     1       6.705   3.647  11.703  0.00  0.00    +0.000 C 
ATOM     11  C   UNL     1       5.595   3.393  12.721  0.00  0.00    +0.000 C 
ATOM     12  C   UNL     1       6.100   3.554  14.153  0.00  0.00    +0.000 C 
ENDBRANCH   6   7
ENDBRANCH   3   6
ENDBRANCH   1   3
BRANCH   2  13
ATOM     13  C   UNL     1       7.296   5.491  19.238  0.00  0.00    +0.000 C 
ATOM     14  N   UNL     1       6.043   5.730  19.485  0.00  0.00    +0.000 NA
BRANCH  14  15
ATOM     15  N   UNL     1       5.034   5.161  18.758  0.00  0.00    +0.000 N 
ATOM     16  H   UNL     1       5.178   4.949  17.779  0.00  0.00    +0.000 HD
BRANCH  15  17
ATOM     17  C   UNL     1       3.701   5.319  19.166  0.00  0.00    +0.000 C 
ATOM     18  S   UNL     1       2.823   6.741  18.967  0.00  0.00    +0.000 S 
BRANCH  17  19
ATOM     19  N   UNL     1       3.171   4.169  19.775  0.00  0.00    +0.000 N 
ATOM     20  C   UNL     1       3.723   2.828  19.578  0.00  0.00    +0.000 C 
ATOM     21  C   UNL     1       2.748   1.962  18.789  0.00  0.00    +0.000 C 
ATOM     22  C   UNL     1       1.383   1.926  19.473  0.00  0.00    +0.000 C 
ATOM     23  C   UNL     1       0.861   3.341  19.736  0.00  0.00    +0.000 C 
ATOM     24  C   UNL     1       1.885   4.193  20.493  0.00  0.00    +0.000 C 
ENDBRANCH  17  19
ENDBRANCH  15  17
ENDBRANCH  14  15
ENDBRANCH   2  13
TORSDOF 7
ENDMDL
MODEL 3
REMARK VINA RESULT:      -6.7      5.820      9.424
REMARK  Name = 
REMARK  7 active torsions:
REMARK  status: ('A' for Active; 'I' for Inactive)
REMARK    1  A    between atoms: C_2  and  N_3
REMARK    2  A    between atoms: C_2  and  N_17
REMARK    3  A    between atoms: N_3  and  N_4
REMARK    4  A    between atoms: C_5  and  C_6
REMARK    5  A    between atoms: N_7  and  N_8
REMARK    6  A    between atoms: N_8  and  C_9
REMARK    7  A    between atoms: C_9  and  N_11
REMARK                            x       y       z     vdW  Elec       q    Type
REMARK                         _______ _______ _______ _____ _____    ______ ____
ROOT
ATOM      1  N   UNL     1       2.159   8.914  17.558  0.00  0.00    +0.000 NA
ATOM      2  C   UNL     1       2.789   7.885  18.070  0.00  0.00    +0.000 C 
ENDROOT
BRANCH   1   3
ATOM      3  N   UNL     1       1.010   9.415  18.096  0.00  0.00    +0.000 N 
ATOM      4  H   UNL     1       0.119   9.250  17.626  0.00  0.00    +0.000 HD
BRANCH   3   6
ATOM      5  S   UNL     1       1.976  11.902  18.563  0.00  0.00    +0.000 S 
ATOM      6  C   UNL     1       1.055  10.540  18.927  0.00  0.00    +0.000 C 
BRANCH   6   7
ATOM      7  N   UNL     1       0.268  10.406  20.081  0.00  0.00    +0.000 N 
ATOM      8  C   UNL     1      -0.784  11.369  20.433  0.00  0.00    +0.000 C 
ATOM      9  C   UNL     1      -0.675  11.759  21.902  0.00  0.00    +0.000 C 
ATOM     10  C   UNL     1      -0.656  10.528  22.812  0.00  0.00    +0.000 C 
ATOM     11  C   UNL     1       0.365   9.493  22.346  0.00  0.00    +0.000 C 
ATOM     12  C   UNL     1       0.196   9.164  20.864  0.00  0.00    +0.000 C 
ENDBRANCH   6   7
ENDBRANCH   3   6
ENDBRANCH   1   3
BRANCH   2  13
ATOM     13  C   UNL     1       2.401   7.098  19.272  0.00  0.00    +0.000 C 
ATOM     14  N   UNL     1       2.998   6.047  19.751  0.00  0.00    +0.000 NA
BRANCH  14  15
ATOM     15  N   UNL     1       4.067   5.466  19.126  0.00  0.00    +0.000 N 
ATOM     16  H   UNL     1       4.897   6.014  18.939  0.00  0.00    +0.000 HD
BRANCH  15  17
ATOM     17  C   UNL     1       3.877   4.335  18.318  0.00  0.00    +0.000 C 
ATOM     18  S   UNL     1       4.447   4.207  16.739  0.00  0.00    +0.000 S 
BRANCH  17  19
ATOM     19  N   UNL     1       3.148   3.318  18.955  0.00  0.00    +0.000 N 
ATOM     20  C   UNL     1       1.747   3.023  18.651  0.00  0.00    +0.000 C 
ATOM     21  C   UNL     1       0.857   3.388  19.834  0.00  0.00    +0.000 C 
ATOM     22  C   UNL     1       1.331   2.680  21.103  0.00  0.00    +0.000 C 
ATOM     23  C   UNL     1       2.818   2.944  21.357  0.00  0.00    +0.000 C 
ATOM     24  C   UNL     1       3.673   2.606  20.132  0.00  0.00    +0.000 C 
ENDBRANCH  17  19
ENDBRANCH  15  17
ENDBRANCH  14  15
ENDBRANCH   2  13
TORSDOF 7
ENDMDL
MODEL 4
REMARK VINA RESULT:      -6.5      5.102      7.685
REMARK  Name = 
REMARK  7 active torsions:
REMARK  status: ('A' for Active; 'I' for Inactive)
REMARK    1  A    between atoms: C_2  and  N_3
REMARK    2  A    between atoms: C_2  and  N_17
REMARK    3  A    between atoms: N_3  and  N_4
REMARK    4  A    between atoms: C_5  and  C_6
REMARK    5  A    between atoms: N_7  and  N_8
REMARK    6  A    between atoms: N_8  and  C_9
REMARK    7  A    between atoms: C_9  and  N_11
REMARK                            x       y       z     vdW  Elec       q    Type
REMARK                         _______ _______ _______ _____ _____    ______ ____
ROOT
ATOM      1  N   UNL     1       2.303   6.159  19.098  0.00  0.00    +0.000 NA
ATOM      2  C   UNL     1       2.466   7.459  19.109  0.00  0.00    +0.000 C 
ENDROOT
BRANCH   1   3
ATOM      3  N   UNL     1       2.263   5.431  17.946  0.00  0.00    +0.000 N 
ATOM      4  H   UNL     1       1.394   5.378  17.413  0.00  0.00    +0.000 HD
BRANCH   3   6
ATOM      5  S   UNL     1       2.657   2.765  17.674  0.00  0.00    +0.000 S 
ATOM      6  C   UNL     1       3.157   4.372  17.751  0.00  0.00    +0.000 C 
BRANCH   6   7
ATOM      7  N   UNL     1       4.491   4.789  17.637  0.00  0.00    +0.000 N 
ATOM      8  C   UNL     1       5.552   4.286  18.520  0.00  0.00    +0.000 C 
ATOM      9  C   UNL     1       6.402   5.439  19.038  0.00  0.00    +0.000 C 
ATOM     10  C   UNL     1       6.931   6.308  17.895  0.00  0.00    +0.000 C 
ATOM     11  C   UNL     1       5.820   6.714  16.928  0.00  0.00    +0.000 C 
ATOM     12  C   UNL     1       5.011   5.505  16.463  0.00  0.00    +0.000 C 
ENDBRANCH   6   7
ENDBRANCH   3   6
ENDBRANCH   1   3
BRANCH   2  13
ATOM     13  C   UNL     1       2.630   8.356  17.933  0.00  0.00    +0.000 C 
ATOM     14  N   UNL     1       1.849   9.329  17.571  0.00  0.00    +0.000 NA
BRANCH  14  15
ATOM     15  N   UNL     1       0.680   9.609  18.224  0.00  0.00    +0.000 N 
ATOM     16  H   UNL     1      -0.203   9.335  17.813  0.00  0.00    +0.000 HD
BRANCH  15  17
ATOM     17  C   UNL     1       0.630  10.660  19.153  0.00  0.00    +0.000 C 
ATOM     18  S   UNL     1       1.555  12.061  19.031  0.00  0.00    +0.000 S 
BRANCH  17  19
ATOM     19  N   UNL     1      -0.265  10.422  20.209  0.00  0.00    +0.000 N 
ATOM     20  C   UNL     1      -1.124  11.458  20.785  0.00  0.00    +0.000 C 
ATOM     21  C   UNL     1      -0.684  11.784  22.207  0.00  0.00    +0.000 C 
ATOM     22  C   UNL     1      -0.655  10.520  23.065  0.00  0.00    +0.000 C 
ATOM     23  C   UNL     1       0.188   9.426  22.405  0.00  0.00    +0.000 C 
ATOM     24  C   UNL     1      -0.256   9.157  20.964  0.00  0.00    +0.000 C 
ENDBRANCH  17  19
ENDBRANCH  15  17
ENDBRANCH  14  15
ENDBRANCH   2  13
TORSDOF 7
ENDMDL
MODEL 5
REMARK VINA RESULT:      -6.5      4.443      7.865
REMARK  Name = 
REMARK  7 active torsions:
REMARK  status: ('A' for Active; 'I' for Inactive)
REMARK    1  A    between atoms: C_2  and  N_3
REMARK    2  A    between atoms: C_2  and  N_17
REMARK    3  A    between atoms: N_3  and  N_4
REMARK    4  A    between atoms: C_5  and  C_6
REMARK    5  A    between atoms: N_7  and  N_8
REMARK    6  A    between atoms: N_8  and  C_9
REMARK    7  A    between atoms: C_9  and  N_11
REMARK                            x       y       z     vdW  Elec       q    Type
REMARK                         _______ _______ _______ _____ _____    ______ ____
ROOT
ATOM      1  N   UNL     1       4.117   2.812  16.957  0.00  0.00    +0.000 NA
ATOM      2  C   UNL     1       3.617   1.864  17.712  0.00  0.00    +0.000 C 
ENDROOT
BRANCH   1   3
ATOM      3  N   UNL     1       5.177   3.578  17.343  0.00  0.00    +0.000 N 
ATOM      4  H   UNL     1       5.225   3.927  18.300  0.00  0.00    +0.000 HD
BRANCH   3   6
ATOM      5  S   UNL     1       5.615   4.180  14.738  0.00  0.00    +0.000 S 
ATOM      6  C   UNL     1       5.892   4.317  16.394  0.00  0.00    +0.000 C 
BRANCH   6   7
ATOM      7  N   UNL     1       6.854   5.164  16.964  0.00  0.00    +0.000 N 
ATOM      8  C   UNL     1       7.779   4.712  18.012  0.00  0.00    +0.000 C 
ATOM      9  C   UNL     1       7.830   5.727  19.147  0.00  0.00    +0.000 C 
ATOM     10  C   UNL     1       8.144   7.134  18.632  0.00  0.00    +0.000 C 
ATOM     11  C   UNL     1       7.244   7.525  17.463  0.00  0.00    +0.000 C 
ATOM     12  C   UNL     1       7.240   6.454  16.374  0.00  0.00    +0.000 C 
ENDBRANCH   6   7
ENDBRANCH   3   6
ENDBRANCH   1   3
BRANCH   2  13
ATOM     13  C   UNL     1       4.076   1.455  19.067  0.00  0.00    +0.000 C 
ATOM     14  N   UNL     1       4.051   2.166  20.154  0.00  0.00    +0.000 NA
BRANCH  14  15
ATOM     15  N   UNL     1       3.646   3.473  20.163  0.00  0.00    +0.000 N 
ATOM     16  H   UNL     1       4.331   4.210  20.267  0.00  0.00    +0.000 HD
BRANCH  15  17
ATOM     17  C   UNL     1       2.330   3.796  20.526  0.00  0.00    +0.000 C 
ATOM     18  S   UNL     1       1.438   2.940  21.669  0.00  0.00    +0.000 S 
BRANCH  17  19
ATOM     19  N   UNL     1       1.820   4.902  19.826  0.00  0.00    +0.000 N 
ATOM     20  C   UNL     1       1.976   5.081  18.382  0.00  0.00    +0.000 C 
ATOM     21  C   UNL     1       2.904   6.254  18.088  0.00  0.00    +0.000 C 
ATOM     22  C   UNL     1       2.400   7.524  18.773  0.00  0.00    +0.000 C 
ATOM     23  C   UNL     1       2.174   7.289  20.269  0.00  0.00    +0.000 C 
ATOM     24  C   UNL     1       1.273   6.077  20.524  0.00  0.00    +0.000 C 
ENDBRANCH  17  19
ENDBRANCH  15  17
ENDBRANCH  14  15
ENDBRANCH   2  13
TORSDOF 7
ENDMDL
MODEL 6
REMARK VINA RESULT:      -6.5      5.887      9.262
REMARK  Name = 
REMARK  7 active torsions:
REMARK  status: ('A' for Active; 'I' for Inactive)
REMARK    1  A    between atoms: C_2  and  N_3
REMARK    2  A    between atoms: C_2  and  N_17
REMARK    3  A    between atoms: N_3  and  N_4
REMARK    4  A    between atoms: C_5  and  C_6
REMARK    5  A    between atoms: N_7  and  N_8
REMARK    6  A    between atoms: N_8  and  C_9
REMARK    7  A    between atoms: C_9  and  N_11
REMARK                            x       y       z     vdW  Elec       q    Type
REMARK                         _______ _______ _______ _____ _____    ______ ____
ROOT
ATOM      1  N   UNL     1       1.599   9.436  17.697  0.00  0.00    +0.000 NA
ATOM      2  C   UNL     1       2.312   8.369  17.965  0.00  0.00    +0.000 C 
ENDROOT
BRANCH   1   3
ATOM      3  N   UNL     1       0.692   9.954  18.573  0.00  0.00    +0.000 N 
ATOM      4  H   UNL     1      -0.306   9.810  18.410  0.00  0.00    +0.000 HD
BRANCH   3   6
ATOM      5  S   UNL     1       1.815  12.414  18.716  0.00  0.00    +0.000 S 
ATOM      6  C   UNL     1       1.022  11.070  19.349  0.00  0.00    +0.000 C 
BRANCH   6   7
ATOM      7  N   UNL     1       0.633  10.944  20.691  0.00  0.00    +0.000 N 
ATOM      8  C   UNL     1       1.036   9.804  21.524  0.00  0.00    +0.000 C 
ATOM      9  C   UNL     1      -0.164   9.253  22.284  0.00  0.00    +0.000 C 
ATOM     10  C   UNL     1      -0.885  10.350  23.072  0.00  0.00    +0.000 C 
ATOM     11  C   UNL     1      -1.181  11.571  22.205  0.00  0.00    +0.000 C 
ATOM     12  C   UNL     1       0.068  12.055  21.471  0.00  0.00    +0.000 C 
ENDBRANCH   6   7
ENDBRANCH   3   6
ENDBRANCH   1   3
BRANCH   2  13
ATOM     13  C   UNL     1       2.278   7.551  19.208  0.00  0.00    +0.000 C 
ATOM     14  N   UNL     1       2.871   6.415  19.419  0.00  0.00    +0.000 NA
BRANCH  14  15
ATOM     15  N   UNL     1       3.576   5.766  18.442  0.00  0.00    +0.000 N 
ATOM     16  H   UNL     1       3.176   5.665  17.518  0.00  0.00    +0.000 HD
BRANCH  15  17
ATOM     17  C   UNL     1       4.566   4.836  18.792  0.00  0.00    +0.000 C 
ATOM     18  S   UNL     1       6.187   5.234  19.012  0.00  0.00    +0.000 S 
BRANCH  17  19
ATOM     19  N   UNL     1       4.072   3.529  18.929  0.00  0.00    +0.000 N 
ATOM     20  C   UNL     1       3.768   2.661  17.790  0.00  0.00    +0.000 C 
ATOM     21  C   UNL     1       2.265   2.429  17.684  0.00  0.00    +0.000 C 
ATOM     22  C   UNL     1       1.712   1.871  18.994  0.00  0.00    +0.000 C 
ATOM     23  C   UNL     1       2.107   2.757  20.179  0.00  0.00    +0.000 C 
ATOM     24  C   UNL     1       3.618   3.001  20.227  0.00  0.00    +0.000 C 
ENDBRANCH  17  19
ENDBRANCH  15  17
ENDBRANCH  14  15
ENDBRANCH   2  13
TORSDOF 7
ENDMDL
MODEL 7
REMARK VINA RESULT:      -6.5      6.053      7.408
REMARK  Name = 
REMARK  7 active torsions:
REMARK  status: ('A' for Active; 'I' for Inactive)
REMARK    1  A    between atoms: C_2  and  N_3
REMARK    2  A    between atoms: C_2  and  N_17
REMARK    3  A    between atoms: N_3  and  N_4
REMARK    4  A    between atoms: C_5  and  C_6
REMARK    5  A    between atoms: N_7  and  N_8
REMARK    6  A    between atoms: N_8  and  C_9
REMARK    7  A    between atoms: C_9  and  N_11
REMARK                            x       y       z     vdW  Elec       q    Type
REMARK                         _______ _______ _______ _____ _____    ______ ____
ROOT
ATOM      1  N   UNL     1       3.286   6.407  18.857  0.00  0.00    +0.000 NA
ATOM      2  C   UNL     1       2.469   7.431  18.825  0.00  0.00    +0.000 C 
ENDROOT
BRANCH   1   3
ATOM      3  N   UNL     1       3.915   5.932  17.744  0.00  0.00    +0.000 N 
ATOM      4  H   UNL     1       3.869   6.462  16.873  0.00  0.00    +0.000 HD
BRANCH   3   6
ATOM      5  S   UNL     1       5.325   3.947  16.557  0.00  0.00    +0.000 S 
ATOM      6  C   UNL     1       4.157   4.561  17.604  0.00  0.00    +0.000 C 
BRANCH   6   7
ATOM      7  N   UNL     1       3.328   3.769  18.413  0.00  0.00    +0.000 N 
ATOM      8  C   UNL     1       1.979   3.362  17.999  0.00  0.00    +0.000 C 
ATOM      9  C   UNL     1       0.985   3.592  19.130  0.00  0.00    +0.000 C 
ATOM     10  C   UNL     1       1.444   2.924  20.429  0.00  0.00    +0.000 C 
ATOM     11  C   UNL     1       2.892   3.272  20.766  0.00  0.00    +0.000 C 
ATOM     12  C   UNL     1       3.821   3.022  19.580  0.00  0.00    +0.000 C 
ENDBRANCH   6   7
ENDBRANCH   3   6
ENDBRANCH   1   3
BRANCH   2  13
ATOM     13  C   UNL     1       2.082   8.239  17.636  0.00  0.00    +0.000 C 
ATOM     14  N   UNL     1       1.772   9.500  17.609  0.00  0.00    +0.000 NA
BRANCH  14  15
ATOM     15  N   UNL     1       1.689  10.257  18.745  0.00  0.00    +0.000 N 
ATOM     16  H   UNL     1       2.494  10.342  19.352  0.00  0.00    +0.000 HD
BRANCH  15  17
ATOM     17  C   UNL     1       0.440  10.494  19.339  0.00  0.00    +0.000 C 
ATOM     18  S   UNL     1      -0.999  10.618  18.473  0.00  0.00    +0.000 S 
BRANCH  17  19
ATOM     19  N   UNL     1       0.509  10.633  20.735  0.00  0.00    +0.000 N 
ATOM     20  C   UNL     1       0.836   9.528  21.637  0.00  0.00    +0.000 C 
ATOM     21  C   UNL     1      -0.379   9.148  22.475  0.00  0.00    +0.000 C 
ATOM     22  C   UNL     1      -0.917  10.364  23.227  0.00  0.00    +0.000 C 
ATOM     23  C   UNL     1      -1.180  11.531  22.271  0.00  0.00    +0.000 C 
ATOM     24  C   UNL     1       0.050  11.855  21.418  0.00  0.00    +0.000 C 
ENDBRANCH  17  19
ENDBRANCH  15  17
ENDBRANCH  14  15
ENDBRANCH   2  13
TORSDOF 7
ENDMDL
MODEL 8
REMARK VINA RESULT:      -6.4      0.951      9.502
REMARK  Name = 
REMARK  7 active torsions:
REMARK  status: ('A' for Active; 'I' for Inactive)
REMARK    1  A    between atoms: C_2  and  N_3
REMARK    2  A    between atoms: C_2  and  N_17
REMARK    3  A    between atoms: N_3  and  N_4
REMARK    4  A    between atoms: C_5  and  C_6
REMARK    5  A    between atoms: N_7  and  N_8
REMARK    6  A    between atoms: N_8  and  C_9
REMARK    7  A    between atoms: C_9  and  N_11
REMARK                            x       y       z     vdW  Elec       q    Type
REMARK                         _______ _______ _______ _____ _____    ______ ____
ROOT
ATOM      1  N   UNL     1       8.214   9.836  18.015  0.00  0.00    +0.000 NA
ATOM      2  C   UNL     1       7.701   8.687  17.649  0.00  0.00    +0.000 C 
ENDROOT
BRANCH   1   3
ATOM      3  N   UNL     1       9.151   9.945  18.999  0.00  0.00    +0.000 N 
ATOM      4  H   UNL     1       9.309   9.161  19.634  0.00  0.00    +0.000 HD
BRANCH   3   6
ATOM      5  S   UNL     1       9.414  11.597  21.130  0.00  0.00    +0.000 S 
ATOM      6  C   UNL     1       9.509  11.204  19.494  0.00  0.00    +0.000 C 
BRANCH   6   7
ATOM      7  N   UNL     1       9.939  12.088  18.494  0.00  0.00    +0.000 N 
ATOM      8  C   UNL     1      11.116  11.819  17.658  0.00  0.00    +0.000 C 
ATOM      9  C   UNL     1      12.003  13.055  17.577  0.00  0.00    +0.000 C 
ATOM     10  C   UNL     1      11.214  14.287  17.126  0.00  0.00    +0.000 C 
ATOM     11  C   UNL     1       9.933  14.468  17.938  0.00  0.00    +0.000 C 
ATOM     12  C   UNL     1       9.106  13.185  17.978  0.00  0.00    +0.000 C 
ENDBRANCH   6   7
ENDBRANCH   3   6
ENDBRANCH   1   3
BRANCH   2  13
ATOM     13  C   UNL     1       8.017   7.343  18.203  0.00  0.00    +0.000 C 
ATOM     14  N   UNL     1       7.689   6.189  17.704  0.00  0.00    +0.000 NA
BRANCH  14  15
ATOM     15  N   UNL     1       6.907   6.072  16.588  0.00  0.00    +0.000 N 
ATOM     16  H   UNL     1       6.766   6.874  15.987  0.00  0.00    +0.000 HD
BRANCH  15  17
ATOM     17  C   UNL     1       5.928   5.069  16.520  0.00  0.00    +0.000 C 
ATOM     18  S   UNL     1       5.735   4.036  15.204  0.00  0.00    +0.000 S 
BRANCH  17  19
ATOM     19  N   UNL     1       5.109   5.019  17.661  0.00  0.00    +0.000 N 
ATOM     20  C   UNL     1       5.031   3.853  18.543  0.00  0.00    +0.000 C 
ATOM     21  C   UNL     1       3.661   3.195  18.435  0.00  0.00    +0.000 C 
ATOM     22  C   UNL     1       2.553   4.207  18.721  0.00  0.00    +0.000 C 
ATOM     23  C   UNL     1       2.700   5.449  17.838  0.00  0.00    +0.000 C 
ATOM     24  C   UNL     1       4.103   6.056  17.941  0.00  0.00    +0.000 C 
ENDBRANCH  17  19
ENDBRANCH  15  17
ENDBRANCH  14  15
ENDBRANCH   2  13
TORSDOF 7
ENDMDL
MODEL 9
REMARK VINA RESULT:      -6.3      1.056      1.358
REMARK  Name = 
REMARK  7 active torsions:
REMARK  status: ('A' for Active; 'I' for Inactive)
REMARK    1  A    between atoms: C_2  and  N_3
REMARK    2  A    between atoms: C_2  and  N_17
REMARK    3  A    between atoms: N_3  and  N_4
REMARK    4  A    between atoms: C_5  and  C_6
REMARK    5  A    between atoms: N_7  and  N_8
REMARK    6  A    between atoms: N_8  and  C_9
REMARK    7  A    between atoms: C_9  and  N_11
REMARK                            x       y       z     vdW  Elec       q    Type
REMARK                         _______ _______ _______ _____ _____    ______ ____
ROOT
ATOM      1  N   UNL     1       6.385   7.239  16.952  0.00  0.00    +0.000 NA
ATOM      2  C   UNL     1       7.336   8.043  17.361  0.00  0.00    +0.000 C 
ENDROOT
BRANCH   1   3
ATOM      3  N   UNL     1       6.146   6.027  17.529  0.00  0.00    +0.000 N 
ATOM      4  H   UNL     1       6.774   5.682  18.255  0.00  0.00    +0.000 HD
BRANCH   3   6
ATOM      5  S   UNL     1       5.897   4.481  15.319  0.00  0.00    +0.000 S 
ATOM      6  C   UNL     1       5.428   5.047  16.835  0.00  0.00    +0.000 C 
BRANCH   6   7
ATOM      7  N   UNL     1       4.292   4.601  17.526  0.00  0.00    +0.000 N 
ATOM      8  C   UNL     1       4.049   3.181  17.809  0.00  0.00    +0.000 C 
ATOM      9  C   UNL     1       2.613   2.809  17.460  0.00  0.00    +0.000 C 
ATOM     10  C   UNL     1       1.607   3.740  18.142  0.00  0.00    +0.000 C 
ATOM     11  C   UNL     1       1.959   5.211  17.928  0.00  0.00    +0.000 C 
ATOM     12  C   UNL     1       3.414   5.499  18.291  0.00  0.00    +0.000 C 
ENDBRANCH   6   7
ENDBRANCH   3   6
ENDBRANCH   1   3
BRANCH   2  13
ATOM     13  C   UNL     1       8.296   7.810  18.474  0.00  0.00    +0.000 C 
ATOM     14  N   UNL     1       8.968   8.704  19.133  0.00  0.00    +0.000 NA
BRANCH  14  15
ATOM     15  N   UNL     1       8.926  10.034  18.812  0.00  0.00    +0.000 N 
ATOM     16  H   UNL     1       8.707  10.315  17.865  0.00  0.00    +0.000 HD
BRANCH  15  17
ATOM     17  C   UNL     1       9.637  10.964  19.585  0.00  0.00    +0.000 C 
ATOM     18  S   UNL     1       9.133  11.505  21.098  0.00  0.00    +0.000 S 
BRANCH  17  19
ATOM     19  N   UNL     1      10.813  11.415  18.962  0.00  0.00    +0.000 N 
ATOM     20  C   UNL     1      11.992  11.867  19.702  0.00  0.00    +0.000 C 
ATOM     21  C   UNL     1      12.195  13.366  19.514  0.00  0.00    +0.000 C 
ATOM     22  C   UNL     1      12.280  13.717  18.030  0.00  0.00    +0.000 C 
ATOM     23  C   UNL     1      11.072  13.168  17.265  0.00  0.00    +0.000 C 
ATOM     24  C   UNL     1      10.876  11.669  17.513  0.00  0.00    +0.000 C 
ENDBRANCH  17  19
ENDBRANCH  15  17
ENDBRANCH  14  15
ENDBRANCH   2  13
TORSDOF 7
ENDMDL
