MODEL 1
REMARK VINA RESULT:      -8.0      0.000      0.000
REMARK  Name = 
REMARK  7 active torsions:
REMARK  status: ('A' for Active; 'I' for Inactive)
REMARK    1  A    between atoms: C_1  and  N_2
REMARK    2  A    between atoms: C_4  and  C_5
REMARK    3  A    between atoms: N_6  and  N_7
REMARK    4  A    between atoms: C_8  and  C_10
REMARK    5  A    between atoms: C_13  and  O_14
REMARK    6  A    between atoms: C_17  and  C_18
REMARK    7  A    between atoms: C_17  and  C_19
REMARK                            x       y       z     vdW  Elec       q    Type
REMARK                         _______ _______ _______ _____ _____    ______ ____
ROOT
ATOM      1  C   UNL     1       1.562   8.670  17.905  0.00  0.00    +0.000 C 
ATOM      2  N   UNL     1       2.808   8.322  17.965  0.00  0.00    +0.000 NA
ENDROOT
BRANCH   1   6
ATOM      3  C   UNL     1       0.817   8.769  20.991  0.00  0.00    +0.000 C 
ATOM      4  N   UNL     1       0.200   9.926  20.371  0.00  0.00    +0.000 N 
ATOM      5  C   UNL     1       0.445  10.531  19.127  0.00  0.00    +0.000 C 
ATOM      6  C   UNL     1       1.096  10.067  18.043  0.00  0.00    +0.000 C 
ATOM      7  C   UNL     1      -0.203  11.969  19.154  0.00  0.00    +0.000 C 
ATOM      8  C   UNL     1      -1.370  12.078  18.160  0.00  0.00    +0.000 C 
ATOM      9  C   UNL     1       0.810  13.099  18.919  0.00  0.00    +0.000 C 
ATOM     10  C   UNL     1      -0.746  12.030  20.575  0.00  0.00    +0.000 A 
ATOM     11  C   UNL     1      -1.401  13.069  21.228  0.00  0.00    +0.000 A 
ATOM     12  C   UNL     1      -1.791  12.880  22.555  0.00  0.00    +0.000 A 
ATOM     13  C   UNL     1      -1.530  11.668  23.206  0.00  0.00    +0.000 A 
ATOM     14  C   UNL     1      -0.879  10.628  22.538  0.00  0.00    +0.000 A 
ATOM     15  C   UNL     1      -0.481  10.814  21.221  0.00  0.00    +0.000 A 
ENDBRANCH   1   6
BRANCH   2  16
ATOM     16  N   UNL     1       3.039   6.968  17.880  0.00  0.00    +0.000 N 
ATOM     17  C   UNL     1       2.853   6.157  18.993  0.00  0.00    +0.000 C 
ATOM     18  O   UNL     1       2.510   6.550  20.104  0.00  0.00    +0.000 OA
ATOM     19  H   UNL     1       3.173   6.559  16.965  0.00  0.00    +0.000 HD
BRANCH  17  20
ATOM     20  C   UNL     1       3.069   4.690  18.782  0.00  0.00    +0.000 A 
ATOM     21  C   UNL     1       2.373   3.949  17.814  0.00  0.00    +0.000 A 
ATOM     22  C   UNL     1       2.645   2.586  17.637  0.00  0.00    +0.000 A 
ATOM     23  C   UNL     1       3.611   1.966  18.425  0.00  0.00    +0.000 A 
ATOM     24  C   UNL     1       4.310   2.686  19.386  0.00  0.00    +0.000 A 
ATOM     25  C   UNL     1       4.043   4.046  19.562  0.00  0.00    +0.000 A 
BRANCH  23  26
ATOM     26  O   UNL     1       3.914   0.646  18.278  0.00  0.00    +0.000 OA
ATOM     27  H   UNL     1       4.844   0.503  18.517  0.00  0.00    +0.000 HD
ENDBRANCH  23  26
ENDBRANCH  17  20
ENDBRANCH   2  16
TORSDOF 4
ENDMDL
MODEL 2
REMARK VINA RESULT:      -7.9      7.405      8.684
REMARK  Name = 
REMARK  7 active torsions:
REMARK  status: ('A' for Active; 'I' for Inactive)
REMARK    1  A    between atoms: C_1  and  N_2
REMARK    2  A    between atoms: C_4  and  C_5
REMARK    3  A    between atoms: N_6  and  N_7
REMARK    4  A    between atoms: C_8  and  C_10
REMARK    5  A    between atoms: C_13  and  O_14
REMARK    6  A    between atoms: C_17  and  C_18
REMARK    7  A    between atoms: C_17  and  C_19
REMARK                            x       y       z     vdW  Elec       q    Type
REMARK                         _______ _______ _______ _____ _____    ______ ____
ROOT
ATOM      1  C   UNL     1       8.864  10.114  18.439  0.00  0.00    +0.000 C 
ATOM      2  N   UNL     1       8.659   8.874  18.751  0.00  0.00    +0.000 NA
ENDROOT
BRANCH   1   6
ATOM      3  C   UNL     1       7.653  12.830  17.325  0.00  0.00    +0.000 C 
ATOM      4  N   UNL     1       8.772  13.186  18.178  0.00  0.00    +0.000 N 
ATOM      5  C   UNL     1       9.457  12.428  19.142  0.00  0.00    +0.000 C 
ATOM      6  C   UNL     1       9.478  11.098  19.356  0.00  0.00    +0.000 C 
ATOM      7  C   UNL     1      10.287  13.426  20.040  0.00  0.00    +0.000 C 
ATOM      8  C   UNL     1      11.799  13.220  19.858  0.00  0.00    +0.000 C 
ATOM      9  C   UNL     1       9.912  13.364  21.527  0.00  0.00    +0.000 C 
ATOM     10  C   UNL     1       9.889  14.770  19.446  0.00  0.00    +0.000 A 
ATOM     11  C   UNL     1      10.260  16.053  19.833  0.00  0.00    +0.000 A 
ATOM     12  C   UNL     1       9.738  17.139  19.127  0.00  0.00    +0.000 A 
ATOM     13  C   UNL     1       8.865  16.933  18.052  0.00  0.00    +0.000 A 
ATOM     14  C   UNL     1       8.504  15.639  17.668  0.00  0.00    +0.000 A 
ATOM     15  C   UNL     1       9.013  14.557  18.371  0.00  0.00    +0.000 A 
ENDBRANCH   1   6
BRANCH   2  16
ATOM     16  N   UNL     1       8.018   8.129  17.788  0.00  0.00    +0.000 N 
ATOM     17  C   UNL     1       7.696   6.799  18.035  0.00  0.00    +0.000 C 
ATOM     18  O   UNL     1       7.961   6.188  19.065  0.00  0.00    +0.000 OA
ATOM     19  H   UNL     1       7.636   8.607  16.983  0.00  0.00    +0.000 HD
BRANCH  17  20
ATOM     20  C   UNL     1       6.943   6.093  16.950  0.00  0.00    +0.000 A 
ATOM     21  C   UNL     1       5.812   6.642  16.325  0.00  0.00    +0.000 A 
ATOM     22  C   UNL     1       5.170   5.950  15.289  0.00  0.00    +0.000 A 
ATOM     23  C   UNL     1       5.659   4.712  14.879  0.00  0.00    +0.000 A 
ATOM     24  C   UNL     1       6.779   4.156  15.486  0.00  0.00    +0.000 A 
ATOM     25  C   UNL     1       7.422   4.846  16.516  0.00  0.00    +0.000 A 
BRANCH  23  26
ATOM     26  O   UNL     1       5.072   4.012  13.869  0.00  0.00    +0.000 OA
ATOM     27  H   UNL     1       4.647   3.219  14.234  0.00  0.00    +0.000 HD
ENDBRANCH  23  26
ENDBRANCH  17  20
ENDBRANCH   2  16
TORSDOF 4
ENDMDL
MODEL 3
REMARK VINA RESULT:      -7.9      2.861      9.169
REMARK  Name = 
REMARK  7 active torsions:
REMARK  status: ('A' for Active; 'I' for Inactive)
REMARK    1  A    between atoms: C_1  and  N_2
REMARK    2  A    between atoms: C_4  and  C_5
REMARK    3  A    between atoms: N_6  and  N_7
REMARK    4  A    between atoms: C_8  and  C_10
REMARK    5  A    between atoms: C_13  and  O_14
REMARK    6  A    between atoms: C_17  and  C_18
REMARK    7  A    between atoms: C_17  and  C_19
REMARK                            x       y       z     vdW  Elec       q    Type
REMARK                         _______ _______ _______ _____ _____    ______ ____
ROOT
ATOM      1  C   UNL     1       1.388   6.391  20.121  0.00  0.00    +0.000 C 
ATOM      2  N   UNL     1       1.758   7.391  20.855  0.00  0.00    +0.000 NA
ENDROOT
BRANCH   1   6
ATOM      3  C   UNL     1       3.295   7.585  17.880  0.00  0.00    +0.000 C 
ATOM      4  N   UNL     1       3.439   6.142  17.831  0.00  0.00    +0.000 N 
ATOM      5  C   UNL     1       3.078   5.159  18.768  0.00  0.00    +0.000 C 
ATOM      6  C   UNL     1       2.251   5.226  19.831  0.00  0.00    +0.000 C 
ATOM      7  C   UNL     1       3.835   3.828  18.388  0.00  0.00    +0.000 C 
ATOM      8  C   UNL     1       2.853   2.732  17.945  0.00  0.00    +0.000 C 
ATOM      9  C   UNL     1       4.752   3.308  19.503  0.00  0.00    +0.000 C 
ATOM     10  C   UNL     1       4.657   4.280  17.189  0.00  0.00    +0.000 A 
ATOM     11  C   UNL     1       5.571   3.564  16.423  0.00  0.00    +0.000 A 
ATOM     12  C   UNL     1       6.216   4.218  15.372  0.00  0.00    +0.000 A 
ATOM     13  C   UNL     1       5.940   5.564  15.097  0.00  0.00    +0.000 A 
ATOM     14  C   UNL     1       5.015   6.271  15.869  0.00  0.00    +0.000 A 
ATOM     15  C   UNL     1       4.377   5.627  16.920  0.00  0.00    +0.000 A 
ENDBRANCH   1   6
BRANCH   2  16
ATOM     16  N   UNL     1       0.840   8.411  20.958  0.00  0.00    +0.000 N 
ATOM     17  C   UNL     1       0.950   9.348  21.978  0.00  0.00    +0.000 C 
ATOM     18  O   UNL     1       1.811   9.344  22.852  0.00  0.00    +0.000 OA
ATOM     19  H   UNL     1       0.201   8.563  20.190  0.00  0.00    +0.000 HD
BRANCH  17  20
ATOM     20  C   UNL     1      -0.060  10.454  21.967  0.00  0.00    +0.000 A 
ATOM     21  C   UNL     1      -0.243  11.308  20.868  0.00  0.00    +0.000 A 
ATOM     22  C   UNL     1      -1.231  12.302  20.901  0.00  0.00    +0.000 A 
ATOM     23  C   UNL     1      -2.034  12.440  22.029  0.00  0.00    +0.000 A 
ATOM     24  C   UNL     1      -1.868  11.600  23.125  0.00  0.00    +0.000 A 
ATOM     25  C   UNL     1      -0.886  10.607  23.092  0.00  0.00    +0.000 A 
BRANCH  23  26
ATOM     26  O   UNL     1      -3.013  13.385  22.099  0.00  0.00    +0.000 OA
ATOM     27  H   UNL     1      -2.821  14.092  21.461  0.00  0.00    +0.000 HD
ENDBRANCH  23  26
ENDBRANCH  17  20
ENDBRANCH   2  16
TORSDOF 4
ENDMDL
MODEL 4
REMARK VINA RESULT:      -7.6      1.000      1.010
REMARK  Name = 
REMARK  7 active torsions:
REMARK  status: ('A' for Active; 'I' for Inactive)
REMARK    1  A    between atoms: C_1  and  N_2
REMARK    2  A    between atoms: C_4  and  C_5
REMARK    3  A    between atoms: N_6  and  N_7
REMARK    4  A    between atoms: C_8  and  C_10
REMARK    5  A    between atoms: C_13  and  O_14
REMARK    6  A    between atoms: C_17  and  C_18
REMARK    7  A    between atoms: C_17  and  C_19
REMARK                            x       y       z     vdW  Elec       q    Type
REMARK                         _______ _______ _______ _____ _____    ______ ____
ROOT
ATOM      1  C   UNL     1       1.463   8.890  18.387  0.00  0.00    +0.000 C 
ATOM      2  N   UNL     1       2.535   8.328  17.926  0.00  0.00    +0.000 NA
ENDROOT
BRANCH   1   6
ATOM      3  C   UNL     1       0.480   9.275  21.382  0.00  0.00    +0.000 C 
ATOM      4  N   UNL     1       0.152  10.496  20.670  0.00  0.00    +0.000 N 
ATOM      5  C   UNL     1       0.617  10.984  19.437  0.00  0.00    +0.000 C 
ATOM      6  C   UNL     1       1.262  10.354  18.435  0.00  0.00    +0.000 C 
ATOM      7  C   UNL     1       0.257  12.517  19.357  0.00  0.00    +0.000 C 
ATOM      8  C   UNL     1      -0.775  12.794  18.252  0.00  0.00    +0.000 C 
ATOM      9  C   UNL     1       1.483  13.424  19.185  0.00  0.00    +0.000 C 
ATOM     10  C   UNL     1      -0.390  12.748  20.716  0.00  0.00    +0.000 A 
ATOM     11  C   UNL     1      -0.889  13.922  21.271  0.00  0.00    +0.000 A 
ATOM     12  C   UNL     1      -1.424  13.874  22.560  0.00  0.00    +0.000 A 
ATOM     13  C   UNL     1      -1.459  12.667  23.270  0.00  0.00    +0.000 A 
ATOM     14  C   UNL     1      -0.961  11.493  22.700  0.00  0.00    +0.000 A 
ATOM     15  C   UNL     1      -0.420  11.536  21.422  0.00  0.00    +0.000 A 
ENDBRANCH   1   6
BRANCH   2  16
ATOM     16  N   UNL     1       2.563   6.956  18.024  0.00  0.00    +0.000 N 
ATOM     17  C   UNL     1       3.762   6.270  17.871  0.00  0.00    +0.000 C 
ATOM     18  O   UNL     1       4.846   6.789  17.623  0.00  0.00    +0.000 OA
ATOM     19  H   UNL     1       1.742   6.481  18.376  0.00  0.00    +0.000 HD
BRANCH  17  20
ATOM     20  C   UNL     1       3.699   4.786  18.059  0.00  0.00    +0.000 A 
ATOM     21  C   UNL     1       2.810   3.965  17.348  0.00  0.00    +0.000 A 
ATOM     22  C   UNL     1       2.823   2.576  17.538  0.00  0.00    +0.000 A 
ATOM     23  C   UNL     1       3.724   2.011  18.436  0.00  0.00    +0.000 A 
ATOM     24  C   UNL     1       4.613   2.810  19.146  0.00  0.00    +0.000 A 
ATOM     25  C   UNL     1       4.603   4.194  18.955  0.00  0.00    +0.000 A 
BRANCH  23  26
ATOM     26  O   UNL     1       3.777   0.666  18.643  0.00  0.00    +0.000 OA
ATOM     27  H   UNL     1       4.323   0.257  17.952  0.00  0.00    +0.000 HD
ENDBRANCH  23  26
ENDBRANCH  17  20
ENDBRANCH   2  16
TORSDOF 4
ENDMDL
MODEL 5
REMARK VINA RESULT:      -7.6      2.373      3.500
REMARK  Name = 
REMARK  7 active torsions:
REMARK  status: ('A' for Active; 'I' for Inactive)
REMARK    1  A    between atoms: C_1  and  N_2
REMARK    2  A    between atoms: C_4  and  C_5
REMARK    3  A    between atoms: N_6  and  N_7
REMARK    4  A    between atoms: C_8  and  C_10
REMARK    5  A    between atoms: C_13  and  O_14
REMARK    6  A    between atoms: C_17  and  C_18
REMARK    7  A    between atoms: C_17  and  C_19
REMARK                            x       y       z     vdW  Elec       q    Type
REMARK                         _______ _______ _______ _____ _____    ______ ____
ROOT
ATOM      1  C   UNL     1       1.543   9.197  18.965  0.00  0.00    +0.000 C 
ATOM      2  N   UNL     1       1.772   8.620  17.829  0.00  0.00    +0.000 NA
ENDROOT
BRANCH   1   6
ATOM      3  C   UNL     1       2.535  12.095  18.129  0.00  0.00    +0.000 C 
ATOM      4  N   UNL     1       1.329  12.273  18.915  0.00  0.00    +0.000 N 
ATOM      5  C   UNL     1       0.331  11.351  19.271  0.00  0.00    +0.000 C 
ATOM      6  C   UNL     1       0.335  10.003  19.243  0.00  0.00    +0.000 C 
ATOM      7  C   UNL     1      -0.928  12.166  19.760  0.00  0.00    +0.000 C 
ATOM      8  C   UNL     1      -1.201  11.936  21.255  0.00  0.00    +0.000 C 
ATOM      9  C   UNL     1      -2.193  11.889  18.936  0.00  0.00    +0.000 C 
ATOM     10  C   UNL     1      -0.460  13.600  19.550  0.00  0.00    +0.000 A 
ATOM     11  C   UNL     1      -1.143  14.793  19.762  0.00  0.00    +0.000 A 
ATOM     12  C   UNL     1      -0.490  15.993  19.474  0.00  0.00    +0.000 A 
ATOM     13  C   UNL     1       0.823  15.988  18.988  0.00  0.00    +0.000 A 
ATOM     14  C   UNL     1       1.502  14.784  18.786  0.00  0.00    +0.000 A 
ATOM     15  C   UNL     1       0.855  13.588  19.063  0.00  0.00    +0.000 A 
ENDBRANCH   1   6
BRANCH   2  16
ATOM     16  N   UNL     1       2.980   7.967  17.740  0.00  0.00    +0.000 N 
ATOM     17  C   UNL     1       3.050   6.596  17.958  0.00  0.00    +0.000 C 
ATOM     18  O   UNL     1       2.100   5.879  18.260  0.00  0.00    +0.000 OA
ATOM     19  H   UNL     1       3.769   8.463  17.348  0.00  0.00    +0.000 HD
BRANCH  17  20
ATOM     20  C   UNL     1       4.397   5.969  17.776  0.00  0.00    +0.000 A 
ATOM     21  C   UNL     1       5.155   5.464  18.844  0.00  0.00    +0.000 A 
ATOM     22  C   UNL     1       6.394   4.854  18.607  0.00  0.00    +0.000 A 
ATOM     23  C   UNL     1       6.873   4.746  17.305  0.00  0.00    +0.000 A 
ATOM     24  C   UNL     1       6.134   5.238  16.235  0.00  0.00    +0.000 A 
ATOM     25  C   UNL     1       4.897   5.844  16.469  0.00  0.00    +0.000 A 
BRANCH  23  26
ATOM     26  O   UNL     1       8.066   4.150  17.029  0.00  0.00    +0.000 OA
ATOM     27  H   UNL     1       8.049   3.235  17.352  0.00  0.00    +0.000 HD
ENDBRANCH  23  26
ENDBRANCH  17  20
ENDBRANCH   2  16
TORSDOF 4
ENDMDL
MODEL 6
REMARK VINA RESULT:      -7.6      1.990      2.179
REMARK  Name = 
REMARK  7 active torsions:
REMARK  status: ('A' for Active; 'I' for Inactive)
REMARK    1  A    between atoms: C_1  and  N_2
REMARK    2  A    between atoms: C_4  and  C_5
REMARK    3  A    between atoms: N_6  and  N_7
REMARK    4  A    between atoms: C_8  and  C_10
REMARK    5  A    between atoms: C_13  and  O_14
REMARK    6  A    between atoms: C_17  and  C_18
REMARK    7  A    between atoms: C_17  and  C_19
REMARK                            x       y       z     vdW  Elec       q    Type
REMARK                         _______ _______ _______ _____ _____    ______ ____
ROOT
ATOM      1  C   UNL     1       2.041  10.184  18.166  0.00  0.00    +0.000 C 
ATOM      2  N   UNL     1       1.896   9.021  17.616  0.00  0.00    +0.000 NA
ENDROOT
BRANCH   1   6
ATOM      3  C   UNL     1       1.326  10.039  21.257  0.00  0.00    +0.000 C 
ATOM      4  N   UNL     1       0.230  10.728  20.602  0.00  0.00    +0.000 N 
ATOM      5  C   UNL     1       0.159  11.324  19.332  0.00  0.00    +0.000 C 
ATOM      6  C   UNL     1       0.959  11.187  18.256  0.00  0.00    +0.000 C 
ATOM      7  C   UNL     1      -1.102  12.272  19.313  0.00  0.00    +0.000 C 
ATOM      8  C   UNL     1      -2.172  11.763  18.334  0.00  0.00    +0.000 C 
ATOM      9  C   UNL     1      -0.759  13.738  19.018  0.00  0.00    +0.000 C 
ATOM     10  C   UNL     1      -1.615  12.122  20.739  0.00  0.00    +0.000 A 
ATOM     11  C   UNL     1      -2.692  12.743  21.361  0.00  0.00    +0.000 A 
ATOM     12  C   UNL     1      -2.950  12.445  22.701  0.00  0.00    +0.000 A 
ATOM     13  C   UNL     1      -2.140  11.537  23.394  0.00  0.00    +0.000 A 
ATOM     14  C   UNL     1      -1.064  10.914  22.757  0.00  0.00    +0.000 A 
ATOM     15  C   UNL     1      -0.799  11.213  21.427  0.00  0.00    +0.000 A 
ENDBRANCH   1   6
BRANCH   2  16
ATOM     16  N   UNL     1       3.035   8.251  17.571  0.00  0.00    +0.000 N 
ATOM     17  C   UNL     1       3.040   6.979  18.133  0.00  0.00    +0.000 C 
ATOM     18  O   UNL     1       2.093   6.460  18.714  0.00  0.00    +0.000 OA
ATOM     19  H   UNL     1       3.798   8.552  16.978  0.00  0.00    +0.000 HD
BRANCH  17  20
ATOM     20  C   UNL     1       4.307   6.196  17.976  0.00  0.00    +0.000 A 
ATOM     21  C   UNL     1       5.070   6.207  16.798  0.00  0.00    +0.000 A 
ATOM     22  C   UNL     1       6.267   5.483  16.723  0.00  0.00    +0.000 A 
ATOM     23  C   UNL     1       6.702   4.752  17.825  0.00  0.00    +0.000 A 
ATOM     24  C   UNL     1       5.960   4.732  19.000  0.00  0.00    +0.000 A 
ATOM     25  C   UNL     1       4.767   5.456  19.077  0.00  0.00    +0.000 A 
BRANCH  23  26
ATOM     26  O   UNL     1       7.865   4.043  17.799  0.00  0.00    +0.000 OA
ATOM     27  H   UNL     1       7.767   3.246  18.344  0.00  0.00    +0.000 HD
ENDBRANCH  23  26
ENDBRANCH  17  20
ENDBRANCH   2  16
TORSDOF 4
ENDMDL
MODEL 7
REMARK VINA RESULT:      -7.6      7.385      8.394
REMARK  Name = 
REMARK  7 active torsions:
REMARK  status: ('A' for Active; 'I' for Inactive)
REMARK    1  A    between atoms: C_1  and  N_2
REMARK    2  A    between atoms: C_4  and  C_5
REMARK    3  A    between atoms: N_6  and  N_7
REMARK    4  A    between atoms: C_8  and  C_10
REMARK    5  A    between atoms: C_13  and  O_14
REMARK    6  A    between atoms: C_17  and  C_18
REMARK    7  A    between atoms: C_17  and  C_19
REMARK                            x       y       z     vdW  Elec       q    Type
REMARK                         _______ _______ _______ _____ _____    ______ ____
ROOT
ATOM      1  C   UNL     1       8.580   9.523  18.358  0.00  0.00    +0.000 C 
ATOM      2  N   UNL     1       8.270   8.625  17.478  0.00  0.00    +0.000 NA
ENDROOT
BRANCH   1   6
ATOM      3  C   UNL     1       8.569  11.004  21.167  0.00  0.00    +0.000 C 
ATOM      4  N   UNL     1       9.207  11.899  20.220  0.00  0.00    +0.000 N 
ATOM      5  C   UNL     1       9.741  11.646  18.946  0.00  0.00    +0.000 C 
ATOM      6  C   UNL     1       9.568  10.597  18.118  0.00  0.00    +0.000 C 
ATOM      7  C   UNL     1      10.665  12.865  18.558  0.00  0.00    +0.000 C 
ATOM      8  C   UNL     1      10.093  13.646  17.366  0.00  0.00    +0.000 C 
ATOM      9  C   UNL     1      12.122  12.464  18.288  0.00  0.00    +0.000 C 
ATOM     10  C   UNL     1      10.574  13.724  19.812  0.00  0.00    +0.000 A 
ATOM     11  C   UNL     1      11.205  14.928  20.107  0.00  0.00    +0.000 A 
ATOM     12  C   UNL     1      10.966  15.518  21.350  0.00  0.00    +0.000 A 
ATOM     13  C   UNL     1      10.105  14.909  22.271  0.00  0.00    +0.000 A 
ATOM     14  C   UNL     1       9.471  13.703  21.961  0.00  0.00    +0.000 A 
ATOM     15  C   UNL     1       9.712  13.108  20.731  0.00  0.00    +0.000 A 
ENDBRANCH   1   6
BRANCH   2  16
ATOM     16  N   UNL     1       7.378   7.670  17.908  0.00  0.00    +0.000 N 
ATOM     17  C   UNL     1       7.112   6.558  17.118  0.00  0.00    +0.000 C 
ATOM     18  O   UNL     1       7.599   6.344  16.012  0.00  0.00    +0.000 OA
ATOM     19  H   UNL     1       7.060   7.705  18.867  0.00  0.00    +0.000 HD
BRANCH  17  20
ATOM     20  C   UNL     1       6.176   5.545  17.702  0.00  0.00    +0.000 A 
ATOM     21  C   UNL     1       5.945   5.427  19.081  0.00  0.00    +0.000 A 
ATOM     22  C   UNL     1       5.028   4.484  19.567  0.00  0.00    +0.000 A 
ATOM     23  C   UNL     1       4.344   3.663  18.675  0.00  0.00    +0.000 A 
ATOM     24  C   UNL     1       4.560   3.769  17.306  0.00  0.00    +0.000 A 
ATOM     25  C   UNL     1       5.470   4.711  16.820  0.00  0.00    +0.000 A 
BRANCH  23  26
ATOM     26  O   UNL     1       3.437   2.742  19.104  0.00  0.00    +0.000 OA
ATOM     27  H   UNL     1       3.907   1.956  19.426  0.00  0.00    +0.000 HD
ENDBRANCH  23  26
ENDBRANCH  17  20
ENDBRANCH   2  16
TORSDOF 4
ENDMDL
MODEL 8
REMARK VINA RESULT:      -7.6      1.148      1.535
REMARK  Name = 
REMARK  7 active torsions:
REMARK  status: ('A' for Active; 'I' for Inactive)
REMARK    1  A    between atoms: C_1  and  N_2
REMARK    2  A    between atoms: C_4  and  C_5
REMARK    3  A    between atoms: N_6  and  N_7
REMARK    4  A    between atoms: C_8  and  C_10
REMARK    5  A    between atoms: C_13  and  O_14
REMARK    6  A    between atoms: C_17  and  C_18
REMARK    7  A    between atoms: C_17  and  C_19
REMARK                            x       y       z     vdW  Elec       q    Type
REMARK                         _______ _______ _______ _____ _____    ______ ____
ROOT
ATOM      1  C   UNL     1       1.583   9.122  18.521  0.00  0.00    +0.000 C 
ATOM      2  N   UNL     1       2.546   8.531  17.888  0.00  0.00    +0.000 NA
ENDROOT
BRANCH   1   6
ATOM      3  C   UNL     1       0.505   9.559  21.476  0.00  0.00    +0.000 C 
ATOM      4  N   UNL     1       0.216  10.774  20.737  0.00  0.00    +0.000 N 
ATOM      5  C   UNL     1       0.728  11.239  19.515  0.00  0.00    +0.000 C 
ATOM      6  C   UNL     1       1.398  10.589  18.543  0.00  0.00    +0.000 C 
ATOM      7  C   UNL     1       0.389  12.776  19.403  0.00  0.00    +0.000 C 
ATOM      8  C   UNL     1      -0.602  13.050  18.261  0.00  0.00    +0.000 C 
ATOM      9  C   UNL     1       1.631  13.666  19.261  0.00  0.00    +0.000 C 
ATOM     10  C   UNL     1      -0.299  13.032  20.737  0.00  0.00    +0.000 A 
ATOM     11  C   UNL     1      -0.802  14.219  21.259  0.00  0.00    +0.000 A 
ATOM     12  C   UNL     1      -1.381  14.194  22.530  0.00  0.00    +0.000 A 
ATOM     13  C   UNL     1      -1.454  12.998  23.254  0.00  0.00    +0.000 A 
ATOM     14  C   UNL     1      -0.951  11.810  22.716  0.00  0.00    +0.000 A 
ATOM     15  C   UNL     1      -0.368  11.831  21.457  0.00  0.00    +0.000 A 
ENDBRANCH   1   6
BRANCH   2  16
ATOM     16  N   UNL     1       2.589   7.163  18.037  0.00  0.00    +0.000 N 
ATOM     17  C   UNL     1       3.758   6.468  17.756  0.00  0.00    +0.000 C 
ATOM     18  O   UNL     1       4.799   6.972  17.346  0.00  0.00    +0.000 OA
ATOM     19  H   UNL     1       1.823   6.706  18.514  0.00  0.00    +0.000 HD
BRANCH  17  20
ATOM     20  C   UNL     1       3.723   4.992  18.011  0.00  0.00    +0.000 A 
ATOM     21  C   UNL     1       4.577   4.356  18.925  0.00  0.00    +0.000 A 
ATOM     22  C   UNL     1       4.472   2.976  19.150  0.00  0.00    +0.000 A 
ATOM     23  C   UNL     1       3.514   2.236  18.462  0.00  0.00    +0.000 A 
ATOM     24  C   UNL     1       2.659   2.852  17.555  0.00  0.00    +0.000 A 
ATOM     25  C   UNL     1       2.761   4.227  17.333  0.00  0.00    +0.000 A 
BRANCH  23  26
ATOM     26  O   UNL     1       3.371   0.896  18.658  0.00  0.00    +0.000 OA
ATOM     27  H   UNL     1       2.763   0.538  17.991  0.00  0.00    +0.000 HD
ENDBRANCH  23  26
ENDBRANCH  17  20
ENDBRANCH   2  16
TORSDOF 4
ENDMDL
MODEL 9
REMARK VINA RESULT:      -7.5      1.513      1.890
REMARK  Name = 
REMARK  7 active torsions:
REMARK  status: ('A' for Active; 'I' for Inactive)
REMARK    1  A    between atoms: C_1  and  N_2
REMARK    2  A    between atoms: C_4  and  C_5
REMARK    3  A    between atoms: N_6  and  N_7
REMARK    4  A    between atoms: C_8  and  C_10
REMARK    5  A    between atoms: C_13  and  O_14
REMARK    6  A    between atoms: C_17  and  C_18
REMARK    7  A    between atoms: C_17  and  C_19
REMARK                            x       y       z     vdW  Elec       q    Type
REMARK                         _______ _______ _______ _____ _____    ______ ____
ROOT
ATOM      1  C   UNL     1       1.401   9.690  18.507  0.00  0.00    +0.000 C 
ATOM      2  N   UNL     1       2.404   9.021  18.036  0.00  0.00    +0.000 NA
ENDROOT
BRANCH   1   6
ATOM      3  C   UNL     1       0.226  10.020  21.439  0.00  0.00    +0.000 C 
ATOM      4  N   UNL     1       0.124  11.317  20.795  0.00  0.00    +0.000 N 
ATOM      5  C   UNL     1       0.754  11.811  19.641  0.00  0.00    +0.000 C 
ATOM      6  C   UNL     1       1.392  11.162  18.647  0.00  0.00    +0.000 C 
ATOM      7  C   UNL     1       0.608  13.382  19.646  0.00  0.00    +0.000 C 
ATOM      8  C   UNL     1      -0.280  13.867  18.489  0.00  0.00    +0.000 C 
ATOM      9  C   UNL     1       1.953  14.120  19.635  0.00  0.00    +0.000 C 
ATOM     10  C   UNL     1      -0.116  13.614  20.965  0.00  0.00    +0.000 A 
ATOM     11  C   UNL     1      -0.501  14.809  21.565  0.00  0.00    +0.000 A 
ATOM     12  C   UNL     1      -1.145  14.755  22.802  0.00  0.00    +0.000 A 
ATOM     13  C   UNL     1      -1.400  13.523  23.417  0.00  0.00    +0.000 A 
ATOM     14  C   UNL     1      -1.015  12.329  22.802  0.00  0.00    +0.000 A 
ATOM     15  C   UNL     1      -0.367  12.377  21.576  0.00  0.00    +0.000 A 
ENDBRANCH   1   6
BRANCH   2  16
ATOM     16  N   UNL     1       2.249   7.654  18.043  0.00  0.00    +0.000 N 
ATOM     17  C   UNL     1       2.230   6.961  19.248  0.00  0.00    +0.000 C 
ATOM     18  O   UNL     1       2.368   7.467  20.357  0.00  0.00    +0.000 OA
ATOM     19  H   UNL     1       1.978   7.195  17.184  0.00  0.00    +0.000 HD
BRANCH  17  20
ATOM     20  C   UNL     1       1.991   5.485  19.153  0.00  0.00    +0.000 A 
ATOM     21  C   UNL     1       1.529   4.716  20.233  0.00  0.00    +0.000 A 
ATOM     22  C   UNL     1       1.289   3.345  20.073  0.00  0.00    +0.000 A 
ATOM     23  C   UNL     1       1.508   2.744  18.837  0.00  0.00    +0.000 A 
ATOM     24  C   UNL     1       1.964   3.492  17.757  0.00  0.00    +0.000 A 
ATOM     25  C   UNL     1       2.201   4.860  17.913  0.00  0.00    +0.000 A 
BRANCH  23  26
ATOM     26  O   UNL     1       1.277   1.417  18.636  0.00  0.00    +0.000 OA
ATOM     27  H   UNL     1       1.751   1.127  17.840  0.00  0.00    +0.000 HD
ENDBRANCH  23  26
ENDBRANCH  17  20
ENDBRANCH   2  16
TORSDOF 4
ENDMDL
