MODEL 1
REMARK VINA RESULT:      -7.6      0.000      0.000
REMARK  Name = 
REMARK  7 active torsions:
REMARK  status: ('A' for Active; 'I' for Inactive)
REMARK    1  A    between atoms: C_1  and  C_2
REMARK    2  A    between atoms: C_6  and  N_7
REMARK    3  A    between atoms: C_8  and  C_9
REMARK    4  A    between atoms: C_9  and  N_10
REMARK    5  A    between atoms: C_9  and  C_21
REMARK    6  A    between atoms: N_10  and  C_11
REMARK    7  A    between atoms: C_18  and  C_19
REMARK                            x       y       z     vdW  Elec       q    Type
REMARK                         _______ _______ _______ _____ _____    ______ ____
ROOT
ATOM      1  C   UNL     1      -2.050  12.329  19.325  0.00  0.00    +0.000 C 
ENDROOT
BRANCH   1   3
ATOM      2  N   UNL     1       0.208  12.825  20.425  0.00  0.00    +0.000 N 
ATOM      3  C   UNL     1      -0.774  13.205  19.502  0.00  0.00    +0.000 A 
ATOM      4  N   UNL     1      -0.707  14.329  18.854  0.00  0.00    +0.000 NA
ATOM      5  C   UNL     1       0.386  15.176  19.030  0.00  0.00    +0.000 A 
ATOM      6  C   UNL     1       0.414  16.357  18.282  0.00  0.00    +0.000 A 
ATOM      7  C   UNL     1       1.528  17.190  18.307  0.00  0.00    +0.000 A 
ATOM      8  C   UNL     1       2.631  16.835  19.078  0.00  0.00    +0.000 A 
ATOM      9  C   UNL     1       2.596  15.682  19.872  0.00  0.00    +0.000 A 
ATOM     10 CL   UNL     1       4.049  15.314  20.735  0.00  0.00    +0.000 Cl
ATOM     11  C   UNL     1       1.451  14.871  19.876  0.00  0.00    +0.000 A 
ATOM     12  C   UNL     1       1.268  13.691  20.743  0.00  0.00    +0.000 A 
ATOM     13  O   UNL     1       2.007  13.533  21.712  0.00  0.00    +0.000 OA
BRANCH   2  19
ATOM     14  C   UNL     1       1.160   7.979  21.200  0.00  0.00    +0.000 C 
ATOM     15  C   UNL     1       0.568   9.288  21.620  0.00  0.00    +0.000 A 
ATOM     16  C   UNL     1      -0.166   9.398  22.795  0.00  0.00    +0.000 A 
ATOM     17  N   UNL     1      -0.747  10.540  23.213  0.00  0.00    +0.000 NA
ATOM     18  C   UNL     1      -0.590  11.632  22.428  0.00  0.00    +0.000 A 
ATOM     19  C   UNL     1       0.107  11.637  21.220  0.00  0.00    +0.000 A 
ATOM     20  C   UNL     1       0.733  10.443  20.843  0.00  0.00    +0.000 A 
ENDBRANCH   2  19
ENDBRANCH   1   3
BRANCH   1  21
ATOM     21  C   UNL     1      -2.156  11.489  18.064  0.00  0.00    +0.000 C 
ATOM     22  C   UNL     1      -1.194  10.378  17.691  0.00  0.00    +0.000 C 
ATOM     23  C   UNL     1      -2.558  10.031  18.207  0.00  0.00    +0.000 C 
ENDBRANCH   1  21
BRANCH   1  24
ATOM     24  N   UNL     1      -3.273  13.128  19.569  0.00  0.00    +0.000 N 
ATOM     25  H   UNL     1      -3.689  13.411  18.686  0.00  0.00    +0.000 HD
BRANCH  24  26
ATOM     26  C   UNL     1      -4.234  12.715  20.509  0.00  0.00    +0.000 A 
ATOM     27  N   UNL     1      -3.973  12.837  21.820  0.00  0.00    +0.000 NA
ATOM     28  C   UNL     1      -4.943  12.564  22.699  0.00  0.00    +0.000 A 
ATOM     29  N   UNL     1      -4.618  12.584  24.041  0.00  0.00    +0.000 N 
ATOM     30  N   UNL     1      -6.181  12.206  22.376  0.00  0.00    +0.000 NA
ATOM     31  C   UNL     1      -6.451  12.086  21.072  0.00  0.00    +0.000 A 
ATOM     32  N   UNL     1      -7.784  11.798  20.773  0.00  0.00    +0.000 N 
ATOM     33  C   UNL     1      -5.494  12.301  20.091  0.00  0.00    +0.000 A 
ATOM     34  H   UNL     1      -3.623  12.434  24.145  0.00  0.00    +0.000 HD
ATOM     35  H   UNL     1      -5.238  11.971  24.555  0.00  0.00    +0.000 HD
ATOM     36  H   UNL     1      -8.287  11.655  21.645  0.00  0.00    +0.000 HD
ATOM     37  H   UNL     1      -7.916  11.037  20.117  0.00  0.00    +0.000 HD
BRANCH  33  38
ATOM     38  C   UNL     1      -5.767  11.996  18.731  0.00  0.00    +0.000 C 
ATOM     39  N   UNL     1      -6.070  11.683  17.649  0.00  0.00    +0.000 NA
ENDBRANCH  33  38
ENDBRANCH  24  26
ENDBRANCH   1  24
TORSDOF 6
ENDMDL
MODEL 2
REMARK VINA RESULT:      -7.3      0.884      2.060
REMARK  Name = 
REMARK  7 active torsions:
REMARK  status: ('A' for Active; 'I' for Inactive)
REMARK    1  A    between atoms: C_1  and  C_2
REMARK    2  A    between atoms: C_6  and  N_7
REMARK    3  A    between atoms: C_8  and  C_9
REMARK    4  A    between atoms: C_9  and  N_10
REMARK    5  A    between atoms: C_9  and  C_21
REMARK    6  A    between atoms: N_10  and  C_11
REMARK    7  A    between atoms: C_18  and  C_19
REMARK                            x       y       z     vdW  Elec       q    Type
REMARK                         _______ _______ _______ _____ _____    ______ ____
ROOT
ATOM      1  C   UNL     1      -2.119  12.473  19.445  0.00  0.00    +0.000 C 
ENDROOT
BRANCH   1   3
ATOM      2  N   UNL     1       0.232  12.805  20.402  0.00  0.00    +0.000 N 
ATOM      3  C   UNL     1      -0.777  13.258  19.543  0.00  0.00    +0.000 A 
ATOM      4  N   UNL     1      -0.674  14.379  18.896  0.00  0.00    +0.000 NA
ATOM      5  C   UNL     1       0.484  15.148  19.005  0.00  0.00    +0.000 A 
ATOM      6  C   UNL     1       0.546  16.330  18.259  0.00  0.00    +0.000 A 
ATOM      7  C   UNL     1       1.715  17.084  18.216  0.00  0.00    +0.000 A 
ATOM      8  C   UNL     1       2.836  16.649  18.916  0.00  0.00    +0.000 A 
ATOM      9  C   UNL     1       2.772  15.495  19.707  0.00  0.00    +0.000 A 
ATOM     10 CL   UNL     1       4.247  15.023  20.476  0.00  0.00    +0.000 Cl
ATOM     11  C   UNL     1       1.576  14.765  19.781  0.00  0.00    +0.000 A 
ATOM     12  C   UNL     1       1.367  13.594  20.655  0.00  0.00    +0.000 A 
ATOM     13  O   UNL     1       2.153  13.379  21.575  0.00  0.00    +0.000 OA
BRANCH   2  19
ATOM     14  C   UNL     1       1.084   7.944  21.199  0.00  0.00    +0.000 C 
ATOM     15  C   UNL     1       0.511   9.265  21.609  0.00  0.00    +0.000 A 
ATOM     16  C   UNL     1      -0.234   9.392  22.776  0.00  0.00    +0.000 A 
ATOM     17  N   UNL     1      -0.797  10.547  23.185  0.00  0.00    +0.000 NA
ATOM     18  C   UNL     1      -0.611  11.633  22.399  0.00  0.00    +0.000 A 
ATOM     19  C   UNL     1       0.099  11.622  21.198  0.00  0.00    +0.000 A 
ATOM     20  C   UNL     1       0.707  10.415  20.832  0.00  0.00    +0.000 A 
ENDBRANCH   2  19
ENDBRANCH   1   3
BRANCH   1  21
ATOM     21  C   UNL     1      -2.332  11.597  18.222  0.00  0.00    +0.000 C 
ATOM     22  C   UNL     1      -1.435  10.439  17.831  0.00  0.00    +0.000 C 
ATOM     23  C   UNL     1      -2.776  10.160  18.440  0.00  0.00    +0.000 C 
ENDBRANCH   1  21
BRANCH   1  24
ATOM     24  N   UNL     1      -3.271  13.368  19.700  0.00  0.00    +0.000 N 
ATOM     25  H   UNL     1      -3.718  13.622  18.823  0.00  0.00    +0.000 HD
BRANCH  24  26
ATOM     26  C   UNL     1      -4.201  13.084  20.715  0.00  0.00    +0.000 A 
ATOM     27  N   UNL     1      -5.272  12.324  20.440  0.00  0.00    +0.000 NA
ATOM     28  C   UNL     1      -6.076  11.954  21.442  0.00  0.00    +0.000 A 
ATOM     29  N   UNL     1      -7.232  11.272  21.120  0.00  0.00    +0.000 N 
ATOM     30  N   UNL     1      -5.881  12.256  22.722  0.00  0.00    +0.000 NA
ATOM     31  C   UNL     1      -4.815  13.009  23.006  0.00  0.00    +0.000 A 
ATOM     32  N   UNL     1      -4.595  13.226  24.368  0.00  0.00    +0.000 N 
ATOM     33  C   UNL     1      -3.953  13.480  22.026  0.00  0.00    +0.000 A 
ATOM     34  H   UNL     1      -7.485  11.479  20.162  0.00  0.00    +0.000 HD
ATOM     35  H   UNL     1      -7.934  11.428  21.832  0.00  0.00    +0.000 HD
ATOM     36  H   UNL     1      -5.367  12.816  24.888  0.00  0.00    +0.000 HD
ATOM     37  H   UNL     1      -4.425  14.192  24.621  0.00  0.00    +0.000 HD
BRANCH  33  38
ATOM     38  C   UNL     1      -2.935  14.418  22.343  0.00  0.00    +0.000 C 
ATOM     39  N   UNL     1      -2.075  15.190  22.501  0.00  0.00    +0.000 NA
ENDBRANCH  33  38
ENDBRANCH  24  26
ENDBRANCH   1  24
TORSDOF 6
ENDMDL
MODEL 3
REMARK VINA RESULT:      -7.1      1.912      3.011
REMARK  Name = 
REMARK  7 active torsions:
REMARK  status: ('A' for Active; 'I' for Inactive)
REMARK    1  A    between atoms: C_1  and  C_2
REMARK    2  A    between atoms: C_6  and  N_7
REMARK    3  A    between atoms: C_8  and  C_9
REMARK    4  A    between atoms: C_9  and  N_10
REMARK    5  A    between atoms: C_9  and  C_21
REMARK    6  A    between atoms: N_10  and  C_11
REMARK    7  A    between atoms: C_18  and  C_19
REMARK                            x       y       z     vdW  Elec       q    Type
REMARK                         _______ _______ _______ _____ _____    ______ ____
ROOT
ATOM      1  C   UNL     1       0.070  11.087  18.528  0.00  0.00    +0.000 C 
ENDROOT
BRANCH   1   3
ATOM      2  N   UNL     1       1.223  12.404  20.397  0.00  0.00    +0.000 N 
ATOM      3  C   UNL     1       1.067  12.178  19.024  0.00  0.00    +0.000 A 
ATOM      4  N   UNL     1       1.651  12.923  18.135  0.00  0.00    +0.000 NA
ATOM      5  C   UNL     1       2.501  13.953  18.534  0.00  0.00    +0.000 A 
ATOM      6  C   UNL     1       3.124  14.700  17.529  0.00  0.00    +0.000 A 
ATOM      7  C   UNL     1       4.082  15.660  17.844  0.00  0.00    +0.000 A 
ATOM      8  C   UNL     1       4.429  15.868  19.176  0.00  0.00    +0.000 A 
ATOM      9  C   UNL     1       3.775  15.164  20.195  0.00  0.00    +0.000 A 
ATOM     10 CL   UNL     1       4.338  15.464  21.802  0.00  0.00    +0.000 Cl
ATOM     11  C   UNL     1       2.779  14.231  19.871  0.00  0.00    +0.000 A 
ATOM     12  C   UNL     1       1.962  13.505  20.863  0.00  0.00    +0.000 A 
ATOM     13  O   UNL     1       1.928  13.903  22.024  0.00  0.00    +0.000 OA
BRANCH   2  19
ATOM     14  C   UNL     1      -2.604  11.866  23.566  0.00  0.00    +0.000 C 
ATOM     15  C   UNL     1      -1.344  11.372  22.929  0.00  0.00    +0.000 A 
ATOM     16  C   UNL     1      -0.767  10.169  23.319  0.00  0.00    +0.000 A 
ATOM     17  N   UNL     1       0.380   9.683  22.803  0.00  0.00    +0.000 NA
ATOM     18  C   UNL     1       0.987  10.427  21.848  0.00  0.00    +0.000 A 
ATOM     19  C   UNL     1       0.513  11.657  21.392  0.00  0.00    +0.000 A 
ATOM     20  C   UNL     1      -0.703  12.104  21.919  0.00  0.00    +0.000 A 
ENDBRANCH   2  19
ENDBRANCH   1   3
BRANCH   1  21
ATOM     21  C   UNL     1       0.657   9.816  17.938  0.00  0.00    +0.000 C 
ATOM     22  C   UNL     1       2.141   9.515  17.856  0.00  0.00    +0.000 C 
ATOM     23  C   UNL     1       1.303   8.819  18.886  0.00  0.00    +0.000 C 
ENDBRANCH   1  21
BRANCH   1  24
ATOM     24  N   UNL     1      -0.968  11.682  17.655  0.00  0.00    +0.000 N 
ATOM     25  H   UNL     1      -0.860  11.344  16.703  0.00  0.00    +0.000 HD
BRANCH  24  26
ATOM     26  C   UNL     1      -2.313  11.733  18.059  0.00  0.00    +0.000 A 
ATOM     27  N   UNL     1      -2.623  12.209  19.275  0.00  0.00    +0.000 NA
ATOM     28  C   UNL     1      -3.910  12.375  19.596  0.00  0.00    +0.000 A 
ATOM     29  N   UNL     1      -4.206  12.755  20.889  0.00  0.00    +0.000 N 
ATOM     30  N   UNL     1      -4.932  12.133  18.781  0.00  0.00    +0.000 NA
ATOM     31  C   UNL     1      -4.633  11.662  17.566  0.00  0.00    +0.000 A 
ATOM     32  N   UNL     1      -5.726  11.507  16.711  0.00  0.00    +0.000 N 
ATOM     33  C   UNL     1      -3.329  11.412  17.164  0.00  0.00    +0.000 A 
ATOM     34  H   UNL     1      -3.442  12.491  21.497  0.00  0.00    +0.000 HD
ATOM     35  H   UNL     1      -5.134  12.435  21.139  0.00  0.00    +0.000 HD
ATOM     36  H   UNL     1      -6.574  11.719  17.231  0.00  0.00    +0.000 HD
ATOM     37  H   UNL     1      -5.772  10.612  16.239  0.00  0.00    +0.000 HD
BRANCH  33  38
ATOM     38  C   UNL     1      -3.061  10.750  15.937  0.00  0.00    +0.000 C 
ATOM     39  N   UNL     1      -2.749  10.175  14.971  0.00  0.00    +0.000 NA
ENDBRANCH  33  38
ENDBRANCH  24  26
ENDBRANCH   1  24
TORSDOF 6
ENDMDL
MODEL 4
REMARK VINA RESULT:      -7.1      3.271      6.810
REMARK  Name = 
REMARK  7 active torsions:
REMARK  status: ('A' for Active; 'I' for Inactive)
REMARK    1  A    between atoms: C_1  and  C_2
REMARK    2  A    between atoms: C_6  and  N_7
REMARK    3  A    between atoms: C_8  and  C_9
REMARK    4  A    between atoms: C_9  and  N_10
REMARK    5  A    between atoms: C_9  and  C_21
REMARK    6  A    between atoms: N_10  and  C_11
REMARK    7  A    between atoms: C_18  and  C_19
REMARK                            x       y       z     vdW  Elec       q    Type
REMARK                         _______ _______ _______ _____ _____    ______ ____
ROOT
ATOM      1  C   UNL     1      -0.981  12.454  19.426  0.00  0.00    +0.000 C 
ENDROOT
BRANCH   1   3
ATOM      2  N   UNL     1      -3.040  13.265  20.714  0.00  0.00    +0.000 N 
ATOM      3  C   UNL     1      -2.524  12.553  19.625  0.00  0.00    +0.000 A 
ATOM      4  N   UNL     1      -3.289  11.876  18.824  0.00  0.00    +0.000 NA
ATOM      5  C   UNL     1      -4.672  11.883  19.003  0.00  0.00    +0.000 A 
ATOM      6  C   UNL     1      -5.444  11.159  18.088  0.00  0.00    +0.000 A 
ATOM      7  C   UNL     1      -6.834  11.220  18.124  0.00  0.00    +0.000 A 
ATOM      8  C   UNL     1      -7.459  12.019  19.077  0.00  0.00    +0.000 A 
ATOM      9  C   UNL     1      -6.700  12.708  20.031  0.00  0.00    +0.000 A 
ATOM     10 CL   UNL     1      -7.587  13.717  21.119  0.00  0.00    +0.000 Cl
ATOM     11  C   UNL     1      -5.300  12.605  20.015  0.00  0.00    +0.000 A 
ATOM     12  C   UNL     1      -4.410  13.207  21.026  0.00  0.00    +0.000 A 
ATOM     13  O   UNL     1      -4.880  13.591  22.094  0.00  0.00    +0.000 OA
BRANCH   2  19
ATOM     14  C   UNL     1      -0.803  17.393  22.429  0.00  0.00    +0.000 C 
ATOM     15  C   UNL     1      -1.121  15.934  22.521  0.00  0.00    +0.000 A 
ATOM     16  C   UNL     1      -0.569  15.141  23.521  0.00  0.00    +0.000 A 
ATOM     17  N   UNL     1      -0.796  13.817  23.641  0.00  0.00    +0.000 NA
ATOM     18  C   UNL     1      -1.614  13.249  22.724  0.00  0.00    +0.000 A 
ATOM     19  C   UNL     1      -2.207  13.938  21.666  0.00  0.00    +0.000 A 
ATOM     20  C   UNL     1      -1.984  15.318  21.603  0.00  0.00    +0.000 A 
ENDBRANCH   2  19
ENDBRANCH   1   3
BRANCH   1  21
ATOM     21  C   UNL     1      -0.327  13.464  18.499  0.00  0.00    +0.000 C 
ATOM     22  C   UNL     1      -0.242  14.952  18.777  0.00  0.00    +0.000 C 
ATOM     23  C   UNL     1       0.980  14.100  18.941  0.00  0.00    +0.000 C 
ENDBRANCH   1  21
BRANCH   1  24
ATOM     24  N   UNL     1      -0.580  11.064  19.111  0.00  0.00    +0.000 N 
ATOM     25  H   UNL     1      -0.082  11.035  18.227  0.00  0.00    +0.000 HD
BRANCH  24  26
ATOM     26  C   UNL     1       0.006  10.239  20.087  0.00  0.00    +0.000 A 
ATOM     27  N   UNL     1      -0.439  10.289  21.352  0.00  0.00    +0.000 NA
ATOM     28  C   UNL     1       0.036   9.409  22.239  0.00  0.00    +0.000 A 
ATOM     29  N   UNL     1      -0.348   9.553  23.557  0.00  0.00    +0.000 N 
ATOM     30  N   UNL     1       0.909   8.445  21.960  0.00  0.00    +0.000 NA
ATOM     31  C   UNL     1       1.354   8.386  20.701  0.00  0.00    +0.000 A 
ATOM     32  N   UNL     1       2.197   7.306  20.427  0.00  0.00    +0.000 N 
ATOM     33  C   UNL     1       0.955   9.287  19.725  0.00  0.00    +0.000 A 
ATOM     34  H   UNL     1      -0.627  10.512  23.719  0.00  0.00    +0.000 HD
ATOM     35  H   UNL     1       0.359   9.163  24.167  0.00  0.00    +0.000 HD
ATOM     36  H   UNL     1       2.371   6.805  21.295  0.00  0.00    +0.000 HD
ATOM     37  H   UNL     1       3.051   7.548  19.939  0.00  0.00    +0.000 HD
BRANCH  33  38
ATOM     38  C   UNL     1       1.579   9.302  18.450  0.00  0.00    +0.000 C 
ATOM     39  N   UNL     1       2.171   9.260  17.446  0.00  0.00    +0.000 NA
ENDBRANCH  33  38
ENDBRANCH  24  26
ENDBRANCH   1  24
TORSDOF 6
ENDMDL
MODEL 5
REMARK VINA RESULT:      -7.1      0.917      1.244
REMARK  Name = 
REMARK  7 active torsions:
REMARK  status: ('A' for Active; 'I' for Inactive)
REMARK    1  A    between atoms: C_1  and  C_2
REMARK    2  A    between atoms: C_6  and  N_7
REMARK    3  A    between atoms: C_8  and  C_9
REMARK    4  A    between atoms: C_9  and  N_10
REMARK    5  A    between atoms: C_9  and  C_21
REMARK    6  A    between atoms: N_10  and  C_11
REMARK    7  A    between atoms: C_18  and  C_19
REMARK                            x       y       z     vdW  Elec       q    Type
REMARK                         _______ _______ _______ _____ _____    ______ ____
ROOT
ATOM      1  C   UNL     1      -1.819  12.345  19.130  0.00  0.00    +0.000 C 
ENDROOT
BRANCH   1   3
ATOM      2  N   UNL     1       0.624  12.595  19.853  0.00  0.00    +0.000 N 
ATOM      3  C   UNL     1      -0.495  13.161  19.231  0.00  0.00    +0.000 A 
ATOM      4  N   UNL     1      -0.502  14.393  18.821  0.00  0.00    +0.000 NA
ATOM      5  C   UNL     1       0.641  15.181  18.950  0.00  0.00    +0.000 A 
ATOM      6  C   UNL     1       0.580  16.490  18.463  0.00  0.00    +0.000 A 
ATOM      7  C   UNL     1       1.715  17.295  18.440  0.00  0.00    +0.000 A 
ATOM      8  C   UNL     1       2.926  16.785  18.898  0.00  0.00    +0.000 A 
ATOM      9  C   UNL     1       2.989  15.493  19.437  0.00  0.00    +0.000 A 
ATOM     10 CL   UNL     1       4.560  14.949  19.913  0.00  0.00    +0.000 Cl
ATOM     11  C   UNL     1       1.831  14.704  19.498  0.00  0.00    +0.000 A 
ATOM     12  C   UNL     1       1.762  13.372  20.129  0.00  0.00    +0.000 A 
ATOM     13  O   UNL     1       2.661  13.016  20.886  0.00  0.00    +0.000 OA
BRANCH   2  19
ATOM     14  C   UNL     1      -0.310   9.393  23.576  0.00  0.00    +0.000 C 
ATOM     15  C   UNL     1       0.164   9.697  22.190  0.00  0.00    +0.000 A 
ATOM     16  C   UNL     1       0.682   8.698  21.374  0.00  0.00    +0.000 A 
ATOM     17  N   UNL     1       1.149   8.913  20.128  0.00  0.00    +0.000 NA
ATOM     18  C   UNL     1       1.099  10.184  19.664  0.00  0.00    +0.000 A 
ATOM     19  C   UNL     1       0.621  11.270  20.398  0.00  0.00    +0.000 A 
ATOM     20  C   UNL     1       0.103  10.998  21.669  0.00  0.00    +0.000 A 
ENDBRANCH   2  19
ENDBRANCH   1   3
BRANCH   1  21
ATOM     21  C   UNL     1      -2.062  11.554  17.856  0.00  0.00    +0.000 C 
ATOM     22  C   UNL     1      -1.350  10.264  17.501  0.00  0.00    +0.000 C 
ATOM     23  C   UNL     1      -2.773  10.216  17.970  0.00  0.00    +0.000 C 
ENDBRANCH   1  21
BRANCH   1  24
ATOM     24  N   UNL     1      -2.982  13.186  19.497  0.00  0.00    +0.000 N 
ATOM     25  H   UNL     1      -3.449  13.523  18.659  0.00  0.00    +0.000 HD
BRANCH  24  26
ATOM     26  C   UNL     1      -3.889  12.777  20.490  0.00  0.00    +0.000 A 
ATOM     27  N   UNL     1      -3.494  12.737  21.772  0.00  0.00    +0.000 NA
ATOM     28  C   UNL     1      -4.400  12.474  22.720  0.00  0.00    +0.000 A 
ATOM     29  N   UNL     1      -3.949  12.324  24.016  0.00  0.00    +0.000 N 
ATOM     30  N   UNL     1      -5.695  12.275  22.496  0.00  0.00    +0.000 NA
ATOM     31  C   UNL     1      -6.098  12.317  21.223  0.00  0.00    +0.000 A 
ATOM     32  N   UNL     1      -7.477  12.195  21.040  0.00  0.00    +0.000 N 
ATOM     33  C   UNL     1      -5.221  12.535  20.170  0.00  0.00    +0.000 A 
ATOM     34  H   UNL     1      -2.971  12.066  24.001  0.00  0.00    +0.000 HD
ATOM     35  H   UNL     1      -4.582  11.726  24.534  0.00  0.00    +0.000 HD
ATOM     36  H   UNL     1      -7.908  12.014  21.943  0.00  0.00    +0.000 HD
ATOM     37  H   UNL     1      -7.753  11.522  20.334  0.00  0.00    +0.000 HD
BRANCH  33  38
ATOM     38  C   UNL     1      -5.653  12.399  18.825  0.00  0.00    +0.000 C 
ATOM     39  N   UNL     1      -5.921  12.340  17.690  0.00  0.00    +0.000 NA
ENDBRANCH  33  38
ENDBRANCH  24  26
ENDBRANCH   1  24
TORSDOF 6
ENDMDL
MODEL 6
REMARK VINA RESULT:      -7.1      1.443      2.233
REMARK  Name = 
REMARK  7 active torsions:
REMARK  status: ('A' for Active; 'I' for Inactive)
REMARK    1  A    between atoms: C_1  and  C_2
REMARK    2  A    between atoms: C_6  and  N_7
REMARK    3  A    between atoms: C_8  and  C_9
REMARK    4  A    between atoms: C_9  and  N_10
REMARK    5  A    between atoms: C_9  and  C_21
REMARK    6  A    between atoms: N_10  and  C_11
REMARK    7  A    between atoms: C_18  and  C_19
REMARK                            x       y       z     vdW  Elec       q    Type
REMARK                         _______ _______ _______ _____ _____    ______ ____
ROOT
ATOM      1  C   UNL     1      -2.242  12.383  19.612  0.00  0.00    +0.000 C 
ENDROOT
BRANCH   1   3
ATOM      2  N   UNL     1       0.102  12.832  20.539  0.00  0.00    +0.000 N 
ATOM      3  C   UNL     1      -0.947  13.245  19.709  0.00  0.00    +0.000 A 
ATOM      4  N   UNL     1      -0.923  14.385  19.089  0.00  0.00    +0.000 NA
ATOM      5  C   UNL     1       0.188  15.220  19.199  0.00  0.00    +0.000 A 
ATOM      6  C   UNL     1       0.166  16.421  18.483  0.00  0.00    +0.000 A 
ATOM      7  C   UNL     1       1.286  17.246  18.441  0.00  0.00    +0.000 A 
ATOM      8  C   UNL     1       2.444  16.862  19.111  0.00  0.00    +0.000 A 
ATOM      9  C   UNL     1       2.463  15.688  19.874  0.00  0.00    +0.000 A 
ATOM     10 CL   UNL     1       3.977  15.286  20.606  0.00  0.00    +0.000 Cl
ATOM     11  C   UNL     1       1.315  14.885  19.948  0.00  0.00    +0.000 A 
ATOM     12  C   UNL     1       1.192  13.682  20.795  0.00  0.00    +0.000 A 
ATOM     13  O   UNL     1       2.005  13.493  21.696  0.00  0.00    +0.000 OA
BRANCH   2  19
ATOM     14  C   UNL     1       1.195   7.995  21.164  0.00  0.00    +0.000 C 
ATOM     15  C   UNL     1       0.585   9.278  21.634  0.00  0.00    +0.000 A 
ATOM     16  C   UNL     1      -0.115   9.341  22.834  0.00  0.00    +0.000 A 
ATOM     17  N   UNL     1      -0.710  10.458  23.298  0.00  0.00    +0.000 NA
ATOM     18  C   UNL     1      -0.604  11.572  22.536  0.00  0.00    +0.000 A 
ATOM     19  C   UNL     1       0.054  11.624  21.307  0.00  0.00    +0.000 A 
ATOM     20  C   UNL     1       0.697  10.456  20.882  0.00  0.00    +0.000 A 
ENDBRANCH   2  19
ENDBRANCH   1   3
BRANCH   1  21
ATOM     21  C   UNL     1      -2.482  11.619  18.321  0.00  0.00    +0.000 C 
ATOM     22  C   UNL     1      -1.442  10.761  17.627  0.00  0.00    +0.000 C 
ATOM     23  C   UNL     1      -2.552  10.103  18.389  0.00  0.00    +0.000 C 
ENDBRANCH   1  21
BRANCH   1  24
ATOM     24  N   UNL     1      -3.427  13.167  20.027  0.00  0.00    +0.000 N 
ATOM     25  H   UNL     1      -4.261  12.812  19.567  0.00  0.00    +0.000 HD
BRANCH  24  26
ATOM     26  C   UNL     1      -3.652  13.484  21.378  0.00  0.00    +0.000 A 
ATOM     27  N   UNL     1      -3.933  12.506  22.251  0.00  0.00    +0.000 NA
ATOM     28  C   UNL     1      -4.014  12.803  23.552  0.00  0.00    +0.000 A 
ATOM     29  N   UNL     1      -4.418  11.805  24.415  0.00  0.00    +0.000 N 
ATOM     30  N   UNL     1      -3.803  14.010  24.068  0.00  0.00    +0.000 NA
ATOM     31  C   UNL     1      -3.518  14.991  23.206  0.00  0.00    +0.000 A 
ATOM     32  N   UNL     1      -3.214  16.219  23.796  0.00  0.00    +0.000 N 
ATOM     33  C   UNL     1      -3.461  14.785  21.835  0.00  0.00    +0.000 A 
ATOM     34  H   UNL     1      -4.948  11.113  23.901  0.00  0.00    +0.000 HD
ATOM     35  H   UNL     1      -4.854  12.213  25.233  0.00  0.00    +0.000 HD
ATOM     36  H   UNL     1      -3.351  16.138  24.800  0.00  0.00    +0.000 HD
ATOM     37  H   UNL     1      -3.703  17.013  23.398  0.00  0.00    +0.000 HD
BRANCH  33  38
ATOM     38  C   UNL     1      -3.330  15.880  20.941  0.00  0.00    +0.000 C 
ATOM     39  N   UNL     1      -3.251  16.842  20.287  0.00  0.00    +0.000 NA
ENDBRANCH  33  38
ENDBRANCH  24  26
ENDBRANCH   1  24
TORSDOF 6
ENDMDL
MODEL 7
REMARK VINA RESULT:      -7.0      0.896      1.992
REMARK  Name = 
REMARK  7 active torsions:
REMARK  status: ('A' for Active; 'I' for Inactive)
REMARK    1  A    between atoms: C_1  and  C_2
REMARK    2  A    between atoms: C_6  and  N_7
REMARK    3  A    between atoms: C_8  and  C_9
REMARK    4  A    between atoms: C_9  and  N_10
REMARK    5  A    between atoms: C_9  and  C_21
REMARK    6  A    between atoms: N_10  and  C_11
REMARK    7  A    between atoms: C_18  and  C_19
REMARK                            x       y       z     vdW  Elec       q    Type
REMARK                         _______ _______ _______ _____ _____    ______ ____
ROOT
ATOM      1  C   UNL     1      -2.141  11.988  19.286  0.00  0.00    +0.000 C 
ENDROOT
BRANCH   1   3
ATOM      2  N   UNL     1      -0.055  12.778  20.543  0.00  0.00    +0.000 N 
ATOM      3  C   UNL     1      -1.007  13.025  19.547  0.00  0.00    +0.000 A 
ATOM      4  N   UNL     1      -1.041  14.147  18.895  0.00  0.00    +0.000 NA
ATOM      5  C   UNL     1      -0.085  15.131  19.141  0.00  0.00    +0.000 A 
ATOM      6  C   UNL     1      -0.158  16.306  18.385  0.00  0.00    +0.000 A 
ATOM      7  C   UNL     1       0.833  17.279  18.483  0.00  0.00    +0.000 A 
ATOM      8  C   UNL     1       1.912  17.072  19.337  0.00  0.00    +0.000 A 
ATOM      9  C   UNL     1       1.971  15.925  20.138  0.00  0.00    +0.000 A 
ATOM     10 CL   UNL     1       3.391  15.753  21.108  0.00  0.00    +0.000 Cl
ATOM     11  C   UNL     1       0.945  14.970  20.066  0.00  0.00    +0.000 A 
ATOM     12  C   UNL     1       0.855  13.777  20.930  0.00  0.00    +0.000 A 
ATOM     13  O   UNL     1       1.535  13.719  21.951  0.00  0.00    +0.000 OA
BRANCH   2  19
ATOM     14  C   UNL     1       1.267   8.020  21.313  0.00  0.00    +0.000 C 
ATOM     15  C   UNL     1       0.583   9.281  21.738  0.00  0.00    +0.000 A 
ATOM     16  C   UNL     1      -0.143   9.338  22.922  0.00  0.00    +0.000 A 
ATOM     17  N   UNL     1      -0.803  10.435  23.346  0.00  0.00    +0.000 NA
ATOM     18  C   UNL     1      -0.738  11.533  22.557  0.00  0.00    +0.000 A 
ATOM     19  C   UNL     1      -0.058  11.588  21.341  0.00  0.00    +0.000 A 
ATOM     20  C   UNL     1       0.652  10.444  20.958  0.00  0.00    +0.000 A 
ENDBRANCH   2  19
ENDBRANCH   1   3
BRANCH   1  21
ATOM     21  C   UNL     1      -1.865  10.886  18.277  0.00  0.00    +0.000 C 
ATOM     22  C   UNL     1      -2.926   9.970  17.699  0.00  0.00    +0.000 C 
ATOM     23  C   UNL     1      -2.368  11.076  16.856  0.00  0.00    +0.000 C 
ENDBRANCH   1  21
BRANCH   1  24
ATOM     24  N   UNL     1      -3.429  12.672  19.031  0.00  0.00    +0.000 N 
ATOM     25  H   UNL     1      -3.645  12.653  18.038  0.00  0.00    +0.000 HD
BRANCH  24  26
ATOM     26  C   UNL     1      -4.556  12.419  19.832  0.00  0.00    +0.000 A 
ATOM     27  N   UNL     1      -5.531  11.620  19.371  0.00  0.00    +0.000 NA
ATOM     28  C   UNL     1      -6.532  11.283  20.191  0.00  0.00    +0.000 A 
ATOM     29  N   UNL     1      -7.580  10.558  19.661  0.00  0.00    +0.000 N 
ATOM     30  N   UNL     1      -6.628  11.656  21.463  0.00  0.00    +0.000 NA
ATOM     31  C   UNL     1      -5.659  12.448  21.932  0.00  0.00    +0.000 A 
ATOM     32  N   UNL     1      -5.749  12.741  23.294  0.00  0.00    +0.000 N 
ATOM     33  C   UNL     1      -4.608  12.888  21.141  0.00  0.00    +0.000 A 
ATOM     34  H   UNL     1      -7.618  10.709  18.661  0.00  0.00    +0.000 HD
ATOM     35  H   UNL     1      -8.424  10.734  20.192  0.00  0.00    +0.000 HD
ATOM     36  H   UNL     1      -6.611  12.340  23.655  0.00  0.00    +0.000 HD
ATOM     37  H   UNL     1      -5.650  13.723  23.524  0.00  0.00    +0.000 HD
BRANCH  33  38
ATOM     38  C   UNL     1      -3.697  13.866  21.620  0.00  0.00    +0.000 C 
ATOM     39  N   UNL     1      -2.870  14.604  21.984  0.00  0.00    +0.000 NA
ENDBRANCH  33  38
ENDBRANCH  24  26
ENDBRANCH   1  24
TORSDOF 6
ENDMDL
MODEL 8
REMARK VINA RESULT:      -7.0      0.627      2.101
REMARK  Name = 
REMARK  7 active torsions:
REMARK  status: ('A' for Active; 'I' for Inactive)
REMARK    1  A    between atoms: C_1  and  C_2
REMARK    2  A    between atoms: C_6  and  N_7
REMARK    3  A    between atoms: C_8  and  C_9
REMARK    4  A    between atoms: C_9  and  N_10
REMARK    5  A    between atoms: C_9  and  C_21
REMARK    6  A    between atoms: N_10  and  C_11
REMARK    7  A    between atoms: C_18  and  C_19
REMARK                            x       y       z     vdW  Elec       q    Type
REMARK                         _______ _______ _______ _____ _____    ______ ____
ROOT
ATOM      1  C   UNL     1      -2.229  12.402  19.625  0.00  0.00    +0.000 C 
ENDROOT
BRANCH   1   3
ATOM      2  N   UNL     1       0.145  12.852  20.472  0.00  0.00    +0.000 N 
ATOM      3  C   UNL     1      -0.927  13.258  19.669  0.00  0.00    +0.000 A 
ATOM      4  N   UNL     1      -0.917  14.390  19.033  0.00  0.00    +0.000 NA
ATOM      5  C   UNL     1       0.201  15.220  19.097  0.00  0.00    +0.000 A 
ATOM      6  C   UNL     1       0.163  16.412  18.365  0.00  0.00    +0.000 A 
ATOM      7  C   UNL     1       1.285  17.229  18.276  0.00  0.00    +0.000 A 
ATOM      8  C   UNL     1       2.462  16.849  18.915  0.00  0.00    +0.000 A 
ATOM      9  C   UNL     1       2.499  15.685  19.693  0.00  0.00    +0.000 A 
ATOM     10 CL   UNL     1       4.033  15.285  20.383  0.00  0.00    +0.000 Cl
ATOM     11  C   UNL     1       1.349  14.889  19.814  0.00  0.00    +0.000 A 
ATOM     12  C   UNL     1       1.247  13.699  20.682  0.00  0.00    +0.000 A 
ATOM     13  O   UNL     1       2.087  13.518  21.559  0.00  0.00    +0.000 OA
BRANCH   2  19
ATOM     14  C   UNL     1       1.226   8.016  21.127  0.00  0.00    +0.000 C 
ATOM     15  C   UNL     1       0.641   9.309  21.600  0.00  0.00    +0.000 A 
ATOM     16  C   UNL     1      -0.017   9.394  22.821  0.00  0.00    +0.000 A 
ATOM     17  N   UNL     1      -0.588  10.522  23.290  0.00  0.00    +0.000 NA
ATOM     18  C   UNL     1      -0.501  11.625  22.509  0.00  0.00    +0.000 A 
ATOM     19  C   UNL     1       0.115  11.655  21.258  0.00  0.00    +0.000 A 
ATOM     20  C   UNL     1       0.735  10.476  20.828  0.00  0.00    +0.000 A 
ENDBRANCH   2  19
ENDBRANCH   1   3
BRANCH   1  21
ATOM     21  C   UNL     1      -2.501  11.604  18.361  0.00  0.00    +0.000 C 
ATOM     22  C   UNL     1      -1.431  10.923  17.531  0.00  0.00    +0.000 C 
ATOM     23  C   UNL     1      -2.318  10.097  18.414  0.00  0.00    +0.000 C 
ENDBRANCH   1  21
BRANCH   1  24
ATOM     24  N   UNL     1      -3.400  13.206  20.043  0.00  0.00    +0.000 N 
ATOM     25  H   UNL     1      -3.279  14.174  19.762  0.00  0.00    +0.000 HD
BRANCH  24  26
ATOM     26  C   UNL     1      -4.711  12.743  19.830  0.00  0.00    +0.000 A 
ATOM     27  N   UNL     1      -5.179  12.631  18.578  0.00  0.00    +0.000 NA
ATOM     28  C   UNL     1      -6.376  12.067  18.383  0.00  0.00    +0.000 A 
ATOM     29  N   UNL     1      -6.886  12.069  17.101  0.00  0.00    +0.000 N 
ATOM     30  N   UNL     1      -7.145  11.568  19.347  0.00  0.00    +0.000 NA
ATOM     31  C   UNL     1      -6.684  11.672  20.597  0.00  0.00    +0.000 A 
ATOM     32  N   UNL     1      -7.477  11.055  21.567  0.00  0.00    +0.000 N 
ATOM     33  C   UNL     1      -5.477  12.285  20.898  0.00  0.00    +0.000 A 
ATOM     34  H   UNL     1      -6.457  12.817  16.572  0.00  0.00    +0.000 HD
ATOM     35  H   UNL     1      -7.898  12.040  17.132  0.00  0.00    +0.000 HD
ATOM     36  H   UNL     1      -8.320  10.704  21.119  0.00  0.00    +0.000 HD
ATOM     37  H   UNL     1      -7.678  11.629  22.378  0.00  0.00    +0.000 HD
BRANCH  33  38
ATOM     38  C   UNL     1      -5.103  12.532  22.245  0.00  0.00    +0.000 C 
ATOM     39  N   UNL     1      -4.697  12.718  23.323  0.00  0.00    +0.000 NA
ENDBRANCH  33  38
ENDBRANCH  24  26
ENDBRANCH   1  24
TORSDOF 6
ENDMDL
MODEL 9
REMARK VINA RESULT:      -6.9      1.126      1.670
REMARK  Name = 
REMARK  7 active torsions:
REMARK  status: ('A' for Active; 'I' for Inactive)
REMARK    1  A    between atoms: C_1  and  C_2
REMARK    2  A    between atoms: C_6  and  N_7
REMARK    3  A    between atoms: C_8  and  C_9
REMARK    4  A    between atoms: C_9  and  N_10
REMARK    5  A    between atoms: C_9  and  C_21
REMARK    6  A    between atoms: N_10  and  C_11
REMARK    7  A    between atoms: C_18  and  C_19
REMARK                            x       y       z     vdW  Elec       q    Type
REMARK                         _______ _______ _______ _____ _____    ______ ____
ROOT
ATOM      1  C   UNL     1      -2.270  12.573  19.778  0.00  0.00    +0.000 C 
ENDROOT
BRANCH   1   3
ATOM      2  N   UNL     1       0.220  12.778  20.338  0.00  0.00    +0.000 N 
ATOM      3  C   UNL     1      -0.899  13.309  19.685  0.00  0.00    +0.000 A 
ATOM      4  N   UNL     1      -0.860  14.459  19.084  0.00  0.00    +0.000 NA
ATOM      5  C   UNL     1       0.330  15.183  19.032  0.00  0.00    +0.000 A 
ATOM      6  C   UNL     1       0.314  16.401  18.344  0.00  0.00    +0.000 A 
ATOM      7  C   UNL     1       1.489  17.119  18.140  0.00  0.00    +0.000 A 
ATOM      8  C   UNL     1       2.693  16.611  18.619  0.00  0.00    +0.000 A 
ATOM      9  C   UNL     1       2.715  15.419  19.354  0.00  0.00    +0.000 A 
ATOM     10 CL   UNL     1       4.277  14.858  19.839  0.00  0.00    +0.000 Cl
ATOM     11  C   UNL     1       1.520  14.724  19.594  0.00  0.00    +0.000 A 
ATOM     12  C   UNL     1       1.412  13.516  20.434  0.00  0.00    +0.000 A 
ATOM     13  O   UNL     1       2.331  13.227  21.196  0.00  0.00    +0.000 OA
BRANCH   2  19
ATOM     14  C   UNL     1       1.190   7.899  20.830  0.00  0.00    +0.000 C 
ATOM     15  C   UNL     1       0.646   9.192  21.351  0.00  0.00    +0.000 A 
ATOM     16  C   UNL     1       0.011   9.256  22.586  0.00  0.00    +0.000 A 
ATOM     17  N   UNL     1      -0.523  10.383  23.099  0.00  0.00    +0.000 NA
ATOM     18  C   UNL     1      -0.422  11.506  22.349  0.00  0.00    +0.000 A 
ATOM     19  C   UNL     1       0.173  11.558  21.089  0.00  0.00    +0.000 A 
ATOM     20  C   UNL     1       0.756  10.378  20.612  0.00  0.00    +0.000 A 
ENDBRANCH   2  19
ENDBRANCH   1   3
BRANCH   1  21
ATOM     21  C   UNL     1      -2.751  11.827  18.545  0.00  0.00    +0.000 C 
ATOM     22  C   UNL     1      -1.849  11.368  17.415  0.00  0.00    +0.000 C 
ATOM     23  C   UNL     1      -2.368  10.364  18.400  0.00  0.00    +0.000 C 
ENDBRANCH   1  21
BRANCH   1  24
ATOM     24  N   UNL     1      -3.311  13.471  20.329  0.00  0.00    +0.000 N 
ATOM     25  H   UNL     1      -4.169  13.383  19.793  0.00  0.00    +0.000 HD
BRANCH  24  26
ATOM     26  C   UNL     1      -3.546  13.545  21.713  0.00  0.00    +0.000 A 
ATOM     27  N   UNL     1      -2.655  14.160  22.505  0.00  0.00    +0.000 NA
ATOM     28  C   UNL     1      -2.952  14.339  23.796  0.00  0.00    +0.000 A 
ATOM     29  N   UNL     1      -1.975  14.869  24.614  0.00  0.00    +0.000 N 
ATOM     30  N   UNL     1      -4.097  13.977  24.368  0.00  0.00    +0.000 NA
ATOM     31  C   UNL     1      -4.992  13.366  23.586  0.00  0.00    +0.000 A 
ATOM     32  N   UNL     1      -6.214  13.085  24.201  0.00  0.00    +0.000 N 
ATOM     33  C   UNL     1      -4.750  13.095  22.247  0.00  0.00    +0.000 A 
ATOM     34  H   UNL     1      -1.067  14.697  24.202  0.00  0.00    +0.000 HD
ATOM     35  H   UNL     1      -2.120  14.563  25.568  0.00  0.00    +0.000 HD
ATOM     36  H   UNL     1      -6.147  13.343  25.183  0.00  0.00    +0.000 HD
ATOM     37  H   UNL     1      -6.548  12.138  24.068  0.00  0.00    +0.000 HD
BRANCH  33  38
ATOM     38  C   UNL     1      -5.647  12.293  21.494  0.00  0.00    +0.000 C 
ATOM     39  N   UNL     1      -6.340  11.673  20.789  0.00  0.00    +0.000 NA
ENDBRANCH  33  38
ENDBRANCH  24  26
ENDBRANCH   1  24
TORSDOF 6
ENDMDL
