MODEL 1
REMARK VINA RESULT:      -6.8      0.000      0.000
REMARK  Name = 
REMARK  4 active torsions:
REMARK  status: ('A' for Active; 'I' for Inactive)
REMARK    1  A    between atoms: C_5  and  C_6
REMARK    2  A    between atoms: C_6  and  N_7
REMARK    3  A    between atoms: N_7  and  C_8
REMARK    4  A    between atoms: C_10  and  C_11
REMARK                            x       y       z     vdW  Elec       q    Type
REMARK                         _______ _______ _______ _____ _____    ______ ____
ROOT
ATOM      1  N   UNL     1       2.872   2.554  19.388  0.00  0.00    +0.000 NA
ATOM      2  H   UNL     1       3.522   2.571  20.174  0.00  0.00    +0.000 HD
ENDROOT
BRANCH   1   3
ATOM      3  C   UNL     1       1.960   3.708  19.418  0.00  0.00    +0.000 C 
ATOM      4  C   UNL     1       1.055   3.915  20.592  0.00  0.00    +0.000 C 
ATOM      5  C   UNL     1       2.223   4.848  20.384  0.00  0.00    +0.000 C 
BRANCH   5   6
ATOM      6  C   UNL     1       2.019   6.268  19.915  0.00  0.00    +0.000 A 
ATOM      7  C   UNL     1       1.443   7.243  20.747  0.00  0.00    +0.000 A 
ATOM      8  C   UNL     1       1.291   8.565  20.319  0.00  0.00    +0.000 A 
ATOM      9  C   UNL     1       1.716   8.941  19.048  0.00  0.00    +0.000 A 
ATOM     10  C   UNL     1       2.295   7.996  18.207  0.00  0.00    +0.000 A 
ATOM     11  C   UNL     1       2.447   6.678  18.641  0.00  0.00    +0.000 A 
ENDBRANCH   5   6
ENDBRANCH   1   3
BRANCH   1  12
ATOM     12  C   UNL     1       3.648   2.510  18.146  0.00  0.00    +0.000 C 
BRANCH  12  17
ATOM     13 BR   UNL     1       7.428   7.378  17.445  0.00  0.00    +0.000 Br
ATOM     14  C   UNL     1       6.260   5.909  17.666  0.00  0.00    +0.000 A 
ATOM     15  C   UNL     1       6.229   5.226  18.880  0.00  0.00    +0.000 A 
ATOM     16  C   UNL     1       5.372   4.136  19.038  0.00  0.00    +0.000 A 
ATOM     17  C   UNL     1       4.537   3.722  17.987  0.00  0.00    +0.000 A 
ATOM     18  C   UNL     1       4.581   4.423  16.773  0.00  0.00    +0.000 A 
ATOM     19  C   UNL     1       5.439   5.513  16.611  0.00  0.00    +0.000 A 
ENDBRANCH  12  17
ENDBRANCH   1  12
TORSDOF 4
ENDMDL
MODEL 2
REMARK VINA RESULT:      -6.8      0.215      1.159
REMARK  Name = 
REMARK  4 active torsions:
REMARK  status: ('A' for Active; 'I' for Inactive)
REMARK    1  A    between atoms: C_5  and  C_6
REMARK    2  A    between atoms: C_6  and  N_7
REMARK    3  A    between atoms: N_7  and  C_8
REMARK    4  A    between atoms: C_10  and  C_11
REMARK                            x       y       z     vdW  Elec       q    Type
REMARK                         _______ _______ _______ _____ _____    ______ ____
ROOT
ATOM      1  N   UNL     1       2.871   2.683  19.416  0.00  0.00    +0.000 NA
ATOM      2  H   UNL     1       3.485   2.745  20.227  0.00  0.00    +0.000 HD
ENDROOT
BRANCH   1   3
ATOM      3  C   UNL     1       1.986   3.855  19.320  0.00  0.00    +0.000 C 
ATOM      4  C   UNL     1       0.976   4.119  20.394  0.00  0.00    +0.000 C 
ATOM      5  C   UNL     1       2.179   5.022  20.270  0.00  0.00    +0.000 C 
BRANCH   5   6
ATOM      6  C   UNL     1       2.053   6.429  19.738  0.00  0.00    +0.000 A 
ATOM      7  C   UNL     1       1.480   7.457  20.505  0.00  0.00    +0.000 A 
ATOM      8  C   UNL     1       1.400   8.767  20.020  0.00  0.00    +0.000 A 
ATOM      9  C   UNL     1       1.894   9.074  18.756  0.00  0.00    +0.000 A 
ATOM     10  C   UNL     1       2.469   8.075  17.978  0.00  0.00    +0.000 A 
ATOM     11  C   UNL     1       2.549   6.770  18.468  0.00  0.00    +0.000 A 
ENDBRANCH   5   6
ENDBRANCH   1   3
BRANCH   1  12
ATOM     12  C   UNL     1       3.700   2.534  18.217  0.00  0.00    +0.000 C 
BRANCH  12  17
ATOM     13 BR   UNL     1       7.379   7.468  17.437  0.00  0.00    +0.000 Br
ATOM     14  C   UNL     1       6.276   5.950  17.668  0.00  0.00    +0.000 A 
ATOM     15  C   UNL     1       5.523   5.472  16.598  0.00  0.00    +0.000 A 
ATOM     16  C   UNL     1       4.702   4.357  16.774  0.00  0.00    +0.000 A 
ATOM     17  C   UNL     1       4.629   3.710  18.017  0.00  0.00    +0.000 A 
ATOM     18  C   UNL     1       5.395   4.204  19.083  0.00  0.00    +0.000 A 
ATOM     19  C   UNL     1       6.216   5.321  18.911  0.00  0.00    +0.000 A 
ENDBRANCH  12  17
ENDBRANCH   1  12
TORSDOF 4
ENDMDL
MODEL 3
REMARK VINA RESULT:      -6.5      0.680      1.322
REMARK  Name = 
REMARK  4 active torsions:
REMARK  status: ('A' for Active; 'I' for Inactive)
REMARK    1  A    between atoms: C_5  and  C_6
REMARK    2  A    between atoms: C_6  and  N_7
REMARK    3  A    between atoms: N_7  and  C_8
REMARK    4  A    between atoms: C_10  and  C_11
REMARK                            x       y       z     vdW  Elec       q    Type
REMARK                         _______ _______ _______ _____ _____    ______ ____
ROOT
ATOM      1  N   UNL     1       3.350   3.156  19.717  0.00  0.00    +0.000 NA
ATOM      2  H   UNL     1       3.959   3.324  20.518  0.00  0.00    +0.000 HD
ENDROOT
BRANCH   1   3
ATOM      3  C   UNL     1       2.341   4.218  19.576  0.00  0.00    +0.000 C 
ATOM      4  C   UNL     1       1.335   4.443  20.661  0.00  0.00    +0.000 C 
ATOM      5  C   UNL     1       2.430   5.458  20.445  0.00  0.00    +0.000 C 
BRANCH   5   6
ATOM      6  C   UNL     1       2.140   6.806  19.831  0.00  0.00    +0.000 A 
ATOM      7  C   UNL     1       2.419   7.075  18.480  0.00  0.00    +0.000 A 
ATOM      8  C   UNL     1       2.114   8.315  17.909  0.00  0.00    +0.000 A 
ATOM      9  C   UNL     1       1.521   9.311  18.678  0.00  0.00    +0.000 A 
ATOM     10  C   UNL     1       1.230   9.069  20.016  0.00  0.00    +0.000 A 
ATOM     11  C   UNL     1       1.534   7.828  20.581  0.00  0.00    +0.000 A 
ENDBRANCH   5   6
ENDBRANCH   1   3
BRANCH   1  12
ATOM     12  C   UNL     1       4.183   3.039  18.518  0.00  0.00    +0.000 C 
BRANCH  12  17
ATOM     13 BR   UNL     1       7.809   7.978  17.550  0.00  0.00    +0.000 Br
ATOM     14  C   UNL     1       6.687   6.487  17.852  0.00  0.00    +0.000 A 
ATOM     15  C   UNL     1       6.697   5.854  19.094  0.00  0.00    +0.000 A 
ATOM     16  C   UNL     1       5.875   4.747  19.311  0.00  0.00    +0.000 A 
ATOM     17  C   UNL     1       5.034   4.267  18.294  0.00  0.00    +0.000 A 
ATOM     18  C   UNL     1       5.036   4.919  17.052  0.00  0.00    +0.000 A 
ATOM     19  C   UNL     1       5.859   6.026  16.830  0.00  0.00    +0.000 A 
ENDBRANCH  12  17
ENDBRANCH   1  12
TORSDOF 4
ENDMDL
MODEL 4
REMARK VINA RESULT:      -6.4      3.293      5.327
REMARK  Name = 
REMARK  4 active torsions:
REMARK  status: ('A' for Active; 'I' for Inactive)
REMARK    1  A    between atoms: C_5  and  C_6
REMARK    2  A    between atoms: C_6  and  N_7
REMARK    3  A    between atoms: N_7  and  C_8
REMARK    4  A    between atoms: C_10  and  C_11
REMARK                            x       y       z     vdW  Elec       q    Type
REMARK                         _______ _______ _______ _____ _____    ______ ____
ROOT
ATOM      1  N   UNL     1       1.833   8.861  17.511  0.00  0.00    +0.000 NA
ATOM      2  H   UNL     1       1.022   8.270  17.326  0.00  0.00    +0.000 HD
ENDROOT
BRANCH   1   3
ATOM      3  C   UNL     1       1.581   9.785  18.628  0.00  0.00    +0.000 C 
ATOM      4  C   UNL     1       0.997  11.138  18.362  0.00  0.00    +0.000 C 
ATOM      5  C   UNL     1       0.154  10.089  19.045  0.00  0.00    +0.000 C 
BRANCH   5   6
ATOM      6  C   UNL     1      -0.176  10.182  20.515  0.00  0.00    +0.000 A 
ATOM      7  C   UNL     1      -0.574  11.393  21.105  0.00  0.00    +0.000 A 
ATOM      8  C   UNL     1      -0.914  11.465  22.460  0.00  0.00    +0.000 A 
ATOM      9  C   UNL     1      -0.865  10.322  23.253  0.00  0.00    +0.000 A 
ATOM     10  C   UNL     1      -0.479   9.109  22.692  0.00  0.00    +0.000 A 
ATOM     11  C   UNL     1      -0.143   9.043  21.338  0.00  0.00    +0.000 A 
ENDBRANCH   5   6
ENDBRANCH   1   3
BRANCH   1  12
ATOM     12  C   UNL     1       2.986   7.997  17.775  0.00  0.00    +0.000 C 
BRANCH  12  17
ATOM     13 BR   UNL     1       1.227   2.900  20.844  0.00  0.00    +0.000 Br
ATOM     14  C   UNL     1       1.785   4.448  19.914  0.00  0.00    +0.000 A 
ATOM     15  C   UNL     1       1.905   5.659  20.594  0.00  0.00    +0.000 A 
ATOM     16  C   UNL     1       2.308   6.802  19.902  0.00  0.00    +0.000 A 
ATOM     17  C   UNL     1       2.599   6.746  18.530  0.00  0.00    +0.000 A 
ATOM     18  C   UNL     1       2.474   5.518  17.863  0.00  0.00    +0.000 A 
ATOM     19  C   UNL     1       2.069   4.372  18.551  0.00  0.00    +0.000 A 
ENDBRANCH  12  17
ENDBRANCH   1  12
TORSDOF 4
ENDMDL
MODEL 5
REMARK VINA RESULT:      -6.3      3.610      6.652
REMARK  Name = 
REMARK  4 active torsions:
REMARK  status: ('A' for Active; 'I' for Inactive)
REMARK    1  A    between atoms: C_5  and  C_6
REMARK    2  A    between atoms: C_6  and  N_7
REMARK    3  A    between atoms: N_7  and  C_8
REMARK    4  A    between atoms: C_10  and  C_11
REMARK                            x       y       z     vdW  Elec       q    Type
REMARK                         _______ _______ _______ _____ _____    ______ ____
ROOT
ATOM      1  N   UNL     1       2.494   8.898  18.109  0.00  0.00    +0.000 NA
ATOM      2  H   UNL     1       2.742   9.115  19.075  0.00  0.00    +0.000 HD
ENDROOT
BRANCH   1   3
ATOM      3  C   UNL     1       2.515   7.447  17.862  0.00  0.00    +0.000 C 
ATOM      4  C   UNL     1       3.821   6.737  17.686  0.00  0.00    +0.000 C 
ATOM      5  C   UNL     1       3.017   6.508  18.942  0.00  0.00    +0.000 C 
BRANCH   5   6
ATOM      6  C   UNL     1       2.288   5.208  19.182  0.00  0.00    +0.000 A 
ATOM      7  C   UNL     1       1.788   4.868  20.450  0.00  0.00    +0.000 A 
ATOM      8  C   UNL     1       1.081   3.679  20.657  0.00  0.00    +0.000 A 
ATOM      9  C   UNL     1       0.858   2.806  19.597  0.00  0.00    +0.000 A 
ATOM     10  C   UNL     1       1.339   3.122  18.330  0.00  0.00    +0.000 A 
ATOM     11  C   UNL     1       2.041   4.312  18.128  0.00  0.00    +0.000 A 
ENDBRANCH   5   6
ENDBRANCH   1   3
BRANCH   1  12
ATOM     12  C   UNL     1       1.178   9.475  17.828  0.00  0.00    +0.000 C 
BRANCH  12  17
ATOM     13 BR   UNL     1      -1.496  11.604  23.005  0.00  0.00    +0.000 Br
ATOM     14  C   UNL     1      -0.699  10.941  21.425  0.00  0.00    +0.000 A 
ATOM     15  C   UNL     1       0.154   9.841  21.488  0.00  0.00    +0.000 A 
ATOM     16  C   UNL     1       0.748   9.359  20.320  0.00  0.00    +0.000 A 
ATOM     17  C   UNL     1       0.493   9.969  19.082  0.00  0.00    +0.000 A 
ATOM     18  C   UNL     1      -0.370  11.074  19.037  0.00  0.00    +0.000 A 
ATOM     19  C   UNL     1      -0.965  11.560  20.204  0.00  0.00    +0.000 A 
ENDBRANCH  12  17
ENDBRANCH   1  12
TORSDOF 4
ENDMDL
MODEL 6
REMARK VINA RESULT:      -6.3      1.088      1.944
REMARK  Name = 
REMARK  4 active torsions:
REMARK  status: ('A' for Active; 'I' for Inactive)
REMARK    1  A    between atoms: C_5  and  C_6
REMARK    2  A    between atoms: C_6  and  N_7
REMARK    3  A    between atoms: N_7  and  C_8
REMARK    4  A    between atoms: C_10  and  C_11
REMARK                            x       y       z     vdW  Elec       q    Type
REMARK                         _______ _______ _______ _____ _____    ______ ____
ROOT
ATOM      1  N   UNL     1       3.123   2.823  20.912  0.00  0.00    +0.000 NA
ATOM      2  H   UNL     1       3.510   3.228  21.765  0.00  0.00    +0.000 HD
ENDROOT
BRANCH   1   3
ATOM      3  C   UNL     1       2.310   3.802  20.173  0.00  0.00    +0.000 C 
ATOM      4  C   UNL     1       0.877   4.021  20.549  0.00  0.00    +0.000 C 
ATOM      5  C   UNL     1       1.893   5.095  20.848  0.00  0.00    +0.000 C 
BRANCH   5   6
ATOM      6  C   UNL     1       1.932   6.381  20.058  0.00  0.00    +0.000 A 
ATOM      7  C   UNL     1       2.374   6.413  18.725  0.00  0.00    +0.000 A 
ATOM      8  C   UNL     1       2.373   7.601  17.988  0.00  0.00    +0.000 A 
ATOM      9  C   UNL     1       1.927   8.784  18.570  0.00  0.00    +0.000 A 
ATOM     10  C   UNL     1       1.480   8.778  19.888  0.00  0.00    +0.000 A 
ATOM     11  C   UNL     1       1.480   7.588  20.618  0.00  0.00    +0.000 A 
ENDBRANCH   5   6
ENDBRANCH   1   3
BRANCH   1  12
ATOM     12  C   UNL     1       4.229   2.315  20.097  0.00  0.00    +0.000 C 
BRANCH  12  17
ATOM     13 BR   UNL     1       5.495   6.235  15.458  0.00  0.00    +0.000 Br
ATOM     14  C   UNL     1       5.128   5.028  16.866  0.00  0.00    +0.000 A 
ATOM     15  C   UNL     1       4.306   3.925  16.636  0.00  0.00    +0.000 A 
ATOM     16  C   UNL     1       4.030   3.041  17.680  0.00  0.00    +0.000 A 
ATOM     17  C   UNL     1       4.572   3.247  18.958  0.00  0.00    +0.000 A 
ATOM     18  C   UNL     1       5.398   4.361  19.170  0.00  0.00    +0.000 A 
ATOM     19  C   UNL     1       5.676   5.250  18.128  0.00  0.00    +0.000 A 
ENDBRANCH  12  17
ENDBRANCH   1  12
TORSDOF 4
ENDMDL
MODEL 7
REMARK VINA RESULT:      -6.2      1.279      1.936
REMARK  Name = 
REMARK  4 active torsions:
REMARK  status: ('A' for Active; 'I' for Inactive)
REMARK    1  A    between atoms: C_5  and  C_6
REMARK    2  A    between atoms: C_6  and  N_7
REMARK    3  A    between atoms: N_7  and  C_8
REMARK    4  A    between atoms: C_10  and  C_11
REMARK                            x       y       z     vdW  Elec       q    Type
REMARK                         _______ _______ _______ _____ _____    ______ ____
ROOT
ATOM      1  N   UNL     1       4.403   2.919  17.666  0.00  0.00    +0.000 NA
ATOM      2  H   UNL     1       5.083   2.864  18.425  0.00  0.00    +0.000 HD
ENDROOT
BRANCH   1   3
ATOM      3  C   UNL     1       3.223   3.706  18.057  0.00  0.00    +0.000 C 
ATOM      4  C   UNL     1       2.318   3.208  19.141  0.00  0.00    +0.000 C 
ATOM      5  C   UNL     1       3.198   4.406  19.402  0.00  0.00    +0.000 C 
BRANCH   5   6
ATOM      6  C   UNL     1       2.622   5.798  19.494  0.00  0.00    +0.000 A 
ATOM      7  C   UNL     1       1.904   6.225  20.624  0.00  0.00    +0.000 A 
ATOM      8  C   UNL     1       1.404   7.527  20.718  0.00  0.00    +0.000 A 
ATOM      9  C   UNL     1       1.616   8.433  19.682  0.00  0.00    +0.000 A 
ATOM     10  C   UNL     1       2.327   8.036  18.554  0.00  0.00    +0.000 A 
ATOM     11  C   UNL     1       2.826   6.735  18.467  0.00  0.00    +0.000 A 
ENDBRANCH   5   6
ENDBRANCH   1   3
BRANCH   1  12
ATOM     12  C   UNL     1       5.068   3.490  16.491  0.00  0.00    +0.000 C 
BRANCH  12  17
ATOM     13 BR   UNL     1       8.126   8.672  17.999  0.00  0.00    +0.000 Br
ATOM     14  C   UNL     1       7.210   7.090  17.522  0.00  0.00    +0.000 A 
ATOM     15  C   UNL     1       6.175   7.142  16.590  0.00  0.00    +0.000 A 
ATOM     16  C   UNL     1       5.493   5.974  16.247  0.00  0.00    +0.000 A 
ATOM     17  C   UNL     1       5.841   4.744  16.828  0.00  0.00    +0.000 A 
ATOM     18  C   UNL     1       6.887   4.709  17.763  0.00  0.00    +0.000 A 
ATOM     19  C   UNL     1       7.570   5.878  18.110  0.00  0.00    +0.000 A 
ENDBRANCH  12  17
ENDBRANCH   1  12
TORSDOF 4
ENDMDL
MODEL 8
REMARK VINA RESULT:      -6.2      3.094      6.175
REMARK  Name = 
REMARK  4 active torsions:
REMARK  status: ('A' for Active; 'I' for Inactive)
REMARK    1  A    between atoms: C_5  and  C_6
REMARK    2  A    between atoms: C_6  and  N_7
REMARK    3  A    between atoms: N_7  and  C_8
REMARK    4  A    between atoms: C_10  and  C_11
REMARK                            x       y       z     vdW  Elec       q    Type
REMARK                         _______ _______ _______ _____ _____    ______ ____
ROOT
ATOM      1  N   UNL     1       3.359   8.092  17.940  0.00  0.00    +0.000 NA
ATOM      2  H   UNL     1       3.670   8.283  18.893  0.00  0.00    +0.000 HD
ENDROOT
BRANCH   1   3
ATOM      3  C   UNL     1       3.302   6.647  17.672  0.00  0.00    +0.000 C 
ATOM      4  C   UNL     1       4.560   5.834  17.681  0.00  0.00    +0.000 C 
ATOM      5  C   UNL     1       3.561   5.663  18.798  0.00  0.00    +0.000 C 
BRANCH   5   6
ATOM      6  C   UNL     1       2.703   4.425  18.901  0.00  0.00    +0.000 A 
ATOM      7  C   UNL     1       1.663   4.326  19.841  0.00  0.00    +0.000 A 
ATOM      8  C   UNL     1       0.850   3.190  19.907  0.00  0.00    +0.000 A 
ATOM      9  C   UNL     1       1.059   2.130  19.030  0.00  0.00    +0.000 A 
ATOM     10  C   UNL     1       2.079   2.205  18.087  0.00  0.00    +0.000 A 
ATOM     11  C   UNL     1       2.887   3.343  18.024  0.00  0.00    +0.000 A 
ENDBRANCH   5   6
ENDBRANCH   1   3
BRANCH   1  12
ATOM     12  C   UNL     1       2.055   8.730  17.742  0.00  0.00    +0.000 C 
BRANCH  12  17
ATOM     13 BR   UNL     1      -0.746  10.228  23.071  0.00  0.00    +0.000 Br
ATOM     14  C   UNL     1       0.125   9.785  21.453  0.00  0.00    +0.000 A 
ATOM     15  C   UNL     1      -0.098  10.555  20.313  0.00  0.00    +0.000 A 
ATOM     16  C   UNL     1       0.540  10.221  19.117  0.00  0.00    +0.000 A 
ATOM     17  C   UNL     1       1.407   9.118  19.051  0.00  0.00    +0.000 A 
ATOM     18  C   UNL     1       1.620   8.356  20.209  0.00  0.00    +0.000 A 
ATOM     19  C   UNL     1       0.983   8.686  21.407  0.00  0.00    +0.000 A 
ENDBRANCH  12  17
ENDBRANCH   1  12
TORSDOF 4
ENDMDL
MODEL 9
REMARK VINA RESULT:      -6.2      4.492      6.301
REMARK  Name = 
REMARK  4 active torsions:
REMARK  status: ('A' for Active; 'I' for Inactive)
REMARK    1  A    between atoms: C_5  and  C_6
REMARK    2  A    between atoms: C_6  and  N_7
REMARK    3  A    between atoms: N_7  and  C_8
REMARK    4  A    between atoms: C_10  and  C_11
REMARK                            x       y       z     vdW  Elec       q    Type
REMARK                         _______ _______ _______ _____ _____    ______ ____
ROOT
ATOM      1  N   UNL     1       8.045   7.495  18.362  0.00  0.00    +0.000 NA
ATOM      2  H   UNL     1       7.772   7.719  19.319  0.00  0.00    +0.000 HD
ENDROOT
BRANCH   1   3
ATOM      3  C   UNL     1       7.205   6.426  17.799  0.00  0.00    +0.000 C 
ATOM      4  C   UNL     1       7.594   4.993  17.987  0.00  0.00    +0.000 C 
ATOM      5  C   UNL     1       6.397   5.538  18.726  0.00  0.00    +0.000 C 
BRANCH   5   6
ATOM      6  C   UNL     1       4.991   5.155  18.334  0.00  0.00    +0.000 A 
ATOM      7  C   UNL     1       4.728   4.015  17.557  0.00  0.00    +0.000 A 
ATOM      8  C   UNL     1       3.420   3.645  17.228  0.00  0.00    +0.000 A 
ATOM      9  C   UNL     1       2.346   4.410  17.673  0.00  0.00    +0.000 A 
ATOM     10  C   UNL     1       2.579   5.542  18.448  0.00  0.00    +0.000 A 
ATOM     11  C   UNL     1       3.887   5.904  18.776  0.00  0.00    +0.000 A 
ENDBRANCH   5   6
ENDBRANCH   1   3
BRANCH   1  12
ATOM     12  C   UNL     1       7.969   8.720  17.561  0.00  0.00    +0.000 C 
BRANCH  12  17
ATOM     13 BR   UNL     1      10.527  13.572  20.458  0.00  0.00    +0.000 Br
ATOM     14  C   UNL     1       9.728  12.098  19.586  0.00  0.00    +0.000 A 
ATOM     15  C   UNL     1       9.759  10.840  20.183  0.00  0.00    +0.000 A 
ATOM     16  C   UNL     1       9.176   9.751  19.533  0.00  0.00    +0.000 A 
ATOM     17  C   UNL     1       8.555   9.911  18.284  0.00  0.00    +0.000 A 
ATOM     18  C   UNL     1       8.531  11.185  17.699  0.00  0.00    +0.000 A 
ATOM     19  C   UNL     1       9.115  12.277  18.346  0.00  0.00    +0.000 A 
ENDBRANCH  12  17
ENDBRANCH   1  12
TORSDOF 4
ENDMDL
