MODEL 1
REMARK VINA RESULT:      -7.4      0.000      0.000
REMARK  Name = 
REMARK  4 active torsions:
REMARK  status: ('A' for Active; 'I' for Inactive)
REMARK    1  A    between atoms: N_4  and  C_5
REMARK    2  A    between atoms: C_5  and  C_6
REMARK    3  A    between atoms: C_6  and  C_7
REMARK    4  A    between atoms: C_6  and  N_12
REMARK                            x       y       z     vdW  Elec       q    Type
REMARK                         _______ _______ _______ _____ _____    ______ ____
ROOT
ATOM      1  C   UNL     1       2.872   5.612  18.090  0.00  0.00    +0.000 C 
ENDROOT
BRANCH   1   5
ATOM      2  C   UNL     1       1.931   9.547  17.720  0.00  0.00    +0.000 A 
ATOM      3  N   UNL     1       2.443   8.323  17.910  0.00  0.00    +0.000 NA
ATOM      4  C   UNL     1       2.237   7.697  19.093  0.00  0.00    +0.000 A 
ATOM      5  N   UNL     1       2.759   6.413  19.310  0.00  0.00    +0.000 N 
ATOM      6  C   UNL     1       1.493   8.374  20.082  0.00  0.00    +0.000 A 
ATOM      7  C   UNL     1       1.088   8.022  21.417  0.00  0.00    +0.000 A 
ATOM      8  C   UNL     1       0.347   9.014  22.021  0.00  0.00    +0.000 A 
ATOM      9  S   UNL     1       0.131  10.364  20.999  0.00  0.00    +0.000 S 
ATOM     10  C   UNL     1       1.026   9.632  19.744  0.00  0.00    +0.000 A 
ATOM     11  N   UNL     1       1.209  10.272  18.576  0.00  0.00    +0.000 NA
ATOM     12  H   UNL     1       2.212   5.956  20.041  0.00  0.00    +0.000 HD
ENDBRANCH   1   5
BRANCH   1  13
ATOM     13  C   UNL     1       4.208   4.783  18.018  0.00  0.00    +0.000 C 
BRANCH  13  14
ATOM     14  C   UNL     1       3.951   3.226  17.986  0.00  0.00    +0.000 C 
ATOM     15  C   UNL     1       2.559   2.776  17.561  0.00  0.00    +0.000 C 
ATOM     16  C   UNL     1       1.800   2.584  18.865  0.00  0.00    +0.000 C 
ATOM     17  O   UNL     1       2.770   2.531  19.925  0.00  0.00    +0.000 OA
ATOM     18  C   UNL     1       4.076   2.529  19.334  0.00  0.00    +0.000 C 
ENDBRANCH  13  14
BRANCH  13  19
ATOM     19  N   UNL     1       5.019   5.264  16.840  0.00  0.00    +0.000 NA
ATOM     20  C   UNL     1       6.149   4.400  16.443  0.00  0.00    +0.000 C 
ATOM     21  C   UNL     1       7.267   4.744  17.407  0.00  0.00    +0.000 C 
ATOM     22  C   UNL     1       7.132   6.243  17.562  0.00  0.00    +0.000 C 
ATOM     23  C   UNL     1       5.708   6.556  17.108  0.00  0.00    +0.000 C 
ENDBRANCH  13  19
ENDBRANCH   1  13
TORSDOF 4
ENDMDL
MODEL 2
REMARK VINA RESULT:      -7.3      1.237      1.471
REMARK  Name = 
REMARK  4 active torsions:
REMARK  status: ('A' for Active; 'I' for Inactive)
REMARK    1  A    between atoms: N_4  and  C_5
REMARK    2  A    between atoms: C_5  and  C_6
REMARK    3  A    between atoms: C_6  and  C_7
REMARK    4  A    between atoms: C_6  and  N_12
REMARK                            x       y       z     vdW  Elec       q    Type
REMARK                         _______ _______ _______ _____ _____    ______ ____
ROOT
ATOM      1  C   UNL     1       2.435   5.608  18.968  0.00  0.00    +0.000 C 
ENDROOT
BRANCH   1   5
ATOM      2  C   UNL     1       1.663   9.465  17.956  0.00  0.00    +0.000 A 
ATOM      3  N   UNL     1       2.125   8.266  18.335  0.00  0.00    +0.000 NA
ATOM      4  C   UNL     1       1.950   7.866  19.617  0.00  0.00    +0.000 A 
ATOM      5  N   UNL     1       2.421   6.611  20.033  0.00  0.00    +0.000 N 
ATOM      6  C   UNL     1       1.288   8.742  20.502  0.00  0.00    +0.000 A 
ATOM      7  C   UNL     1       0.934   8.648  21.893  0.00  0.00    +0.000 A 
ATOM      8  C   UNL     1       0.271   9.769  22.345  0.00  0.00    +0.000 A 
ATOM      9  S   UNL     1       0.068  10.933  21.113  0.00  0.00    +0.000 S 
ATOM     10  C   UNL     1       0.864   9.948  19.969  0.00  0.00    +0.000 A 
ATOM     11  N   UNL     1       1.020  10.366  18.701  0.00  0.00    +0.000 NA
ATOM     12  H   UNL     1       1.889   6.317  20.854  0.00  0.00    +0.000 HD
ENDBRANCH   1   5
BRANCH   1  13
ATOM     13  C   UNL     1       3.487   4.463  19.213  0.00  0.00    +0.000 C 
BRANCH  13  14
ATOM     14  C   UNL     1       2.807   3.082  19.565  0.00  0.00    +0.000 C 
ATOM     15  C   UNL     1       1.376   3.143  20.082  0.00  0.00    +0.000 C 
ATOM     16  C   UNL     1       1.511   3.135  21.597  0.00  0.00    +0.000 C 
ATOM     17  O   UNL     1       2.846   2.702  21.908  0.00  0.00    +0.000 OA
ATOM     18  C   UNL     1       3.482   2.305  20.686  0.00  0.00    +0.000 C 
ENDBRANCH  13  14
BRANCH  13  19
ATOM     19  N   UNL     1       4.400   4.374  18.015  0.00  0.00    +0.000 NA
ATOM     20  C   UNL     1       5.844   4.288  18.314  0.00  0.00    +0.000 C 
ATOM     21  C   UNL     1       6.276   5.716  18.589  0.00  0.00    +0.000 C 
ATOM     22  C   UNL     1       5.488   6.510  17.571  0.00  0.00    +0.000 C 
ATOM     23  C   UNL     1       4.341   5.589  17.158  0.00  0.00    +0.000 C 
ENDBRANCH  13  19
ENDBRANCH   1  13
TORSDOF 4
ENDMDL
MODEL 3
REMARK VINA RESULT:      -7.2      1.623      2.282
REMARK  Name = 
REMARK  4 active torsions:
REMARK  status: ('A' for Active; 'I' for Inactive)
REMARK    1  A    between atoms: N_4  and  C_5
REMARK    2  A    between atoms: C_5  and  C_6
REMARK    3  A    between atoms: C_6  and  C_7
REMARK    4  A    between atoms: C_6  and  N_12
REMARK                            x       y       z     vdW  Elec       q    Type
REMARK                         _______ _______ _______ _____ _____    ______ ____
ROOT
ATOM      1  C   UNL     1       2.306   6.740  19.383  0.00  0.00    +0.000 C 
ENDROOT
BRANCH   1   5
ATOM      2  C   UNL     1       0.698  10.410  18.710  0.00  0.00    +0.000 A 
ATOM      3  N   UNL     1       1.418   9.311  18.978  0.00  0.00    +0.000 NA
ATOM      4  C   UNL     1       1.384   8.788  20.227  0.00  0.00    +0.000 A 
ATOM      5  N   UNL     1       2.125   7.635  20.527  0.00  0.00    +0.000 N 
ATOM      6  C   UNL     1       0.589   9.434  21.197  0.00  0.00    +0.000 A 
ATOM      7  C   UNL     1       0.321   9.163  22.584  0.00  0.00    +0.000 A 
ATOM      8  C   UNL     1      -0.544  10.079  23.142  0.00  0.00    +0.000 A 
ATOM      9  S   UNL     1      -1.038  11.262  22.015  0.00  0.00    +0.000 S 
ATOM     10  C   UNL     1      -0.100  10.558  20.775  0.00  0.00    +0.000 A 
ATOM     11  N   UNL     1      -0.089  11.094  19.542  0.00  0.00    +0.000 NA
ATOM     12  H   UNL     1       1.702   7.174  21.334  0.00  0.00    +0.000 HD
ENDBRANCH   1   5
BRANCH   1  13
ATOM     13  C   UNL     1       2.743   5.287  19.800  0.00  0.00    +0.000 C 
BRANCH  13  14
ATOM     14  C   UNL     1       1.530   4.415  20.310  0.00  0.00    +0.000 C 
ATOM     15  C   UNL     1       1.760   3.611  21.584  0.00  0.00    +0.000 C 
ATOM     16  C   UNL     1       2.177   2.231  21.100  0.00  0.00    +0.000 C 
ATOM     17  O   UNL     1       1.826   2.137  19.709  0.00  0.00    +0.000 OA
ATOM     18  C   UNL     1       1.089   3.314  19.355  0.00  0.00    +0.000 C 
ENDBRANCH  13  14
BRANCH  13  19
ATOM     19  N   UNL     1       3.477   4.647  18.647  0.00  0.00    +0.000 NA
ATOM     20  C   UNL     1       4.748   3.976  18.988  0.00  0.00    +0.000 C 
ATOM     21  C   UNL     1       5.772   5.091  19.076  0.00  0.00    +0.000 C 
ATOM     22  C   UNL     1       5.372   6.007  17.940  0.00  0.00    +0.000 C 
ATOM     23  C   UNL     1       3.923   5.639  17.631  0.00  0.00    +0.000 C 
ENDBRANCH  13  19
ENDBRANCH   1  13
TORSDOF 4
ENDMDL
MODEL 4
REMARK VINA RESULT:      -7.2      1.273      1.538
REMARK  Name = 
REMARK  4 active torsions:
REMARK  status: ('A' for Active; 'I' for Inactive)
REMARK    1  A    between atoms: N_4  and  C_5
REMARK    2  A    between atoms: C_5  and  C_6
REMARK    3  A    between atoms: C_6  and  C_7
REMARK    4  A    between atoms: C_6  and  N_12
REMARK                            x       y       z     vdW  Elec       q    Type
REMARK                         _______ _______ _______ _____ _____    ______ ____
ROOT
ATOM      1  C   UNL     1       2.346   5.670  19.289  0.00  0.00    +0.000 C 
ENDROOT
BRANCH   1   5
ATOM      2  C   UNL     1       1.622   9.475  18.063  0.00  0.00    +0.000 A 
ATOM      3  N   UNL     1       2.067   8.295  18.516  0.00  0.00    +0.000 NA
ATOM      4  C   UNL     1       1.848   7.959  19.809  0.00  0.00    +0.000 A 
ATOM      5  N   UNL     1       2.301   6.725  20.302  0.00  0.00    +0.000 N 
ATOM      6  C   UNL     1       1.161   8.879  20.628  0.00  0.00    +0.000 A 
ATOM      7  C   UNL     1       0.762   8.855  22.010  0.00  0.00    +0.000 A 
ATOM      8  C   UNL     1       0.088   9.998  22.384  0.00  0.00    +0.000 A 
ATOM      9  S   UNL     1      -0.070  11.100  21.090  0.00  0.00    +0.000 S 
ATOM     10  C   UNL     1       0.760  10.058  20.023  0.00  0.00    +0.000 A 
ATOM     11  N   UNL     1       0.958  10.413  18.741  0.00  0.00    +0.000 NA
ATOM     12  H   UNL     1       1.741   6.473  21.119  0.00  0.00    +0.000 HD
ENDBRANCH   1   5
BRANCH   1  13
ATOM     13  C   UNL     1       3.493   4.623  19.540  0.00  0.00    +0.000 C 
BRANCH  13  14
ATOM     14  C   UNL     1       2.956   3.277  20.167  0.00  0.00    +0.000 C 
ATOM     15  C   UNL     1       2.750   2.115  19.203  0.00  0.00    +0.000 C 
ATOM     16  C   UNL     1       1.281   2.187  18.819  0.00  0.00    +0.000 C 
ATOM     17  O   UNL     1       0.627   3.041  19.773  0.00  0.00    +0.000 OA
ATOM     18  C   UNL     1       1.574   3.372  20.797  0.00  0.00    +0.000 C 
ENDBRANCH  13  14
BRANCH  13  19
ATOM     19  N   UNL     1       4.248   4.405  18.252  0.00  0.00    +0.000 NA
ATOM     20  C   UNL     1       5.715   4.291  18.378  0.00  0.00    +0.000 C 
ATOM     21  C   UNL     1       6.214   5.720  18.478  0.00  0.00    +0.000 C 
ATOM     22  C   UNL     1       5.327   6.458  17.501  0.00  0.00    +0.000 C 
ATOM     23  C   UNL     1       4.114   5.550  17.309  0.00  0.00    +0.000 C 
ENDBRANCH  13  19
ENDBRANCH   1  13
TORSDOF 4
ENDMDL
MODEL 5
REMARK VINA RESULT:      -7.0      1.510      3.248
REMARK  Name = 
REMARK  4 active torsions:
REMARK  status: ('A' for Active; 'I' for Inactive)
REMARK    1  A    between atoms: N_4  and  C_5
REMARK    2  A    between atoms: C_5  and  C_6
REMARK    3  A    between atoms: C_6  and  C_7
REMARK    4  A    between atoms: C_6  and  N_12
REMARK                            x       y       z     vdW  Elec       q    Type
REMARK                         _______ _______ _______ _____ _____    ______ ____
ROOT
ATOM      1  C   UNL     1       2.403   5.549  18.752  0.00  0.00    +0.000 C 
ENDROOT
BRANCH   1   5
ATOM      2  C   UNL     1       1.645   9.426  17.808  0.00  0.00    +0.000 A 
ATOM      3  N   UNL     1       2.107   8.216  18.153  0.00  0.00    +0.000 NA
ATOM      4  C   UNL     1       2.001   7.812  19.441  0.00  0.00    +0.000 A 
ATOM      5  N   UNL     1       2.472   6.546  19.822  0.00  0.00    +0.000 N 
ATOM      6  C   UNL     1       1.410   8.695  20.369  0.00  0.00    +0.000 A 
ATOM      7  C   UNL     1       1.139   8.599  21.778  0.00  0.00    +0.000 A 
ATOM      8  C   UNL     1       0.526   9.729  22.275  0.00  0.00    +0.000 A 
ATOM      9  S   UNL     1       0.271  10.904  21.062  0.00  0.00    +0.000 S 
ATOM     10  C   UNL     1       0.978   9.911  19.868  0.00  0.00    +0.000 A 
ATOM     11  N   UNL     1       1.065  10.334  18.595  0.00  0.00    +0.000 NA
ATOM     12  H   UNL     1       1.986   6.257  20.672  0.00  0.00    +0.000 HD
ENDBRANCH   1   5
BRANCH   1  13
ATOM     13  C   UNL     1       3.757   4.773  18.545  0.00  0.00    +0.000 C 
BRANCH  13  14
ATOM     14  C   UNL     1       5.006   5.739  18.503  0.00  0.00    +0.000 C 
ATOM     15  C   UNL     1       5.653   5.953  17.141  0.00  0.00    +0.000 C 
ATOM     16  C   UNL     1       6.791   4.947  17.091  0.00  0.00    +0.000 C 
ATOM     17  O   UNL     1       7.026   4.493  18.435  0.00  0.00    +0.000 OA
ATOM     18  C   UNL     1       6.204   5.269  19.317  0.00  0.00    +0.000 C 
ENDBRANCH  13  14
BRANCH  13  19
ATOM     19  N   UNL     1       3.879   3.709  19.607  0.00  0.00    +0.000 NA
ATOM     20  C   UNL     1       4.308   2.377  19.135  0.00  0.00    +0.000 C 
ATOM     21  C   UNL     1       3.054   1.734  18.576  0.00  0.00    +0.000 C 
ATOM     22  C   UNL     1       1.983   2.178  19.547  0.00  0.00    +0.000 C 
ATOM     23  C   UNL     1       2.576   3.394  20.255  0.00  0.00    +0.000 C 
ENDBRANCH  13  19
ENDBRANCH   1  13
TORSDOF 4
ENDMDL
MODEL 6
REMARK VINA RESULT:      -6.9      0.677      1.172
REMARK  Name = 
REMARK  4 active torsions:
REMARK  status: ('A' for Active; 'I' for Inactive)
REMARK    1  A    between atoms: N_4  and  C_5
REMARK    2  A    between atoms: C_5  and  C_6
REMARK    3  A    between atoms: C_6  and  C_7
REMARK    4  A    between atoms: C_6  and  N_12
REMARK                            x       y       z     vdW  Elec       q    Type
REMARK                         _______ _______ _______ _____ _____    ______ ____
ROOT
ATOM      1  C   UNL     1       3.073   5.822  18.505  0.00  0.00    +0.000 C 
ENDROOT
BRANCH   1   5
ATOM      2  C   UNL     1       1.832   9.632  17.834  0.00  0.00    +0.000 A 
ATOM      3  N   UNL     1       2.430   8.470  18.135  0.00  0.00    +0.000 NA
ATOM      4  C   UNL     1       2.181   7.890  19.332  0.00  0.00    +0.000 A 
ATOM      5  N   UNL     1       2.791   6.671  19.663  0.00  0.00    +0.000 N 
ATOM      6  C   UNL     1       1.301   8.546  20.219  0.00  0.00    +0.000 A 
ATOM      7  C   UNL     1       0.818   8.228  21.535  0.00  0.00    +0.000 A 
ATOM      8  C   UNL     1      -0.054   9.178  22.021  0.00  0.00    +0.000 A 
ATOM      9  S   UNL     1      -0.299  10.450  20.908  0.00  0.00    +0.000 S 
ATOM     10  C   UNL     1       0.757   9.739  19.772  0.00  0.00    +0.000 A 
ATOM     11  N   UNL     1       0.983  10.332  18.587  0.00  0.00    +0.000 NA
ATOM     12  H   UNL     1       2.225   6.204  20.374  0.00  0.00    +0.000 HD
ENDBRANCH   1   5
BRANCH   1  13
ATOM     13  C   UNL     1       4.257   4.815  18.752  0.00  0.00    +0.000 C 
BRANCH  13  14
ATOM     14  C   UNL     1       3.991   3.399  18.108  0.00  0.00    +0.000 C 
ATOM     15  C   UNL     1       2.697   3.245  17.319  0.00  0.00    +0.000 C 
ATOM     16  C   UNL     1       1.706   2.661  18.312  0.00  0.00    +0.000 C 
ATOM     17  O   UNL     1       2.459   2.153  19.426  0.00  0.00    +0.000 OA
ATOM     18  C   UNL     1       3.853   2.259  19.106  0.00  0.00    +0.000 C 
ENDBRANCH  13  14
BRANCH  13  19
ATOM     19  N   UNL     1       5.542   5.443  18.268  0.00  0.00    +0.000 NA
ATOM     20  C   UNL     1       5.390   6.562  17.316  0.00  0.00    +0.000 C 
ATOM     21  C   UNL     1       5.155   5.905  15.970  0.00  0.00    +0.000 C 
ATOM     22  C   UNL     1       6.086   4.713  16.007  0.00  0.00    +0.000 C 
ATOM     23  C   UNL     1       6.384   4.495  17.489  0.00  0.00    +0.000 C 
ENDBRANCH  13  19
ENDBRANCH   1  13
TORSDOF 4
ENDMDL
MODEL 7
REMARK VINA RESULT:      -6.8      1.908      3.935
REMARK  Name = 
REMARK  4 active torsions:
REMARK  status: ('A' for Active; 'I' for Inactive)
REMARK    1  A    between atoms: N_4  and  C_5
REMARK    2  A    between atoms: C_5  and  C_6
REMARK    3  A    between atoms: C_6  and  C_7
REMARK    4  A    between atoms: C_6  and  N_12
REMARK                            x       y       z     vdW  Elec       q    Type
REMARK                         _______ _______ _______ _____ _____    ______ ____
ROOT
ATOM      1  C   UNL     1       4.000   5.533  18.760  0.00  0.00    +0.000 C 
ENDROOT
BRANCH   1   5
ATOM      2  C   UNL     1       1.255   7.256  21.210  0.00  0.00    +0.000 A 
ATOM      3  N   UNL     1       1.984   6.590  20.302  0.00  0.00    +0.000 NA
ATOM      4  C   UNL     1       2.329   7.211  19.149  0.00  0.00    +0.000 A 
ATOM      5  N   UNL     1       3.097   6.534  18.189  0.00  0.00    +0.000 N 
ATOM      6  C   UNL     1       1.896   8.539  18.953  0.00  0.00    +0.000 A 
ATOM      7  C   UNL     1       2.075   9.480  17.881  0.00  0.00    +0.000 A 
ATOM      8  C   UNL     1       1.467  10.691  18.135  0.00  0.00    +0.000 A 
ATOM      9  S   UNL     1       0.684  10.707  19.652  0.00  0.00    +0.000 S 
ATOM     10  C   UNL     1       1.152   9.099  19.978  0.00  0.00    +0.000 A 
ATOM     11  N   UNL     1       0.801   8.508  21.133  0.00  0.00    +0.000 NA
ATOM     12  H   UNL     1       3.577   7.223  17.608  0.00  0.00    +0.000 HD
ENDBRANCH   1   5
BRANCH   1  13
ATOM     13  C   UNL     1       4.171   4.264  17.844  0.00  0.00    +0.000 C 
BRANCH  13  14
ATOM     14  C   UNL     1       5.519   4.289  17.024  0.00  0.00    +0.000 C 
ATOM     15  C   UNL     1       6.672   5.074  17.637  0.00  0.00    +0.000 C 
ATOM     16  C   UNL     1       6.590   6.448  16.992  0.00  0.00    +0.000 C 
ATOM     17  O   UNL     1       5.741   6.333  15.837  0.00  0.00    +0.000 OA
ATOM     18  C   UNL     1       5.423   4.947  15.655  0.00  0.00    +0.000 C 
ENDBRANCH  13  14
BRANCH  13  19
ATOM     19  N   UNL     1       4.028   3.026  18.694  0.00  0.00    +0.000 NA
ATOM     20  C   UNL     1       3.265   1.916  18.088  0.00  0.00    +0.000 C 
ATOM     21  C   UNL     1       1.807   2.279  18.299  0.00  0.00    +0.000 C 
ATOM     22  C   UNL     1       1.806   2.884  19.686  0.00  0.00    +0.000 C 
ATOM     23  C   UNL     1       3.260   3.274  19.944  0.00  0.00    +0.000 C 
ENDBRANCH  13  19
ENDBRANCH   1  13
TORSDOF 4
ENDMDL
MODEL 8
REMARK VINA RESULT:      -6.8      1.267      1.662
REMARK  Name = 
REMARK  4 active torsions:
REMARK  status: ('A' for Active; 'I' for Inactive)
REMARK    1  A    between atoms: N_4  and  C_5
REMARK    2  A    between atoms: C_5  and  C_6
REMARK    3  A    between atoms: C_6  and  C_7
REMARK    4  A    between atoms: C_6  and  N_12
REMARK                            x       y       z     vdW  Elec       q    Type
REMARK                         _______ _______ _______ _____ _____    ______ ____
ROOT
ATOM      1  C   UNL     1       2.583   5.968  19.247  0.00  0.00    +0.000 C 
ENDROOT
BRANCH   1   5
ATOM      2  C   UNL     1       1.538   9.692  18.005  0.00  0.00    +0.000 A 
ATOM      3  N   UNL     1       2.076   8.559  18.479  0.00  0.00    +0.000 NA
ATOM      4  C   UNL     1       1.802   8.180  19.750  0.00  0.00    +0.000 A 
ATOM      5  N   UNL     1       2.350   6.995  20.263  0.00  0.00    +0.000 N 
ATOM      6  C   UNL     1       0.962   9.007  20.524  0.00  0.00    +0.000 A 
ATOM      7  C   UNL     1       0.469   8.917  21.872  0.00  0.00    +0.000 A 
ATOM      8  C   UNL     1      -0.350   9.974  22.206  0.00  0.00    +0.000 A 
ATOM      9  S   UNL     1      -0.534  11.073  20.913  0.00  0.00    +0.000 S 
ATOM     10  C   UNL     1       0.479  10.145  19.901  0.00  0.00    +0.000 A 
ATOM     11  N   UNL     1       0.729  10.541  18.641  0.00  0.00    +0.000 NA
ATOM     12  H   UNL     1       1.765   6.670  21.035  0.00  0.00    +0.000 HD
ENDBRANCH   1   5
BRANCH   1  13
ATOM     13  C   UNL     1       3.669   4.912  19.675  0.00  0.00    +0.000 C 
BRANCH  13  14
ATOM     14  C   UNL     1       3.230   3.430  19.355  0.00  0.00    +0.000 C 
ATOM     15  C   UNL     1       1.898   3.257  18.636  0.00  0.00    +0.000 C 
ATOM     16  C   UNL     1       0.889   3.011  19.746  0.00  0.00    +0.000 C 
ATOM     17  O   UNL     1       1.626   2.671  20.932  0.00  0.00    +0.000 OA
ATOM     18  C   UNL     1       3.010   2.550  20.577  0.00  0.00    +0.000 C 
ENDBRANCH  13  14
BRANCH  13  19
ATOM     19  N   UNL     1       4.986   5.280  19.038  0.00  0.00    +0.000 NA
ATOM     20  C   UNL     1       4.917   6.279  17.952  0.00  0.00    +0.000 C 
ATOM     21  C   UNL     1       4.493   5.497  16.723  0.00  0.00    +0.000 C 
ATOM     22  C   UNL     1       5.253   4.197  16.870  0.00  0.00    +0.000 C 
ATOM     23  C   UNL     1       5.630   4.128  18.348  0.00  0.00    +0.000 C 
ENDBRANCH  13  19
ENDBRANCH   1  13
TORSDOF 4
ENDMDL
MODEL 9
REMARK VINA RESULT:      -6.8      1.732      3.380
REMARK  Name = 
REMARK  4 active torsions:
REMARK  status: ('A' for Active; 'I' for Inactive)
REMARK    1  A    between atoms: N_4  and  C_5
REMARK    2  A    between atoms: C_5  and  C_6
REMARK    3  A    between atoms: C_6  and  C_7
REMARK    4  A    between atoms: C_6  and  N_12
REMARK                            x       y       z     vdW  Elec       q    Type
REMARK                         _______ _______ _______ _____ _____    ______ ____
ROOT
ATOM      1  C   UNL     1       2.397   6.302  17.987  0.00  0.00    +0.000 C 
ENDROOT
BRANCH   1   5
ATOM      2  C   UNL     1       1.611  10.285  18.113  0.00  0.00    +0.000 A 
ATOM      3  N   UNL     1       2.078   9.029  18.137  0.00  0.00    +0.000 NA
ATOM      4  C   UNL     1       1.900   8.280  19.251  0.00  0.00    +0.000 A 
ATOM      5  N   UNL     1       2.375   6.960  19.294  0.00  0.00    +0.000 N 
ATOM      6  C   UNL     1       1.231   8.865  20.346  0.00  0.00    +0.000 A 
ATOM      7  C   UNL     1       0.873   8.377  21.651  0.00  0.00    +0.000 A 
ATOM      8  C   UNL     1       0.203   9.320  22.401  0.00  0.00    +0.000 A 
ATOM      9  S   UNL     1      -0.001  10.786  21.550  0.00  0.00    +0.000 S 
ATOM     10  C   UNL     1       0.804  10.171  20.177  0.00  0.00    +0.000 A 
ATOM     11  N   UNL     1       0.961  10.934  19.082  0.00  0.00    +0.000 NA
ATOM     12  H   UNL     1       1.843   6.442  19.995  0.00  0.00    +0.000 HD
ENDBRANCH   1   5
BRANCH   1  13
ATOM     13  C   UNL     1       3.080   4.884  18.023  0.00  0.00    +0.000 C 
BRANCH  13  14
ATOM     14  C   UNL     1       4.642   4.960  17.811  0.00  0.00    +0.000 C 
ATOM     15  C   UNL     1       5.201   6.301  17.353  0.00  0.00    +0.000 C 
ATOM     16  C   UNL     1       5.290   6.187  15.840  0.00  0.00    +0.000 C 
ATOM     17  O   UNL     1       5.184   4.792  15.505  0.00  0.00    +0.000 OA
ATOM     18  C   UNL     1       5.185   4.040  16.726  0.00  0.00    +0.000 C 
ENDBRANCH  13  14
BRANCH  13  19
ATOM     19  N   UNL     1       2.700   4.191  19.309  0.00  0.00    +0.000 NA
ATOM     20  C   UNL     1       3.453   2.960  19.621  0.00  0.00    +0.000 C 
ATOM     21  C   UNL     1       2.796   1.873  18.792  0.00  0.00    +0.000 C 
ATOM     22  C   UNL     1       1.326   2.223  18.880  0.00  0.00    +0.000 C 
ATOM     23  C   UNL     1       1.297   3.692  19.297  0.00  0.00    +0.000 C 
ENDBRANCH  13  19
ENDBRANCH   1  13
TORSDOF 4
ENDMDL
