MODEL 1
REMARK VINA RESULT:      -7.5      0.000      0.000
REMARK  Name = 
REMARK  7 active torsions:
REMARK  status: ('A' for Active; 'I' for Inactive)
REMARK    1  A    between atoms: C_1  and  O_2
REMARK    2  A    between atoms: O_2  and  C_3
REMARK    3  A    between atoms: C_6  and  N_7
REMARK    4  A    between atoms: C_11  and  S_12
REMARK    5  A    between atoms: S_12  and  C_13
REMARK    6  A    between atoms: C_13  and  C_14
REMARK    7  A    between atoms: N_16  and  C_17
REMARK                            x       y       z     vdW  Elec       q    Type
REMARK                         _______ _______ _______ _____ _____    ______ ____
ROOT
ATOM      1  S   UNL     1       3.807   2.810  20.826  0.00  0.00    +0.000 S 
ENDROOT
BRANCH   1   6
ATOM      2  N   UNL     1       3.388   3.248  18.115  0.00  0.00    +0.000 N 
ATOM      3  C   UNL     1       2.351   2.978  17.234  0.00  0.00    +0.000 A 
ATOM      4  C   UNL     1       1.531   2.075  17.864  0.00  0.00    +0.000 A 
ATOM      5  N   UNL     1       1.968   1.824  19.134  0.00  0.00    +0.000 NA
ATOM      6  C   UNL     1       3.042   2.575  19.282  0.00  0.00    +0.000 A 
BRANCH   2  10
ATOM      7  C   UNL     1       6.703   5.674  17.063  0.00  0.00    +0.000 A 
ATOM      8  C   UNL     1       6.207   5.670  18.367  0.00  0.00    +0.000 A 
ATOM      9  C   UNL     1       5.147   4.833  18.723  0.00  0.00    +0.000 A 
ATOM     10  C   UNL     1       4.556   3.991  17.770  0.00  0.00    +0.000 A 
ATOM     11  C   UNL     1       5.068   3.984  16.466  0.00  0.00    +0.000 A 
ATOM     12  C   UNL     1       6.137   4.823  16.116  0.00  0.00    +0.000 A 
BRANCH   7  14
ATOM     13  C   UNL     1       7.617   7.802  17.564  0.00  0.00    +0.000 C 
ATOM     14  O   UNL     1       7.696   6.584  16.836  0.00  0.00    +0.000 OA
ENDBRANCH   7  14
ENDBRANCH   2  10
ENDBRANCH   1   6
BRANCH   1  15
ATOM     15  C   UNL     1       2.519   3.706  21.734  0.00  0.00    +0.000 C 
BRANCH  15  16
ATOM     16  C   UNL     1       1.853   4.741  20.847  0.00  0.00    +0.000 C 
ATOM     17  O   UNL     1       0.725   4.550  20.394  0.00  0.00    +0.000 OA
ATOM     18  N   UNL     1       2.636   5.856  20.601  0.00  0.00    +0.000 N 
ATOM     19  H   UNL     1       3.639   5.757  20.786  0.00  0.00    +0.000 HD
BRANCH  18  20
ATOM     20  C   UNL     1       2.252   7.009  19.883  0.00  0.00    +0.000 A 
ATOM     21  C   UNL     1       2.534   7.196  18.526  0.00  0.00    +0.000 A 
ATOM     22  C   UNL     1       2.143   8.373  17.879  0.00  0.00    +0.000 A 
ATOM     23  C   UNL     1       1.469   9.359  18.589  0.00  0.00    +0.000 A 
ATOM     24  F   UNL     1       1.112  10.491  17.967  0.00  0.00    +0.000 F 
ATOM     25  C   UNL     1       1.158   9.188  19.929  0.00  0.00    +0.000 A 
ATOM     26  C   UNL     1       1.543   8.009  20.562  0.00  0.00    +0.000 A 
ATOM     27  F   UNL     1       1.239   7.848  21.860  0.00  0.00    +0.000 F 
ENDBRANCH  18  20
ENDBRANCH  15  16
ENDBRANCH   1  15
TORSDOF 6
ENDMDL
MODEL 2
REMARK VINA RESULT:      -7.5      4.679      7.424
REMARK  Name = 
REMARK  7 active torsions:
REMARK  status: ('A' for Active; 'I' for Inactive)
REMARK    1  A    between atoms: C_1  and  O_2
REMARK    2  A    between atoms: O_2  and  C_3
REMARK    3  A    between atoms: C_6  and  N_7
REMARK    4  A    between atoms: C_11  and  S_12
REMARK    5  A    between atoms: S_12  and  C_13
REMARK    6  A    between atoms: C_13  and  C_14
REMARK    7  A    between atoms: N_16  and  C_17
REMARK                            x       y       z     vdW  Elec       q    Type
REMARK                         _______ _______ _______ _____ _____    ______ ____
ROOT
ATOM      1  S   UNL     1       6.248   7.477  17.521  0.00  0.00    +0.000 S 
ENDROOT
BRANCH   1   6
ATOM      2  N   UNL     1       5.597   4.847  16.907  0.00  0.00    +0.000 N 
ATOM      3  C   UNL     1       6.150   3.872  16.088  0.00  0.00    +0.000 A 
ATOM      4  C   UNL     1       7.030   4.518  15.256  0.00  0.00    +0.000 A 
ATOM      5  N   UNL     1       7.111   5.846  15.567  0.00  0.00    +0.000 NA
ATOM      6  C   UNL     1       6.293   6.009  16.589  0.00  0.00    +0.000 A 
BRANCH   2  10
ATOM      7  C   UNL     1       2.262   3.958  19.370  0.00  0.00    +0.000 A 
ATOM      8  C   UNL     1       3.478   3.298  19.550  0.00  0.00    +0.000 A 
ATOM      9  C   UNL     1       4.589   3.628  18.770  0.00  0.00    +0.000 A 
ATOM     10  C   UNL     1       4.495   4.621  17.785  0.00  0.00    +0.000 A 
ATOM     11  C   UNL     1       3.279   5.294  17.618  0.00  0.00    +0.000 A 
ATOM     12  C   UNL     1       2.168   4.963  18.409  0.00  0.00    +0.000 A 
BRANCH   7  14
ATOM     13  C   UNL     1       1.606   2.984  21.428  0.00  0.00    +0.000 C 
ATOM     14  O   UNL     1       1.243   3.494  20.152  0.00  0.00    +0.000 OA
ENDBRANCH   7  14
ENDBRANCH   2  10
ENDBRANCH   1   6
BRANCH   1  15
ATOM     15  C   UNL     1       8.008   7.736  17.869  0.00  0.00    +0.000 C 
BRANCH  15  16
ATOM     16  C   UNL     1       8.293   9.198  18.157  0.00  0.00    +0.000 C 
ATOM     17  O   UNL     1       7.734  10.087  17.514  0.00  0.00    +0.000 OA
ATOM     18  N   UNL     1       9.224   9.402  19.160  0.00  0.00    +0.000 N 
ATOM     19  H   UNL     1       9.817   8.600  19.399  0.00  0.00    +0.000 HD
BRANCH  18  20
ATOM     20  C   UNL     1       9.623  10.645  19.695  0.00  0.00    +0.000 A 
ATOM     21  C   UNL     1       9.272  11.077  20.978  0.00  0.00    +0.000 A 
ATOM     22  C   UNL     1       9.684  12.331  21.439  0.00  0.00    +0.000 A 
ATOM     23  C   UNL     1      10.448  13.152  20.617  0.00  0.00    +0.000 A 
ATOM     24  F   UNL     1      10.824  14.359  21.059  0.00  0.00    +0.000 F 
ATOM     25  C   UNL     1      10.828  12.737  19.350  0.00  0.00    +0.000 A 
ATOM     26  C   UNL     1      10.421  11.483  18.903  0.00  0.00    +0.000 A 
ATOM     27  F   UNL     1      10.793  11.086  17.676  0.00  0.00    +0.000 F 
ENDBRANCH  18  20
ENDBRANCH  15  16
ENDBRANCH   1  15
TORSDOF 6
ENDMDL
MODEL 3
REMARK VINA RESULT:      -7.5      2.618      5.323
REMARK  Name = 
REMARK  7 active torsions:
REMARK  status: ('A' for Active; 'I' for Inactive)
REMARK    1  A    between atoms: C_1  and  O_2
REMARK    2  A    between atoms: O_2  and  C_3
REMARK    3  A    between atoms: C_6  and  N_7
REMARK    4  A    between atoms: C_11  and  S_12
REMARK    5  A    between atoms: S_12  and  C_13
REMARK    6  A    between atoms: C_13  and  C_14
REMARK    7  A    between atoms: N_16  and  C_17
REMARK                            x       y       z     vdW  Elec       q    Type
REMARK                         _______ _______ _______ _____ _____    ______ ____
ROOT
ATOM      1  S   UNL     1       2.141   3.491  17.768  0.00  0.00    +0.000 S 
ENDROOT
BRANCH   1   6
ATOM      2  N   UNL     1       2.112   4.691  20.273  0.00  0.00    +0.000 N 
ATOM      3  C   UNL     1       2.221   4.228  21.576  0.00  0.00    +0.000 A 
ATOM      4  C   UNL     1       2.031   2.869  21.522  0.00  0.00    +0.000 A 
ATOM      5  N   UNL     1       1.882   2.449  20.230  0.00  0.00    +0.000 NA
ATOM      6  C   UNL     1       1.991   3.542  19.499  0.00  0.00    +0.000 A 
BRANCH   2  10
ATOM      7  C   UNL     1       1.680   8.768  19.190  0.00  0.00    +0.000 A 
ATOM      8  C   UNL     1       1.405   8.342  20.490  0.00  0.00    +0.000 A 
ATOM      9  C   UNL     1       1.595   7.008  20.857  0.00  0.00    +0.000 A 
ATOM     10  C   UNL     1       2.056   6.073  19.919  0.00  0.00    +0.000 A 
ATOM     11  C   UNL     1       2.349   6.507  18.620  0.00  0.00    +0.000 A 
ATOM     12  C   UNL     1       2.162   7.850  18.259  0.00  0.00    +0.000 A 
BRANCH   7  14
ATOM     13  C   UNL     1       0.083  10.363  18.469  0.00  0.00    +0.000 C 
ATOM     14  O   UNL     1       1.390  10.081  18.950  0.00  0.00    +0.000 OA
ENDBRANCH   7  14
ENDBRANCH   2  10
ENDBRANCH   1   6
BRANCH   1  15
ATOM     15  C   UNL     1       3.729   2.642  17.568  0.00  0.00    +0.000 C 
BRANCH  15  16
ATOM     16  C   UNL     1       4.822   3.624  17.188  0.00  0.00    +0.000 C 
ATOM     17  O   UNL     1       5.345   3.585  16.074  0.00  0.00    +0.000 OA
ATOM     18  N   UNL     1       5.160   4.507  18.200  0.00  0.00    +0.000 N 
ATOM     19  H   UNL     1       4.868   4.245  19.147  0.00  0.00    +0.000 HD
BRANCH  18  20
ATOM     20  C   UNL     1       6.077   5.575  18.109  0.00  0.00    +0.000 A 
ATOM     21  C   UNL     1       7.261   5.635  18.853  0.00  0.00    +0.000 A 
ATOM     22  C   UNL     1       8.117   6.733  18.731  0.00  0.00    +0.000 A 
ATOM     23  C   UNL     1       7.790   7.770  17.865  0.00  0.00    +0.000 A 
ATOM     24  F   UNL     1       8.607   8.827  17.766  0.00  0.00    +0.000 F 
ATOM     25  C   UNL     1       6.635   7.724  17.100  0.00  0.00    +0.000 A 
ATOM     26  C   UNL     1       5.793   6.622  17.222  0.00  0.00    +0.000 A 
ATOM     27  F   UNL     1       4.675   6.582  16.479  0.00  0.00    +0.000 F 
ENDBRANCH  18  20
ENDBRANCH  15  16
ENDBRANCH   1  15
TORSDOF 6
ENDMDL
MODEL 4
REMARK VINA RESULT:      -7.5      3.969      7.138
REMARK  Name = 
REMARK  7 active torsions:
REMARK  status: ('A' for Active; 'I' for Inactive)
REMARK    1  A    between atoms: C_1  and  O_2
REMARK    2  A    between atoms: O_2  and  C_3
REMARK    3  A    between atoms: C_6  and  N_7
REMARK    4  A    between atoms: C_11  and  S_12
REMARK    5  A    between atoms: S_12  and  C_13
REMARK    6  A    between atoms: C_13  and  C_14
REMARK    7  A    between atoms: N_16  and  C_17
REMARK                            x       y       z     vdW  Elec       q    Type
REMARK                         _______ _______ _______ _____ _____    ______ ____
ROOT
ATOM      1  S   UNL     1       5.881   5.624  18.930  0.00  0.00    +0.000 S 
ENDROOT
BRANCH   1   6
ATOM      2  N   UNL     1       3.201   5.401  18.235  0.00  0.00    +0.000 N 
ATOM      3  C   UNL     1       2.412   4.387  17.712  0.00  0.00    +0.000 A 
ATOM      4  C   UNL     1       3.274   3.436  17.225  0.00  0.00    +0.000 A 
ATOM      5  N   UNL     1       4.571   3.774  17.487  0.00  0.00    +0.000 NA
ATOM      6  C   UNL     1       4.502   4.919  18.140  0.00  0.00    +0.000 A 
BRANCH   2  10
ATOM      7  C   UNL     1       1.450   9.052  19.492  0.00  0.00    +0.000 A 
ATOM      8  C   UNL     1       1.602   7.990  20.384  0.00  0.00    +0.000 A 
ATOM      9  C   UNL     1       2.224   6.806  19.980  0.00  0.00    +0.000 A 
ATOM     10  C   UNL     1       2.695   6.663  18.668  0.00  0.00    +0.000 A 
ATOM     11  C   UNL     1       2.557   7.738  17.780  0.00  0.00    +0.000 A 
ATOM     12  C   UNL     1       1.938   8.927  18.193  0.00  0.00    +0.000 A 
BRANCH   7  14
ATOM     13  C   UNL     1      -0.128   9.858  21.066  0.00  0.00    +0.000 C 
ATOM     14  O   UNL     1       0.769  10.124  19.997  0.00  0.00    +0.000 OA
ENDBRANCH   7  14
ENDBRANCH   2  10
ENDBRANCH   1   6
BRANCH   1  15
ATOM     15  C   UNL     1       6.740   6.397  17.533  0.00  0.00    +0.000 C 
BRANCH  15  16
ATOM     16  C   UNL     1       7.032   5.378  16.447  0.00  0.00    +0.000 C 
ATOM     17  O   UNL     1       7.842   4.471  16.635  0.00  0.00    +0.000 OA
ATOM     18  N   UNL     1       6.330   5.593  15.273  0.00  0.00    +0.000 N 
ATOM     19  H   UNL     1       5.928   6.528  15.150  0.00  0.00    +0.000 HD
BRANCH  18  20
ATOM     20  C   UNL     1       6.336   4.767  14.129  0.00  0.00    +0.000 A 
ATOM     21  C   UNL     1       5.319   3.852  13.838  0.00  0.00    +0.000 A 
ATOM     22  C   UNL     1       5.397   3.048  12.696  0.00  0.00    +0.000 A 
ATOM     23  C   UNL     1       6.492   3.161  11.847  0.00  0.00    +0.000 A 
ATOM     24  F   UNL     1       6.568   2.375  10.764  0.00  0.00    +0.000 F 
ATOM     25  C   UNL     1       7.501   4.076  12.101  0.00  0.00    +0.000 A 
ATOM     26  C   UNL     1       7.410   4.879  13.235  0.00  0.00    +0.000 A 
ATOM     27  F   UNL     1       8.390   5.763  13.477  0.00  0.00    +0.000 F 
ENDBRANCH  18  20
ENDBRANCH  15  16
ENDBRANCH   1  15
TORSDOF 6
ENDMDL
MODEL 5
REMARK VINA RESULT:      -7.5      4.525      7.296
REMARK  Name = 
REMARK  7 active torsions:
REMARK  status: ('A' for Active; 'I' for Inactive)
REMARK    1  A    between atoms: C_1  and  O_2
REMARK    2  A    between atoms: O_2  and  C_3
REMARK    3  A    between atoms: C_6  and  N_7
REMARK    4  A    between atoms: C_11  and  S_12
REMARK    5  A    between atoms: S_12  and  C_13
REMARK    6  A    between atoms: C_13  and  C_14
REMARK    7  A    between atoms: N_16  and  C_17
REMARK                            x       y       z     vdW  Elec       q    Type
REMARK                         _______ _______ _______ _____ _____    ______ ____
ROOT
ATOM      1  S   UNL     1       6.233   7.027  17.787  0.00  0.00    +0.000 S 
ENDROOT
BRANCH   1   6
ATOM      2  N   UNL     1       5.466   4.674  16.526  0.00  0.00    +0.000 N 
ATOM      3  C   UNL     1       6.017   3.876  15.533  0.00  0.00    +0.000 A 
ATOM      4  C   UNL     1       6.998   4.626  14.933  0.00  0.00    +0.000 A 
ATOM      5  N   UNL     1       7.138   5.834  15.556  0.00  0.00    +0.000 NA
ATOM      6  C   UNL     1       6.256   5.818  16.537  0.00  0.00    +0.000 A 
BRANCH   2  10
ATOM      7  C   UNL     1       2.076   3.787  18.915  0.00  0.00    +0.000 A 
ATOM      8  C   UNL     1       2.248   5.057  18.363  0.00  0.00    +0.000 A 
ATOM      9  C   UNL     1       3.340   5.332  17.536  0.00  0.00    +0.000 A 
ATOM     10  C   UNL     1       4.287   4.337  17.257  0.00  0.00    +0.000 A 
ATOM     11  C   UNL     1       4.103   3.059  17.798  0.00  0.00    +0.000 A 
ATOM     12  C   UNL     1       3.001   2.786  18.622  0.00  0.00    +0.000 A 
BRANCH   7  14
ATOM     13  C   UNL     1       1.219   2.956  20.961  0.00  0.00    +0.000 C 
ATOM     14  O   UNL     1       1.005   3.673  19.754  0.00  0.00    +0.000 OA
ENDBRANCH   7  14
ENDBRANCH   2  10
ENDBRANCH   1   6
BRANCH   1  15
ATOM     15  C   UNL     1       7.996   7.420  17.940  0.00  0.00    +0.000 C 
BRANCH  15  16
ATOM     16  C   UNL     1       8.201   8.908  18.158  0.00  0.00    +0.000 C 
ATOM     17  O   UNL     1       7.542   9.733  17.528  0.00  0.00    +0.000 OA
ATOM     18  N   UNL     1       9.184   9.209  19.086  0.00  0.00    +0.000 N 
ATOM     19  H   UNL     1       9.843   8.456  19.309  0.00  0.00    +0.000 HD
BRANCH  18  20
ATOM     20  C   UNL     1       9.534  10.494  19.549  0.00  0.00    +0.000 A 
ATOM     21  C   UNL     1       9.245  10.951  20.840  0.00  0.00    +0.000 A 
ATOM     22  C   UNL     1       9.603  12.246  21.228  0.00  0.00    +0.000 A 
ATOM     23  C   UNL     1      10.250  13.083  20.326  0.00  0.00    +0.000 A 
ATOM     24  F   UNL     1      10.574  14.327  20.700  0.00  0.00    +0.000 F 
ATOM     25  C   UNL     1      10.568  12.646  19.049  0.00  0.00    +0.000 A 
ATOM     26  C   UNL     1      10.216  11.353  18.675  0.00  0.00    +0.000 A 
ATOM     27  F   UNL     1      10.526  10.935  17.437  0.00  0.00    +0.000 F 
ENDBRANCH  18  20
ENDBRANCH  15  16
ENDBRANCH   1  15
TORSDOF 6
ENDMDL
MODEL 6
REMARK VINA RESULT:      -7.5      4.311      7.110
REMARK  Name = 
REMARK  7 active torsions:
REMARK  status: ('A' for Active; 'I' for Inactive)
REMARK    1  A    between atoms: C_1  and  O_2
REMARK    2  A    between atoms: O_2  and  C_3
REMARK    3  A    between atoms: C_6  and  N_7
REMARK    4  A    between atoms: C_11  and  S_12
REMARK    5  A    between atoms: S_12  and  C_13
REMARK    6  A    between atoms: C_13  and  C_14
REMARK    7  A    between atoms: N_16  and  C_17
REMARK                            x       y       z     vdW  Elec       q    Type
REMARK                         _______ _______ _______ _____ _____    ______ ____
ROOT
ATOM      1  S   UNL     1       7.370   5.976  17.544  0.00  0.00    +0.000 S 
ENDROOT
BRANCH   1   6
ATOM      2  N   UNL     1       5.576   4.601  15.929  0.00  0.00    +0.000 N 
ATOM      3  C   UNL     1       5.640   4.038  14.662  0.00  0.00    +0.000 A 
ATOM      4  C   UNL     1       6.766   4.551  14.066  0.00  0.00    +0.000 A 
ATOM      5  N   UNL     1       7.454   5.353  14.932  0.00  0.00    +0.000 NA
ATOM      6  C   UNL     1       6.758   5.324  16.053  0.00  0.00    +0.000 A 
BRANCH   2  10
ATOM      7  C   UNL     1       2.405   4.289  18.726  0.00  0.00    +0.000 A 
ATOM      8  C   UNL     1       2.826   5.535  18.261  0.00  0.00    +0.000 A 
ATOM      9  C   UNL     1       3.838   5.633  17.302  0.00  0.00    +0.000 A 
ATOM     10  C   UNL     1       4.454   4.477  16.801  0.00  0.00    +0.000 A 
ATOM     11  C   UNL     1       4.017   3.227  17.256  0.00  0.00    +0.000 A 
ATOM     12  C   UNL     1       2.996   3.135  18.215  0.00  0.00    +0.000 A 
BRANCH   7  14
ATOM     13  C   UNL     1       1.927   4.516  21.036  0.00  0.00    +0.000 C 
ATOM     14  O   UNL     1       1.456   4.340  19.707  0.00  0.00    +0.000 OA
ENDBRANCH   7  14
ENDBRANCH   2  10
ENDBRANCH   1   6
BRANCH   1  15
ATOM     15  C   UNL     1       7.068   7.749  17.312  0.00  0.00    +0.000 C 
BRANCH  15  16
ATOM     16  C   UNL     1       8.076   8.574  18.090  0.00  0.00    +0.000 C 
ATOM     17  O   UNL     1       8.811   8.048  18.925  0.00  0.00    +0.000 OA
ATOM     18  N   UNL     1       8.054   9.924  17.780  0.00  0.00    +0.000 N 
ATOM     19  H   UNL     1       7.215  10.266  17.301  0.00  0.00    +0.000 HD
BRANCH  18  20
ATOM     20  C   UNL     1       8.927  10.913  18.280  0.00  0.00    +0.000 A 
ATOM     21  C   UNL     1       9.917  10.652  19.234  0.00  0.00    +0.000 A 
ATOM     22  C   UNL     1      10.735  11.685  19.703  0.00  0.00    +0.000 A 
ATOM     23  C   UNL     1      10.564  12.976  19.217  0.00  0.00    +0.000 A 
ATOM     24  F   UNL     1      11.341  13.962  19.684  0.00  0.00    +0.000 F 
ATOM     25  C   UNL     1       9.606  13.256  18.255  0.00  0.00    +0.000 A 
ATOM     26  C   UNL     1       8.802  12.220  17.787  0.00  0.00    +0.000 A 
ATOM     27  F   UNL     1       7.876  12.495  16.855  0.00  0.00    +0.000 F 
ENDBRANCH  18  20
ENDBRANCH  15  16
ENDBRANCH   1  15
TORSDOF 6
ENDMDL
MODEL 7
REMARK VINA RESULT:      -7.4      3.742      6.810
REMARK  Name = 
REMARK  7 active torsions:
REMARK  status: ('A' for Active; 'I' for Inactive)
REMARK    1  A    between atoms: C_1  and  O_2
REMARK    2  A    between atoms: O_2  and  C_3
REMARK    3  A    between atoms: C_6  and  N_7
REMARK    4  A    between atoms: C_11  and  S_12
REMARK    5  A    between atoms: S_12  and  C_13
REMARK    6  A    between atoms: C_13  and  C_14
REMARK    7  A    between atoms: N_16  and  C_17
REMARK                            x       y       z     vdW  Elec       q    Type
REMARK                         _______ _______ _______ _____ _____    ______ ____
ROOT
ATOM      1  S   UNL     1       5.898   5.442  19.302  0.00  0.00    +0.000 S 
ENDROOT
BRANCH   1   6
ATOM      2  N   UNL     1       3.229   5.183  18.575  0.00  0.00    +0.000 N 
ATOM      3  C   UNL     1       2.436   4.131  18.141  0.00  0.00    +0.000 A 
ATOM      4  C   UNL     1       3.294   3.124  17.772  0.00  0.00    +0.000 A 
ATOM      5  N   UNL     1       4.590   3.471  18.028  0.00  0.00    +0.000 NA
ATOM      6  C   UNL     1       4.525   4.677  18.558  0.00  0.00    +0.000 A 
BRANCH   2  10
ATOM      7  C   UNL     1       1.509   8.972  19.388  0.00  0.00    +0.000 A 
ATOM      8  C   UNL     1       1.521   7.971  20.359  0.00  0.00    +0.000 A 
ATOM      9  C   UNL     1       2.132   6.740  20.106  0.00  0.00    +0.000 A 
ATOM     10  C   UNL     1       2.734   6.489  18.865  0.00  0.00    +0.000 A 
ATOM     11  C   UNL     1       2.736   7.502  17.898  0.00  0.00    +0.000 A 
ATOM     12  C   UNL     1       2.127   8.739  18.160  0.00  0.00    +0.000 A 
BRANCH   7  14
ATOM     13  C   UNL     1       0.990  10.547  21.080  0.00  0.00    +0.000 C 
ATOM     14  O   UNL     1       0.824  10.099  19.742  0.00  0.00    +0.000 OA
ENDBRANCH   7  14
ENDBRANCH   2  10
ENDBRANCH   1   6
BRANCH   1  15
ATOM     15  C   UNL     1       6.580   6.386  17.914  0.00  0.00    +0.000 C 
BRANCH  15  16
ATOM     16  C   UNL     1       7.016   5.461  16.793  0.00  0.00    +0.000 C 
ATOM     17  O   UNL     1       7.786   4.527  17.011  0.00  0.00    +0.000 OA
ATOM     18  N   UNL     1       6.489   5.792  15.556  0.00  0.00    +0.000 N 
ATOM     19  H   UNL     1       6.114   6.741  15.461  0.00  0.00    +0.000 HD
BRANCH  18  20
ATOM     20  C   UNL     1       6.652   5.069  14.355  0.00  0.00    +0.000 A 
ATOM     21  C   UNL     1       7.701   5.298  13.458  0.00  0.00    +0.000 A 
ATOM     22  C   UNL     1       7.792   4.559  12.274  0.00  0.00    +0.000 A 
ATOM     23  C   UNL     1       6.835   3.592  11.989  0.00  0.00    +0.000 A 
ATOM     24  F   UNL     1       6.920   2.901  10.844  0.00  0.00    +0.000 F 
ATOM     25  C   UNL     1       5.799   3.331  12.871  0.00  0.00    +0.000 A 
ATOM     26  C   UNL     1       5.721   4.065  14.052  0.00  0.00    +0.000 A 
ATOM     27  F   UNL     1       4.716   3.808  14.904  0.00  0.00    +0.000 F 
ENDBRANCH  18  20
ENDBRANCH  15  16
ENDBRANCH   1  15
TORSDOF 6
ENDMDL
MODEL 8
REMARK VINA RESULT:      -7.4      2.472      4.739
REMARK  Name = 
REMARK  7 active torsions:
REMARK  status: ('A' for Active; 'I' for Inactive)
REMARK    1  A    between atoms: C_1  and  O_2
REMARK    2  A    between atoms: O_2  and  C_3
REMARK    3  A    between atoms: C_6  and  N_7
REMARK    4  A    between atoms: C_11  and  S_12
REMARK    5  A    between atoms: S_12  and  C_13
REMARK    6  A    between atoms: C_13  and  C_14
REMARK    7  A    between atoms: N_16  and  C_17
REMARK                            x       y       z     vdW  Elec       q    Type
REMARK                         _______ _______ _______ _____ _____    ______ ____
ROOT
ATOM      1  S   UNL     1       5.174   6.921  17.545  0.00  0.00    +0.000 S 
ENDROOT
BRANCH   1   6
ATOM      2  N   UNL     1       5.196   4.319  16.574  0.00  0.00    +0.000 N 
ATOM      3  C   UNL     1       5.859   3.669  15.543  0.00  0.00    +0.000 A 
ATOM      4  C   UNL     1       6.376   4.652  14.735  0.00  0.00    +0.000 A 
ATOM      5  N   UNL     1       6.131   5.891  15.256  0.00  0.00    +0.000 NA
ATOM      6  C   UNL     1       5.477   5.667  16.379  0.00  0.00    +0.000 A 
BRANCH   2  10
ATOM      7  C   UNL     1       2.590   2.598  19.442  0.00  0.00    +0.000 A 
ATOM      8  C   UNL     1       2.163   2.820  18.133  0.00  0.00    +0.000 A 
ATOM      9  C   UNL     1       3.038   3.341  17.177  0.00  0.00    +0.000 A 
ATOM     10  C   UNL     1       4.359   3.660  17.524  0.00  0.00    +0.000 A 
ATOM     11  C   UNL     1       4.790   3.419  18.834  0.00  0.00    +0.000 A 
ATOM     12  C   UNL     1       3.908   2.890  19.788  0.00  0.00    +0.000 A 
BRANCH   7  14
ATOM     13  C   UNL     1       1.285   2.992  21.381  0.00  0.00    +0.000 C 
ATOM     14  O   UNL     1       1.616   2.147  20.288  0.00  0.00    +0.000 OA
ENDBRANCH   7  14
ENDBRANCH   2  10
ENDBRANCH   1   6
BRANCH   1  15
ATOM     15  C   UNL     1       3.425   7.283  17.240  0.00  0.00    +0.000 C 
BRANCH  15  16
ATOM     16  C   UNL     1       2.659   7.387  18.546  0.00  0.00    +0.000 C 
ATOM     17  O   UNL     1       2.665   6.461  19.355  0.00  0.00    +0.000 OA
ATOM     18  N   UNL     1       1.970   8.578  18.698  0.00  0.00    +0.000 N 
ATOM     19  H   UNL     1       1.810   9.123  17.845  0.00  0.00    +0.000 HD
BRANCH  18  20
ATOM     20  C   UNL     1       1.243   8.987  19.836  0.00  0.00    +0.000 A 
ATOM     21  C   UNL     1       1.424   8.425  21.105  0.00  0.00    +0.000 A 
ATOM     22  C   UNL     1       0.654   8.862  22.187  0.00  0.00    +0.000 A 
ATOM     23  C   UNL     1      -0.295   9.861  22.001  0.00  0.00    +0.000 A 
ATOM     24  F   UNL     1      -1.040  10.262  23.040  0.00  0.00    +0.000 F 
ATOM     25  C   UNL     1      -0.477  10.449  20.759  0.00  0.00    +0.000 A 
ATOM     26  C   UNL     1       0.300  10.014  19.689  0.00  0.00    +0.000 A 
ATOM     27  F   UNL     1       0.120  10.587  18.489  0.00  0.00    +0.000 F 
ENDBRANCH  18  20
ENDBRANCH  15  16
ENDBRANCH   1  15
TORSDOF 6
ENDMDL
MODEL 9
REMARK VINA RESULT:      -7.2      3.732      6.835
REMARK  Name = 
REMARK  7 active torsions:
REMARK  status: ('A' for Active; 'I' for Inactive)
REMARK    1  A    between atoms: C_1  and  O_2
REMARK    2  A    between atoms: O_2  and  C_3
REMARK    3  A    between atoms: C_6  and  N_7
REMARK    4  A    between atoms: C_11  and  S_12
REMARK    5  A    between atoms: S_12  and  C_13
REMARK    6  A    between atoms: C_13  and  C_14
REMARK    7  A    between atoms: N_16  and  C_17
REMARK                            x       y       z     vdW  Elec       q    Type
REMARK                         _______ _______ _______ _____ _____    ______ ____
ROOT
ATOM      1  S   UNL     1       5.749   5.405  19.314  0.00  0.00    +0.000 S 
ENDROOT
BRANCH   1   6
ATOM      2  N   UNL     1       3.118   4.965  18.540  0.00  0.00    +0.000 N 
ATOM      3  C   UNL     1       2.412   3.867  18.068  0.00  0.00    +0.000 A 
ATOM      4  C   UNL     1       3.348   2.938  17.688  0.00  0.00    +0.000 A 
ATOM      5  N   UNL     1       4.611   3.375  17.971  0.00  0.00    +0.000 NA
ATOM      6  C   UNL     1       4.448   4.558  18.530  0.00  0.00    +0.000 A 
BRANCH   2  10
ATOM      7  C   UNL     1       1.592   8.803  19.500  0.00  0.00    +0.000 A 
ATOM      8  C   UNL     1       2.022   8.509  18.206  0.00  0.00    +0.000 A 
ATOM      9  C   UNL     1       2.478   7.229  17.880  0.00  0.00    +0.000 A 
ATOM     10  C   UNL     1       2.521   6.222  18.855  0.00  0.00    +0.000 A 
ATOM     11  C   UNL     1       2.072   6.515  20.149  0.00  0.00    +0.000 A 
ATOM     12  C   UNL     1       1.609   7.800  20.468  0.00  0.00    +0.000 A 
BRANCH   7  14
ATOM     13  C   UNL     1      -0.116  10.341  20.075  0.00  0.00    +0.000 C 
ATOM     14  O   UNL     1       1.233  10.106  19.697  0.00  0.00    +0.000 OA
ENDBRANCH   7  14
ENDBRANCH   2  10
ENDBRANCH   1   6
BRANCH   1  15
ATOM     15  C   UNL     1       6.401   6.406  17.951  0.00  0.00    +0.000 C 
BRANCH  15  16
ATOM     16  C   UNL     1       6.924   5.522  16.834  0.00  0.00    +0.000 C 
ATOM     17  O   UNL     1       7.754   4.643  17.062  0.00  0.00    +0.000 OA
ATOM     18  N   UNL     1       6.399   5.823  15.588  0.00  0.00    +0.000 N 
ATOM     19  H   UNL     1       5.960   6.744  15.491  0.00  0.00    +0.000 HD
BRANCH  18  20
ATOM     20  C   UNL     1       6.637   5.123  14.386  0.00  0.00    +0.000 A 
ATOM     21  C   UNL     1       7.705   5.410  13.530  0.00  0.00    +0.000 A 
ATOM     22  C   UNL     1       7.871   4.690  12.342  0.00  0.00    +0.000 A 
ATOM     23  C   UNL     1       6.970   3.684  12.013  0.00  0.00    +0.000 A 
ATOM     24  F   UNL     1       7.127   3.011  10.865  0.00  0.00    +0.000 F 
ATOM     25  C   UNL     1       5.917   3.366  12.856  0.00  0.00    +0.000 A 
ATOM     26  C   UNL     1       5.765   4.081  14.040  0.00  0.00    +0.000 A 
ATOM     27  F   UNL     1       4.743   3.769  14.853  0.00  0.00    +0.000 F 
ENDBRANCH  18  20
ENDBRANCH  15  16
ENDBRANCH   1  15
TORSDOF 6
ENDMDL
