MODEL 1
REMARK VINA RESULT:      -6.3      0.000      0.000
REMARK  Name = 
REMARK  19 active torsions:
REMARK  status: ('A' for Active; 'I' for Inactive)
REMARK    1  A    between atoms: C_1  and  C_2
REMARK    2  A    between atoms: C_2  and  C_3
REMARK    3  A    between atoms: C_3  and  C_4
REMARK    4  A    between atoms: C_4  and  C_5
REMARK    5  A    between atoms: C_5  and  C_6
REMARK    6  A    between atoms: C_6  and  O_7
REMARK    7  A    between atoms: C_6  and  C_8
REMARK    8  A    between atoms: C_8  and  C_9
REMARK    9  A    between atoms: C_9  and  C_10
REMARK   10  A    between atoms: C_10  and  N_11
REMARK   11  A    between atoms: N_11  and  C_12
REMARK   12  A    between atoms: N_11  and  S_21
REMARK   13  A    between atoms: C_12  and  C_13
REMARK   14  A    between atoms: C_14  and  C_15
REMARK   15  A    between atoms: C_15  and  C_16
REMARK   16  A    between atoms: C_16  and  C_17
REMARK   17  A    between atoms: C_17  and  C_18
REMARK   18  A    between atoms: C_18  and  O_20
REMARK   19  A    between atoms: S_21  and  C_22
REMARK                            x       y       z     vdW  Elec       q    Type
REMARK                         _______ _______ _______ _____ _____    ______ ____
ROOT
ATOM      1  N   UNL     1       6.691   6.535  16.835  0.00  0.00    +0.000 NA
ENDROOT
BRANCH   1   2
ATOM      2  S   UNL     1       7.242   5.089  16.047  0.00  0.00    +0.000 S 
ATOM      3  C   UNL     1       5.705   4.283  15.613  0.00  0.00    +0.000 C 
ATOM      4  O   UNL     1       7.888   5.485  14.812  0.00  0.00    +0.000 OA
ATOM      5  O   UNL     1       7.945   4.246  16.986  0.00  0.00    +0.000 OA
ENDBRANCH   1   2
BRANCH   1   6
ATOM      6  C   UNL     1       7.669   7.297  17.673  0.00  0.00    +0.000 C 
BRANCH   6   7
ATOM      7  C   UNL     1       7.684   8.774  17.397  0.00  0.00    +0.000 C 
ATOM      8  C   UNL     1       8.330   9.764  18.037  0.00  0.00    +0.000 C 
BRANCH   8   9
ATOM      9  C   UNL     1       9.219   9.660  19.243  0.00  0.00    +0.000 C 
BRANCH   9  10
ATOM     10  C   UNL     1      10.021  10.942  19.513  0.00  0.00    +0.000 C 
BRANCH  10  11
ATOM     11  C   UNL     1       9.630  12.128  18.638  0.00  0.00    +0.000 C 
BRANCH  11  12
ATOM     12  C   UNL     1       9.869  13.430  19.348  0.00  0.00    +0.000 C 
ATOM     13  O   UNL     1       9.078  14.363  19.332  0.00  0.00    +0.000 OA
BRANCH  12  14
ATOM     14  O   UNL     1      11.046  13.487  20.002  0.00  0.00    +0.000 OA
ATOM     15  H   UNL     1      11.840  13.362  19.443  0.00  0.00    +0.000 HD
ENDBRANCH  12  14
ENDBRANCH  11  12
ENDBRANCH  10  11
ENDBRANCH   9  10
ENDBRANCH   8   9
ENDBRANCH   6   7
ENDBRANCH   1   6
BRANCH   1  16
ATOM     16  C   UNL     1       5.375   6.289  17.538  0.00  0.00    +0.000 C 
BRANCH  16  17
ATOM     17  C   UNL     1       5.450   5.900  19.008  0.00  0.00    +0.000 C 
BRANCH  17  18
ATOM     18  C   UNL     1       4.238   5.112  19.496  0.00  0.00    +0.000 C 
BRANCH  18  19
ATOM     19  C   UNL     1       4.430   3.605  19.294  0.00  0.00    +0.000 C 
BRANCH  19  20
ATOM     20  O   UNL     1       5.785   3.356  18.914  0.00  0.00    +0.000 OA
ATOM     21  H   UNL     1       6.009   2.460  19.218  0.00  0.00    +0.000 HD
ENDBRANCH  19  20
BRANCH  19  22
ATOM     22  C   UNL     1       3.493   3.049  18.221  0.00  0.00    +0.000 C 
BRANCH  22  23
ATOM     23  C   UNL     1       2.655   1.880  18.746  0.00  0.00    +0.000 C 
BRANCH  23  24
ATOM     24  C   UNL     1       1.172   2.247  18.787  0.00  0.00    +0.000 C 
BRANCH  24  26
ATOM     25  C   UNL     1       1.304   2.943  21.196  0.00  0.00    +0.000 C 
ATOM     26  C   UNL     1       0.898   3.362  19.794  0.00  0.00    +0.000 C 
ENDBRANCH  24  26
ENDBRANCH  23  24
ENDBRANCH  22  23
ENDBRANCH  19  22
ENDBRANCH  18  19
ENDBRANCH  17  18
ENDBRANCH  16  17
ENDBRANCH   1  16
TORSDOF 17
ENDMDL
MODEL 2
REMARK VINA RESULT:      -6.3      4.058      7.968
REMARK  Name = 
REMARK  19 active torsions:
REMARK  status: ('A' for Active; 'I' for Inactive)
REMARK    1  A    between atoms: C_1  and  C_2
REMARK    2  A    between atoms: C_2  and  C_3
REMARK    3  A    between atoms: C_3  and  C_4
REMARK    4  A    between atoms: C_4  and  C_5
REMARK    5  A    between atoms: C_5  and  C_6
REMARK    6  A    between atoms: C_6  and  O_7
REMARK    7  A    between atoms: C_6  and  C_8
REMARK    8  A    between atoms: C_8  and  C_9
REMARK    9  A    between atoms: C_9  and  C_10
REMARK   10  A    between atoms: C_10  and  N_11
REMARK   11  A    between atoms: N_11  and  C_12
REMARK   12  A    between atoms: N_11  and  S_21
REMARK   13  A    between atoms: C_12  and  C_13
REMARK   14  A    between atoms: C_14  and  C_15
REMARK   15  A    between atoms: C_15  and  C_16
REMARK   16  A    between atoms: C_16  and  C_17
REMARK   17  A    between atoms: C_17  and  C_18
REMARK   18  A    between atoms: C_18  and  O_20
REMARK   19  A    between atoms: S_21  and  C_22
REMARK                            x       y       z     vdW  Elec       q    Type
REMARK                         _______ _______ _______ _____ _____    ______ ____
ROOT
ATOM      1  N   UNL     1       5.203   6.114  18.121  0.00  0.00    +0.000 NA
ENDROOT
BRANCH   1   2
ATOM      2  S   UNL     1       6.635   5.943  17.155  0.00  0.00    +0.000 S 
ATOM      3  C   UNL     1       7.568   7.405  17.595  0.00  0.00    +0.000 C 
ATOM      4  O   UNL     1       7.365   4.797  17.657  0.00  0.00    +0.000 OA
ATOM      5  O   UNL     1       6.304   6.023  15.751  0.00  0.00    +0.000 OA
ENDBRANCH   1   2
BRANCH   1   6
ATOM      6  C   UNL     1       4.608   4.880  18.723  0.00  0.00    +0.000 C 
BRANCH   6   7
ATOM      7  C   UNL     1       4.030   3.929  17.712  0.00  0.00    +0.000 C 
ATOM      8  C   UNL     1       2.746   3.663  17.414  0.00  0.00    +0.000 C 
BRANCH   8   9
ATOM      9  C   UNL     1       1.511   4.246  18.039  0.00  0.00    +0.000 C 
BRANCH   9  10
ATOM     10  C   UNL     1       1.059   3.493  19.298  0.00  0.00    +0.000 C 
BRANCH  10  11
ATOM     11  C   UNL     1       1.615   4.053  20.603  0.00  0.00    +0.000 C 
BRANCH  11  12
ATOM     12  C   UNL     1       2.197   2.964  21.458  0.00  0.00    +0.000 C 
ATOM     13  O   UNL     1       3.346   2.557  21.345  0.00  0.00    +0.000 OA
BRANCH  12  14
ATOM     14  O   UNL     1       1.335   2.461  22.363  0.00  0.00    +0.000 OA
ATOM     15  H   UNL     1       0.542   3.009  22.532  0.00  0.00    +0.000 HD
ENDBRANCH  12  14
ENDBRANCH  11  12
ENDBRANCH  10  11
ENDBRANCH   9  10
ENDBRANCH   8   9
ENDBRANCH   6   7
ENDBRANCH   1   6
BRANCH   1  16
ATOM     16  C   UNL     1       4.183   6.977  17.411  0.00  0.00    +0.000 C 
BRANCH  16  17
ATOM     17  C   UNL     1       3.074   7.569  18.272  0.00  0.00    +0.000 C 
BRANCH  17  18
ATOM     18  C   UNL     1       1.841   7.990  17.478  0.00  0.00    +0.000 C 
BRANCH  18  19
ATOM     19  C   UNL     1       1.285   9.328  17.974  0.00  0.00    +0.000 C 
BRANCH  19  20
ATOM     20  O   UNL     1       2.104  10.387  17.472  0.00  0.00    +0.000 OA
ATOM     21  H   UNL     1       2.805   9.979  16.936  0.00  0.00    +0.000 HD
ENDBRANCH  19  20
BRANCH  19  22
ATOM     22  C   UNL     1       1.245   9.399  19.501  0.00  0.00    +0.000 C 
BRANCH  22  23
ATOM     23  C   UNL     1       0.643  10.718  19.995  0.00  0.00    +0.000 C 
BRANCH  23  24
ATOM     24  C   UNL     1      -0.485  10.462  20.994  0.00  0.00    +0.000 C 
BRANCH  24  26
ATOM     25  C   UNL     1      -0.027   9.472  23.256  0.00  0.00    +0.000 C 
ATOM     26  C   UNL     1      -0.254   9.175  21.783  0.00  0.00    +0.000 C 
ENDBRANCH  24  26
ENDBRANCH  23  24
ENDBRANCH  22  23
ENDBRANCH  19  22
ENDBRANCH  18  19
ENDBRANCH  17  18
ENDBRANCH  16  17
ENDBRANCH   1  16
TORSDOF 17
ENDMDL
MODEL 3
REMARK VINA RESULT:      -6.2      4.035      5.388
REMARK  Name = 
REMARK  19 active torsions:
REMARK  status: ('A' for Active; 'I' for Inactive)
REMARK    1  A    between atoms: C_1  and  C_2
REMARK    2  A    between atoms: C_2  and  C_3
REMARK    3  A    between atoms: C_3  and  C_4
REMARK    4  A    between atoms: C_4  and  C_5
REMARK    5  A    between atoms: C_5  and  C_6
REMARK    6  A    between atoms: C_6  and  O_7
REMARK    7  A    between atoms: C_6  and  C_8
REMARK    8  A    between atoms: C_8  and  C_9
REMARK    9  A    between atoms: C_9  and  C_10
REMARK   10  A    between atoms: C_10  and  N_11
REMARK   11  A    between atoms: N_11  and  C_12
REMARK   12  A    between atoms: N_11  and  S_21
REMARK   13  A    between atoms: C_12  and  C_13
REMARK   14  A    between atoms: C_14  and  C_15
REMARK   15  A    between atoms: C_15  and  C_16
REMARK   16  A    between atoms: C_16  and  C_17
REMARK   17  A    between atoms: C_17  and  C_18
REMARK   18  A    between atoms: C_18  and  O_20
REMARK   19  A    between atoms: S_21  and  C_22
REMARK                            x       y       z     vdW  Elec       q    Type
REMARK                         _______ _______ _______ _____ _____    ______ ____
ROOT
ATOM      1  N   UNL     1       5.585   5.586  17.859  0.00  0.00    +0.000 NA
ENDROOT
BRANCH   1   2
ATOM      2  S   UNL     1       7.264   5.721  17.442  0.00  0.00    +0.000 S 
ATOM      3  C   UNL     1       7.999   6.252  18.984  0.00  0.00    +0.000 C 
ATOM      4  O   UNL     1       7.753   4.385  17.166  0.00  0.00    +0.000 OA
ATOM      5  O   UNL     1       7.454   6.769  16.466  0.00  0.00    +0.000 OA
ENDBRANCH   1   2
BRANCH   1   6
ATOM      6  C   UNL     1       4.658   6.671  17.409  0.00  0.00    +0.000 C 
BRANCH   6   7
ATOM      7  C   UNL     1       3.224   6.447  17.803  0.00  0.00    +0.000 C 
ATOM      8  C   UNL     1       2.234   7.337  17.995  0.00  0.00    +0.000 C 
BRANCH   8   9
ATOM      9  C   UNL     1       2.299   8.833  17.881  0.00  0.00    +0.000 C 
BRANCH   9  10
ATOM     10  C   UNL     1       1.271   9.551  18.766  0.00  0.00    +0.000 C 
BRANCH  10  11
ATOM     11  C   UNL     1       1.355  11.073  18.725  0.00  0.00    +0.000 C 
BRANCH  11  12
ATOM     12  C   UNL     1      -0.009  11.696  18.799  0.00  0.00    +0.000 C 
ATOM     13  O   UNL     1      -0.844  11.396  19.642  0.00  0.00    +0.000 OA
BRANCH  12  14
ATOM     14  O   UNL     1      -0.242  12.618  17.844  0.00  0.00    +0.000 OA
ATOM     15  H   UNL     1       0.474  12.723  17.184  0.00  0.00    +0.000 HD
ENDBRANCH  12  14
ENDBRANCH  11  12
ENDBRANCH  10  11
ENDBRANCH   9  10
ENDBRANCH   8   9
ENDBRANCH   6   7
ENDBRANCH   1   6
BRANCH   1  16
ATOM     16  C   UNL     1       5.427   5.243  19.324  0.00  0.00    +0.000 C 
BRANCH  16  17
ATOM     17  C   UNL     1       4.683   3.954  19.645  0.00  0.00    +0.000 C 
BRANCH  17  18
ATOM     18  C   UNL     1       4.656   2.958  18.491  0.00  0.00    +0.000 C 
BRANCH  18  19
ATOM     19  C   UNL     1       3.560   1.904  18.685  0.00  0.00    +0.000 C 
BRANCH  19  20
ATOM     20  O   UNL     1       4.033   0.646  18.198  0.00  0.00    +0.000 OA
ATOM     21  H   UNL     1       3.338  -0.011  18.374  0.00  0.00    +0.000 HD
ENDBRANCH  19  20
BRANCH  19  22
ATOM     22  C   UNL     1       2.271   2.279  17.952  0.00  0.00    +0.000 C 
BRANCH  22  23
ATOM     23  C   UNL     1       1.054   2.231  18.879  0.00  0.00    +0.000 C 
BRANCH  23  24
ATOM     24  C   UNL     1       0.698   3.628  19.384  0.00  0.00    +0.000 C 
BRANCH  24  26
ATOM     25  C   UNL     1       1.338   2.700  21.628  0.00  0.00    +0.000 C 
ATOM     26  C   UNL     1       1.361   3.924  20.728  0.00  0.00    +0.000 C 
ENDBRANCH  24  26
ENDBRANCH  23  24
ENDBRANCH  22  23
ENDBRANCH  19  22
ENDBRANCH  18  19
ENDBRANCH  17  18
ENDBRANCH  16  17
ENDBRANCH   1  16
TORSDOF 17
ENDMDL
MODEL 4
REMARK VINA RESULT:      -6.2      4.420      7.914
REMARK  Name = 
REMARK  19 active torsions:
REMARK  status: ('A' for Active; 'I' for Inactive)
REMARK    1  A    between atoms: C_1  and  C_2
REMARK    2  A    between atoms: C_2  and  C_3
REMARK    3  A    between atoms: C_3  and  C_4
REMARK    4  A    between atoms: C_4  and  C_5
REMARK    5  A    between atoms: C_5  and  C_6
REMARK    6  A    between atoms: C_6  and  O_7
REMARK    7  A    between atoms: C_6  and  C_8
REMARK    8  A    between atoms: C_8  and  C_9
REMARK    9  A    between atoms: C_9  and  C_10
REMARK   10  A    between atoms: C_10  and  N_11
REMARK   11  A    between atoms: N_11  and  C_12
REMARK   12  A    between atoms: N_11  and  S_21
REMARK   13  A    between atoms: C_12  and  C_13
REMARK   14  A    between atoms: C_14  and  C_15
REMARK   15  A    between atoms: C_15  and  C_16
REMARK   16  A    between atoms: C_16  and  C_17
REMARK   17  A    between atoms: C_17  and  C_18
REMARK   18  A    between atoms: C_18  and  O_20
REMARK   19  A    between atoms: S_21  and  C_22
REMARK                            x       y       z     vdW  Elec       q    Type
REMARK                         _______ _______ _______ _____ _____    ______ ____
ROOT
ATOM      1  N   UNL     1       5.188   5.831  17.857  0.00  0.00    +0.000 NA
ENDROOT
BRANCH   1   2
ATOM      2  S   UNL     1       6.423   6.068  16.660  0.00  0.00    +0.000 S 
ATOM      3  C   UNL     1       7.420   4.594  16.844  0.00  0.00    +0.000 C 
ATOM      4  O   UNL     1       5.787   6.002  15.359  0.00  0.00    +0.000 OA
ATOM      5  O   UNL     1       7.238   7.210  17.001  0.00  0.00    +0.000 OA
ENDBRANCH   1   2
BRANCH   1   6
ATOM      6  C   UNL     1       4.782   4.428  18.182  0.00  0.00    +0.000 C 
BRANCH   6   7
ATOM      7  C   UNL     1       3.994   3.756  17.092  0.00  0.00    +0.000 C 
ATOM      8  C   UNL     1       2.684   3.458  17.034  0.00  0.00    +0.000 C 
BRANCH   8   9
ATOM      9  C   UNL     1       1.632   3.706  18.077  0.00  0.00    +0.000 C 
BRANCH   9  10
ATOM     10  C   UNL     1       1.490   2.550  19.078  0.00  0.00    +0.000 C 
BRANCH  10  11
ATOM     11  C   UNL     1       0.950   2.961  20.444  0.00  0.00    +0.000 C 
BRANCH  11  12
ATOM     12  C   UNL     1       2.034   3.543  21.305  0.00  0.00    +0.000 C 
ATOM     13  O   UNL     1       2.311   4.734  21.329  0.00  0.00    +0.000 OA
BRANCH  12  14
ATOM     14  O   UNL     1       2.688   2.631  22.051  0.00  0.00    +0.000 OA
ATOM     15  H   UNL     1       3.657   2.756  22.105  0.00  0.00    +0.000 HD
ENDBRANCH  12  14
ENDBRANCH  11  12
ENDBRANCH  10  11
ENDBRANCH   9  10
ENDBRANCH   8   9
ENDBRANCH   6   7
ENDBRANCH   1   6
BRANCH   1  16
ATOM     16  C   UNL     1       4.010   6.742  17.592  0.00  0.00    +0.000 C 
BRANCH  16  17
ATOM     17  C   UNL     1       3.022   6.929  18.736  0.00  0.00    +0.000 C 
BRANCH  17  18
ATOM     18  C   UNL     1       2.126   8.153  18.579  0.00  0.00    +0.000 C 
BRANCH  18  19
ATOM     19  C   UNL     1       1.687   8.705  19.939  0.00  0.00    +0.000 C 
BRANCH  19  20
ATOM     20  O   UNL     1       1.534   7.618  20.855  0.00  0.00    +0.000 OA
ATOM     21  H   UNL     1       0.643   7.252  20.722  0.00  0.00    +0.000 HD
ENDBRANCH  19  20
BRANCH  19  22
ATOM     22  C   UNL     1       0.369   9.475  19.843  0.00  0.00    +0.000 C 
BRANCH  22  23
ATOM     23  C   UNL     1       0.086   9.946  18.414  0.00  0.00    +0.000 C 
BRANCH  23  24
ATOM     24  C   UNL     1      -1.227  10.724  18.346  0.00  0.00    +0.000 C 
BRANCH  24  26
ATOM     25  C   UNL     1      -3.539  10.118  17.574  0.00  0.00    +0.000 C 
ATOM     26  C   UNL     1      -2.084  10.276  17.165  0.00  0.00    +0.000 C 
ENDBRANCH  24  26
ENDBRANCH  23  24
ENDBRANCH  22  23
ENDBRANCH  19  22
ENDBRANCH  18  19
ENDBRANCH  17  18
ENDBRANCH  16  17
ENDBRANCH   1  16
TORSDOF 17
ENDMDL
MODEL 5
REMARK VINA RESULT:      -6.2      4.530      6.916
REMARK  Name = 
REMARK  19 active torsions:
REMARK  status: ('A' for Active; 'I' for Inactive)
REMARK    1  A    between atoms: C_1  and  C_2
REMARK    2  A    between atoms: C_2  and  C_3
REMARK    3  A    between atoms: C_3  and  C_4
REMARK    4  A    between atoms: C_4  and  C_5
REMARK    5  A    between atoms: C_5  and  C_6
REMARK    6  A    between atoms: C_6  and  O_7
REMARK    7  A    between atoms: C_6  and  C_8
REMARK    8  A    between atoms: C_8  and  C_9
REMARK    9  A    between atoms: C_9  and  C_10
REMARK   10  A    between atoms: C_10  and  N_11
REMARK   11  A    between atoms: N_11  and  C_12
REMARK   12  A    between atoms: N_11  and  S_21
REMARK   13  A    between atoms: C_12  and  C_13
REMARK   14  A    between atoms: C_14  and  C_15
REMARK   15  A    between atoms: C_15  and  C_16
REMARK   16  A    between atoms: C_16  and  C_17
REMARK   17  A    between atoms: C_17  and  C_18
REMARK   18  A    between atoms: C_18  and  O_20
REMARK   19  A    between atoms: S_21  and  C_22
REMARK                            x       y       z     vdW  Elec       q    Type
REMARK                         _______ _______ _______ _____ _____    ______ ____
ROOT
ATOM      1  N   UNL     1       3.100   4.611  18.690  0.00  0.00    +0.000 NA
ENDROOT
BRANCH   1   2
ATOM      2  S   UNL     1       2.103   3.732  19.806  0.00  0.00    +0.000 S 
ATOM      3  C   UNL     1       1.102   2.727  18.715  0.00  0.00    +0.000 C 
ATOM      4  O   UNL     1       2.966   2.837  20.550  0.00  0.00    +0.000 OA
ATOM      5  O   UNL     1       1.229   4.638  20.515  0.00  0.00    +0.000 OA
ENDBRANCH   1   2
BRANCH   1   6
ATOM      6  C   UNL     1       4.434   4.034  18.332  0.00  0.00    +0.000 C 
BRANCH   6   7
ATOM      7  C   UNL     1       4.679   3.944  16.852  0.00  0.00    +0.000 C 
ATOM      8  C   UNL     1       5.165   4.865  16.001  0.00  0.00    +0.000 C 
BRANCH   8   9
ATOM      9  C   UNL     1       5.587   6.274  16.305  0.00  0.00    +0.000 C 
BRANCH   9  10
ATOM     10  C   UNL     1       7.096   6.410  16.558  0.00  0.00    +0.000 C 
BRANCH  10  11
ATOM     11  C   UNL     1       7.472   6.652  18.016  0.00  0.00    +0.000 C 
BRANCH  11  12
ATOM     12  C   UNL     1       7.718   5.358  18.738  0.00  0.00    +0.000 C 
ATOM     13  O   UNL     1       8.081   4.332  18.179  0.00  0.00    +0.000 OA
BRANCH  12  14
ATOM     14  O   UNL     1       7.495   5.423  20.066  0.00  0.00    +0.000 OA
ATOM     15  H   UNL     1       8.290   5.581  20.614  0.00  0.00    +0.000 HD
ENDBRANCH  12  14
ENDBRANCH  11  12
ENDBRANCH  10  11
ENDBRANCH   9  10
ENDBRANCH   8   9
ENDBRANCH   6   7
ENDBRANCH   1   6
BRANCH   1  16
ATOM     16  C   UNL     1       3.172   6.071  19.077  0.00  0.00    +0.000 C 
BRANCH  16  17
ATOM     17  C   UNL     1       2.489   7.059  18.139  0.00  0.00    +0.000 C 
BRANCH  17  18
ATOM     18  C   UNL     1       2.091   8.368  18.813  0.00  0.00    +0.000 C 
BRANCH  18  19
ATOM     19  C   UNL     1       1.310   9.276  17.857  0.00  0.00    +0.000 C 
BRANCH  19  20
ATOM     20  O   UNL     1       2.189  10.283  17.351  0.00  0.00    +0.000 OA
ATOM     21  H   UNL     1       1.677  11.108  17.291  0.00  0.00    +0.000 HD
ENDBRANCH  19  20
BRANCH  19  22
ATOM     22  C   UNL     1       0.119   9.942  18.548  0.00  0.00    +0.000 C 
BRANCH  22  23
ATOM     23  C   UNL     1       0.566  10.931  19.628  0.00  0.00    +0.000 C 
BRANCH  23  24
ATOM     24  C   UNL     1      -0.431  10.963  20.785  0.00  0.00    +0.000 C 
BRANCH  24  26
ATOM     25  C   UNL     1      -0.858  10.243  23.153  0.00  0.00    +0.000 C 
ATOM     26  C   UNL     1      -0.015  10.017  21.909  0.00  0.00    +0.000 C 
ENDBRANCH  24  26
ENDBRANCH  23  24
ENDBRANCH  22  23
ENDBRANCH  19  22
ENDBRANCH  18  19
ENDBRANCH  17  18
ENDBRANCH  16  17
ENDBRANCH   1  16
TORSDOF 17
ENDMDL
MODEL 6
REMARK VINA RESULT:      -6.1      3.943      7.754
REMARK  Name = 
REMARK  19 active torsions:
REMARK  status: ('A' for Active; 'I' for Inactive)
REMARK    1  A    between atoms: C_1  and  C_2
REMARK    2  A    between atoms: C_2  and  C_3
REMARK    3  A    between atoms: C_3  and  C_4
REMARK    4  A    between atoms: C_4  and  C_5
REMARK    5  A    between atoms: C_5  and  C_6
REMARK    6  A    between atoms: C_6  and  O_7
REMARK    7  A    between atoms: C_6  and  C_8
REMARK    8  A    between atoms: C_8  and  C_9
REMARK    9  A    between atoms: C_9  and  C_10
REMARK   10  A    between atoms: C_10  and  N_11
REMARK   11  A    between atoms: N_11  and  C_12
REMARK   12  A    between atoms: N_11  and  S_21
REMARK   13  A    between atoms: C_12  and  C_13
REMARK   14  A    between atoms: C_14  and  C_15
REMARK   15  A    between atoms: C_15  and  C_16
REMARK   16  A    between atoms: C_16  and  C_17
REMARK   17  A    between atoms: C_17  and  C_18
REMARK   18  A    between atoms: C_18  and  O_20
REMARK   19  A    between atoms: S_21  and  C_22
REMARK                            x       y       z     vdW  Elec       q    Type
REMARK                         _______ _______ _______ _____ _____    ______ ____
ROOT
ATOM      1  N   UNL     1       6.106   4.453  17.467  0.00  0.00    +0.000 NA
ENDROOT
BRANCH   1   2
ATOM      2  S   UNL     1       6.998   5.391  18.623  0.00  0.00    +0.000 S 
ATOM      3  C   UNL     1       7.289   6.917  17.734  0.00  0.00    +0.000 C 
ATOM      4  O   UNL     1       6.103   5.694  19.722  0.00  0.00    +0.000 OA
ATOM      5  O   UNL     1       8.276   4.773  18.890  0.00  0.00    +0.000 OA
ENDBRANCH   1   2
BRANCH   1   6
ATOM      6  C   UNL     1       5.866   5.046  16.114  0.00  0.00    +0.000 C 
BRANCH   6   7
ATOM      7  C   UNL     1       6.903   4.668  15.093  0.00  0.00    +0.000 C 
ATOM      8  C   UNL     1       6.751   4.161  13.857  0.00  0.00    +0.000 C 
BRANCH   8   9
ATOM      9  C   UNL     1       5.472   3.809  13.152  0.00  0.00    +0.000 C 
BRANCH   9  10
ATOM     10  C   UNL     1       5.684   3.392  11.690  0.00  0.00    +0.000 C 
BRANCH  10  11
ATOM     11  C   UNL     1       5.165   1.999  11.349  0.00  0.00    +0.000 C 
BRANCH  11  12
ATOM     12  C   UNL     1       6.293   1.022  11.184  0.00  0.00    +0.000 C 
ATOM     13  O   UNL     1       6.128  -0.176  11.001  0.00  0.00    +0.000 OA
BRANCH  12  14
ATOM     14  O   UNL     1       7.517   1.583  11.266  0.00  0.00    +0.000 OA
ATOM     15  H   UNL     1       7.646   2.381  10.714  0.00  0.00    +0.000 HD
ENDBRANCH  12  14
ENDBRANCH  11  12
ENDBRANCH  10  11
ENDBRANCH   9  10
ENDBRANCH   8   9
ENDBRANCH   6   7
ENDBRANCH   1   6
BRANCH   1  16
ATOM     16  C   UNL     1       4.852   3.887  18.096  0.00  0.00    +0.000 C 
BRANCH  16  17
ATOM     17  C   UNL     1       4.012   2.962  17.226  0.00  0.00    +0.000 C 
BRANCH  17  18
ATOM     18  C   UNL     1       2.514   3.239  17.306  0.00  0.00    +0.000 C 
BRANCH  18  19
ATOM     19  C   UNL     1       1.975   3.003  18.720  0.00  0.00    +0.000 C 
BRANCH  19  20
ATOM     20  O   UNL     1       1.045   1.918  18.689  0.00  0.00    +0.000 OA
ATOM     21  H   UNL     1       0.398   2.072  19.399  0.00  0.00    +0.000 HD
ENDBRANCH  19  20
BRANCH  19  22
ATOM     22  C   UNL     1       1.284   4.246  19.282  0.00  0.00    +0.000 C 
BRANCH  22  23
ATOM     23  C   UNL     1       2.102   4.895  20.403  0.00  0.00    +0.000 C 
BRANCH  23  24
ATOM     24  C   UNL     1       2.514   6.317  20.025  0.00  0.00    +0.000 C 
BRANCH  24  26
ATOM     25  C   UNL     1       3.380   7.155  17.821  0.00  0.00    +0.000 C 
ATOM     26  C   UNL     1       2.166   6.632  18.571  0.00  0.00    +0.000 C 
ENDBRANCH  24  26
ENDBRANCH  23  24
ENDBRANCH  22  23
ENDBRANCH  19  22
ENDBRANCH  18  19
ENDBRANCH  17  18
ENDBRANCH  16  17
ENDBRANCH   1  16
TORSDOF 17
ENDMDL
MODEL 7
REMARK VINA RESULT:      -6.1      3.995      8.043
REMARK  Name = 
REMARK  19 active torsions:
REMARK  status: ('A' for Active; 'I' for Inactive)
REMARK    1  A    between atoms: C_1  and  C_2
REMARK    2  A    between atoms: C_2  and  C_3
REMARK    3  A    between atoms: C_3  and  C_4
REMARK    4  A    between atoms: C_4  and  C_5
REMARK    5  A    between atoms: C_5  and  C_6
REMARK    6  A    between atoms: C_6  and  O_7
REMARK    7  A    between atoms: C_6  and  C_8
REMARK    8  A    between atoms: C_8  and  C_9
REMARK    9  A    between atoms: C_9  and  C_10
REMARK   10  A    between atoms: C_10  and  N_11
REMARK   11  A    between atoms: N_11  and  C_12
REMARK   12  A    between atoms: N_11  and  S_21
REMARK   13  A    between atoms: C_12  and  C_13
REMARK   14  A    between atoms: C_14  and  C_15
REMARK   15  A    between atoms: C_15  and  C_16
REMARK   16  A    between atoms: C_16  and  C_17
REMARK   17  A    between atoms: C_17  and  C_18
REMARK   18  A    between atoms: C_18  and  O_20
REMARK   19  A    between atoms: S_21  and  C_22
REMARK                            x       y       z     vdW  Elec       q    Type
REMARK                         _______ _______ _______ _____ _____    ______ ____
ROOT
ATOM      1  N   UNL     1       5.836   5.022  17.985  0.00  0.00    +0.000 NA
ENDROOT
BRANCH   1   2
ATOM      2  S   UNL     1       7.532   5.346  18.161  0.00  0.00    +0.000 S 
ATOM      3  C   UNL     1       7.705   5.518  19.934  0.00  0.00    +0.000 C 
ATOM      4  O   UNL     1       8.247   4.148  17.770  0.00  0.00    +0.000 OA
ATOM      5  O   UNL     1       7.865   6.611  17.549  0.00  0.00    +0.000 OA
ENDBRANCH   1   2
BRANCH   1   6
ATOM      6  C   UNL     1       5.069   4.599  19.199  0.00  0.00    +0.000 C 
BRANCH   6   7
ATOM      7  C   UNL     1       4.593   3.174  19.151  0.00  0.00    +0.000 C 
ATOM      8  C   UNL     1       3.451   2.664  18.659  0.00  0.00    +0.000 C 
BRANCH   8   9
ATOM      9  C   UNL     1       2.305   3.400  18.027  0.00  0.00    +0.000 C 
BRANCH   9  10
ATOM     10  C   UNL     1       1.346   4.020  19.054  0.00  0.00    +0.000 C 
BRANCH  10  11
ATOM     11  C   UNL     1       1.162   3.196  20.324  0.00  0.00    +0.000 C 
BRANCH  11  12
ATOM     12  C   UNL     1       1.989   3.744  21.452  0.00  0.00    +0.000 C 
ATOM     13  O   UNL     1       2.349   3.076  22.411  0.00  0.00    +0.000 OA
BRANCH  12  14
ATOM     14  O   UNL     1       2.294   5.050  21.322  0.00  0.00    +0.000 OA
ATOM     15  H   UNL     1       3.250   5.257  21.332  0.00  0.00    +0.000 HD
ENDBRANCH  12  14
ENDBRANCH  11  12
ENDBRANCH  10  11
ENDBRANCH   9  10
ENDBRANCH   8   9
ENDBRANCH   6   7
ENDBRANCH   1   6
BRANCH   1  16
ATOM     16  C   UNL     1       5.586   4.132  16.788  0.00  0.00    +0.000 C 
BRANCH  16  17
ATOM     17  C   UNL     1       5.117   4.821  15.513  0.00  0.00    +0.000 C 
BRANCH  17  18
ATOM     18  C   UNL     1       6.232   5.539  14.759  0.00  0.00    +0.000 C 
BRANCH  18  19
ATOM     19  C   UNL     1       6.839   4.646  13.673  0.00  0.00    +0.000 C 
BRANCH  19  20
ATOM     20  O   UNL     1       7.885   5.363  13.012  0.00  0.00    +0.000 OA
ATOM     21  H   UNL     1       8.692   5.247  13.542  0.00  0.00    +0.000 HD
ENDBRANCH  19  20
BRANCH  19  22
ATOM     22  C   UNL     1       5.796   4.209  12.643  0.00  0.00    +0.000 C 
BRANCH  22  23
ATOM     23  C   UNL     1       6.187   2.898  11.956  0.00  0.00    +0.000 C 
BRANCH  23  24
ATOM     24  C   UNL     1       5.014   2.329  11.159  0.00  0.00    +0.000 C 
BRANCH  24  26
ATOM     25  C   UNL     1       3.287   3.669   9.923  0.00  0.00    +0.000 C 
ATOM     26  C   UNL     1       3.772   3.207  11.287  0.00  0.00    +0.000 C 
ENDBRANCH  24  26
ENDBRANCH  23  24
ENDBRANCH  22  23
ENDBRANCH  19  22
ENDBRANCH  18  19
ENDBRANCH  17  18
ENDBRANCH  16  17
ENDBRANCH   1  16
TORSDOF 17
ENDMDL
MODEL 8
REMARK VINA RESULT:      -6.1      4.571      7.789
REMARK  Name = 
REMARK  19 active torsions:
REMARK  status: ('A' for Active; 'I' for Inactive)
REMARK    1  A    between atoms: C_1  and  C_2
REMARK    2  A    between atoms: C_2  and  C_3
REMARK    3  A    between atoms: C_3  and  C_4
REMARK    4  A    between atoms: C_4  and  C_5
REMARK    5  A    between atoms: C_5  and  C_6
REMARK    6  A    between atoms: C_6  and  O_7
REMARK    7  A    between atoms: C_6  and  C_8
REMARK    8  A    between atoms: C_8  and  C_9
REMARK    9  A    between atoms: C_9  and  C_10
REMARK   10  A    between atoms: C_10  and  N_11
REMARK   11  A    between atoms: N_11  and  C_12
REMARK   12  A    between atoms: N_11  and  S_21
REMARK   13  A    between atoms: C_12  and  C_13
REMARK   14  A    between atoms: C_14  and  C_15
REMARK   15  A    between atoms: C_15  and  C_16
REMARK   16  A    between atoms: C_16  and  C_17
REMARK   17  A    between atoms: C_17  and  C_18
REMARK   18  A    between atoms: C_18  and  O_20
REMARK   19  A    between atoms: S_21  and  C_22
REMARK                            x       y       z     vdW  Elec       q    Type
REMARK                         _______ _______ _______ _____ _____    ______ ____
ROOT
ATOM      1  N   UNL     1       2.731   4.333  18.988  0.00  0.00    +0.000 NA
ENDROOT
BRANCH   1   2
ATOM      2  S   UNL     1       1.786   3.214  19.919  0.00  0.00    +0.000 S 
ATOM      3  C   UNL     1       2.568   3.299  21.526  0.00  0.00    +0.000 C 
ATOM      4  O   UNL     1       0.456   3.773  20.053  0.00  0.00    +0.000 OA
ATOM      5  O   UNL     1       1.951   1.873  19.407  0.00  0.00    +0.000 OA
ENDBRANCH   1   2
BRANCH   1   6
ATOM      6  C   UNL     1       2.007   5.321  18.127  0.00  0.00    +0.000 C 
BRANCH   6   7
ATOM      7  C   UNL     1       2.450   6.743  18.331  0.00  0.00    +0.000 C 
ATOM      8  C   UNL     1       2.231   7.572  19.367  0.00  0.00    +0.000 C 
BRANCH   8   9
ATOM      9  C   UNL     1       1.452   7.301  20.622  0.00  0.00    +0.000 C 
BRANCH   9  10
ATOM     10  C   UNL     1       1.240   8.554  21.483  0.00  0.00    +0.000 C 
BRANCH  10  11
ATOM     11  C   UNL     1      -0.206   8.796  21.902  0.00  0.00    +0.000 C 
BRANCH  11  12
ATOM     12  C   UNL     1      -0.285   9.727  23.078  0.00  0.00    +0.000 C 
ATOM     13  O   UNL     1       0.454   9.651  24.049  0.00  0.00    +0.000 OA
BRANCH  12  14
ATOM     14  O   UNL     1      -1.255  10.656  22.974  0.00  0.00    +0.000 OA
ATOM     15  H   UNL     1      -2.101  10.335  22.601  0.00  0.00    +0.000 HD
ENDBRANCH  12  14
ENDBRANCH  11  12
ENDBRANCH  10  11
ENDBRANCH   9  10
ENDBRANCH   8   9
ENDBRANCH   6   7
ENDBRANCH   1   6
BRANCH   1  16
ATOM     16  C   UNL     1       3.841   3.611  18.255  0.00  0.00    +0.000 C 
BRANCH  16  17
ATOM     17  C   UNL     1       5.181   4.329  18.172  0.00  0.00    +0.000 C 
BRANCH  17  18
ATOM     18  C   UNL     1       5.485   4.903  16.792  0.00  0.00    +0.000 C 
BRANCH  18  19
ATOM     19  C   UNL     1       6.895   5.499  16.730  0.00  0.00    +0.000 C 
BRANCH  19  20
ATOM     20  O   UNL     1       7.685   4.730  15.820  0.00  0.00    +0.000 OA
ATOM     21  H   UNL     1       7.071   4.253  15.237  0.00  0.00    +0.000 HD
ENDBRANCH  19  20
BRANCH  19  22
ATOM     22  C   UNL     1       7.570   5.512  18.102  0.00  0.00    +0.000 C 
BRANCH  22  23
ATOM     23  C   UNL     1       7.996   6.924  18.515  0.00  0.00    +0.000 C 
BRANCH  23  24
ATOM     24  C   UNL     1       7.471   7.962  17.524  0.00  0.00    +0.000 C 
BRANCH  24  26
ATOM     25  C   UNL     1       8.954   9.340  19.010  0.00  0.00    +0.000 C 
ATOM     26  C   UNL     1       8.144   9.318  17.725  0.00  0.00    +0.000 C 
ENDBRANCH  24  26
ENDBRANCH  23  24
ENDBRANCH  22  23
ENDBRANCH  19  22
ENDBRANCH  18  19
ENDBRANCH  17  18
ENDBRANCH  16  17
ENDBRANCH   1  16
TORSDOF 17
ENDMDL
MODEL 9
REMARK VINA RESULT:      -6.0      3.733      8.210
REMARK  Name = 
REMARK  19 active torsions:
REMARK  status: ('A' for Active; 'I' for Inactive)
REMARK    1  A    between atoms: C_1  and  C_2
REMARK    2  A    between atoms: C_2  and  C_3
REMARK    3  A    between atoms: C_3  and  C_4
REMARK    4  A    between atoms: C_4  and  C_5
REMARK    5  A    between atoms: C_5  and  C_6
REMARK    6  A    between atoms: C_6  and  O_7
REMARK    7  A    between atoms: C_6  and  C_8
REMARK    8  A    between atoms: C_8  and  C_9
REMARK    9  A    between atoms: C_9  and  C_10
REMARK   10  A    between atoms: C_10  and  N_11
REMARK   11  A    between atoms: N_11  and  C_12
REMARK   12  A    between atoms: N_11  and  S_21
REMARK   13  A    between atoms: C_12  and  C_13
REMARK   14  A    between atoms: C_14  and  C_15
REMARK   15  A    between atoms: C_15  and  C_16
REMARK   16  A    between atoms: C_16  and  C_17
REMARK   17  A    between atoms: C_17  and  C_18
REMARK   18  A    between atoms: C_18  and  O_20
REMARK   19  A    between atoms: S_21  and  C_22
REMARK                            x       y       z     vdW  Elec       q    Type
REMARK                         _______ _______ _______ _____ _____    ______ ____
ROOT
ATOM      1  N   UNL     1       5.485   6.236  18.060  0.00  0.00    +0.000 NA
ENDROOT
BRANCH   1   2
ATOM      2  S   UNL     1       7.138   5.801  17.761  0.00  0.00    +0.000 S 
ATOM      3  C   UNL     1       7.904   6.095  19.350  0.00  0.00    +0.000 C 
ATOM      4  O   UNL     1       7.176   4.373  17.519  0.00  0.00    +0.000 OA
ATOM      5  O   UNL     1       7.727   6.706  16.801  0.00  0.00    +0.000 OA
ENDBRANCH   1   2
BRANCH   1   6
ATOM      6  C   UNL     1       4.720   5.444  19.074  0.00  0.00    +0.000 C 
BRANCH   6   7
ATOM      7  C   UNL     1       3.304   5.911  19.267  0.00  0.00    +0.000 C 
ATOM      8  C   UNL     1       2.380   5.514  20.159  0.00  0.00    +0.000 C 
BRANCH   8   9
ATOM      9  C   UNL     1       2.511   4.458  21.220  0.00  0.00    +0.000 C 
BRANCH   9  10
ATOM     10  C   UNL     1       1.574   3.262  20.999  0.00  0.00    +0.000 C 
BRANCH  10  11
ATOM     11  C   UNL     1       0.604   3.427  19.834  0.00  0.00    +0.000 C 
BRANCH  11  12
ATOM     12  C   UNL     1       1.088   2.698  18.614  0.00  0.00    +0.000 C 
ATOM     13  O   UNL     1       1.544   3.260  17.628  0.00  0.00    +0.000 OA
BRANCH  12  14
ATOM     14  O   UNL     1       0.967   1.357  18.695  0.00  0.00    +0.000 OA
ATOM     15  H   UNL     1       1.764   0.851  18.434  0.00  0.00    +0.000 HD
ENDBRANCH  12  14
ENDBRANCH  11  12
ENDBRANCH  10  11
ENDBRANCH   9  10
ENDBRANCH   8   9
ENDBRANCH   6   7
ENDBRANCH   1   6
BRANCH   1  16
ATOM     16  C   UNL     1       4.736   6.409  16.757  0.00  0.00    +0.000 C 
BRANCH  16  17
ATOM     17  C   UNL     1       5.483   6.028  15.486  0.00  0.00    +0.000 C 
BRANCH  17  18
ATOM     18  C   UNL     1       5.114   4.649  14.948  0.00  0.00    +0.000 C 
BRANCH  18  19
ATOM     19  C   UNL     1       6.317   3.964  14.291  0.00  0.00    +0.000 C 
BRANCH  19  20
ATOM     20  O   UNL     1       7.510   4.653  14.670  0.00  0.00    +0.000 OA
ATOM     21  H   UNL     1       7.814   5.151  13.893  0.00  0.00    +0.000 HD
ENDBRANCH  19  20
BRANCH  19  22
ATOM     22  C   UNL     1       6.203   3.948  12.766  0.00  0.00    +0.000 C 
BRANCH  22  23
ATOM     23  C   UNL     1       5.251   2.853  12.277  0.00  0.00    +0.000 C 
BRANCH  23  24
ATOM     24  C   UNL     1       4.804   3.122  10.841  0.00  0.00    +0.000 C 
BRANCH  24  26
ATOM     25  C   UNL     1       2.931   4.230   9.585  0.00  0.00    +0.000 C 
ATOM     26  C   UNL     1       3.293   3.328  10.754  0.00  0.00    +0.000 C 
ENDBRANCH  24  26
ENDBRANCH  23  24
ENDBRANCH  22  23
ENDBRANCH  19  22
ENDBRANCH  18  19
ENDBRANCH  17  18
ENDBRANCH  16  17
ENDBRANCH   1  16
TORSDOF 17
ENDMDL
