MODEL 1
REMARK VINA RESULT:      -8.8      0.000      0.000
REMARK  Name = 
REMARK  11 active torsions:
REMARK  status: ('A' for Active; 'I' for Inactive)
REMARK    1  A    between atoms: C_1  and  C_2
REMARK    2  A    between atoms: C_4  and  C_5
REMARK    3  A    between atoms: C_5  and  O_6
REMARK    4  A    between atoms: O_6  and  C_7
REMARK    5  A    between atoms: C_7  and  C_8
REMARK    6  A    between atoms: C_14  and  O_15
REMARK    7  A    between atoms: O_15  and  C_16
REMARK    8  A    between atoms: C_16  and  C_17
REMARK    9  A    between atoms: C_23  and  O_24
REMARK   10  A    between atoms: O_24  and  C_25
REMARK   11  A    between atoms: C_25  and  C_26
REMARK                            x       y       z     vdW  Elec       q    Type
REMARK                         _______ _______ _______ _____ _____    ______ ____
ROOT
ATOM      1  C   UNL     1       7.819   6.908  18.641  0.00  0.00    +0.000 C 
ATOM      2  C   UNL     1       7.601   6.464  17.198  0.00  0.00    +0.000 C 
ATOM      3  O   UNL     1       6.686   7.332  16.551  0.00  0.00    +0.000 OA
ATOM      4  C   UNL     1       5.336   6.861  16.457  0.00  0.00    +0.000 C 
ATOM      5  C   UNL     1       5.313   5.444  15.832  0.00  0.00    +0.000 C 
ATOM      6  C   UNL     1       5.981   4.428  16.770  0.00  0.00    +0.000 C 
ATOM      7  C   UNL     1       7.379   4.944  17.128  0.00  0.00    +0.000 C 
ATOM      8  O   UNL     1       8.294   4.155  17.389  0.00  0.00    +0.000 OA
ENDROOT
BRANCH   4   9
ATOM      9  C   UNL     1       4.598   7.006  17.810  0.00  0.00    +0.000 C 
BRANCH   9  10
ATOM     10  O   UNL     1       3.172   6.993  17.684  0.00  0.00    +0.000 OA
BRANCH  10  11
ATOM     11  C   UNL     1       2.563   8.279  17.718  0.00  0.00    +0.000 C 
BRANCH  11  12
ATOM     12  C   UNL     1       1.847   8.452  19.034  0.00  0.00    +0.000 A 
ATOM     13  C   UNL     1       1.072   9.598  19.269  0.00  0.00    +0.000 A 
ATOM     14  C   UNL     1       0.383   9.757  20.473  0.00  0.00    +0.000 A 
ATOM     15  C   UNL     1       0.460   8.772  21.455  0.00  0.00    +0.000 A 
ATOM     16  C   UNL     1       1.224   7.628  21.234  0.00  0.00    +0.000 A 
ATOM     17  C   UNL     1       1.914   7.468  20.030  0.00  0.00    +0.000 A 
ENDBRANCH  11  12
ENDBRANCH  10  11
ENDBRANCH   9  10
ENDBRANCH   4   9
BRANCH   5  18
ATOM     18  O   UNL     1       5.983   5.511  14.554  0.00  0.00    +0.000 OA
BRANCH  18  19
ATOM     19  C   UNL     1       6.676   4.323  14.172  0.00  0.00    +0.000 C 
BRANCH  19  20
ATOM     20  C   UNL     1       5.970   3.600  13.056  0.00  0.00    +0.000 A 
ATOM     21  C   UNL     1       4.663   3.933  12.674  0.00  0.00    +0.000 A 
ATOM     22  C   UNL     1       4.065   3.311  11.578  0.00  0.00    +0.000 A 
ATOM     23  C   UNL     1       4.771   2.360  10.844  0.00  0.00    +0.000 A 
ATOM     24  C   UNL     1       6.078   2.032  11.201  0.00  0.00    +0.000 A 
ATOM     25  C   UNL     1       6.676   2.653  12.298  0.00  0.00    +0.000 A 
ENDBRANCH  19  20
ENDBRANCH  18  19
ENDBRANCH   5  18
BRANCH   6  26
ATOM     26  O   UNL     1       5.158   4.104  17.893  0.00  0.00    +0.000 OA
BRANCH  26  27
ATOM     27  C   UNL     1       3.934   3.463  17.502  0.00  0.00    +0.000 C 
BRANCH  27  28
ATOM     28  C   UNL     1       2.910   3.392  18.612  0.00  0.00    +0.000 A 
ATOM     29  C   UNL     1       1.628   2.872  18.417  0.00  0.00    +0.000 A 
ATOM     30  C   UNL     1       0.699   2.879  19.460  0.00  0.00    +0.000 A 
ATOM     31  C   UNL     1       1.034   3.409  20.702  0.00  0.00    +0.000 A 
ATOM     32  C   UNL     1       2.311   3.917  20.914  0.00  0.00    +0.000 A 
ATOM     33  C   UNL     1       3.246   3.907  19.876  0.00  0.00    +0.000 A 
ENDBRANCH  27  28
ENDBRANCH  26  27
ENDBRANCH   6  26
TORSDOF 10
ENDMDL
MODEL 2
REMARK VINA RESULT:      -8.6      0.598      1.328
REMARK  Name = 
REMARK  11 active torsions:
REMARK  status: ('A' for Active; 'I' for Inactive)
REMARK    1  A    between atoms: C_1  and  C_2
REMARK    2  A    between atoms: C_4  and  C_5
REMARK    3  A    between atoms: C_5  and  O_6
REMARK    4  A    between atoms: O_6  and  C_7
REMARK    5  A    between atoms: C_7  and  C_8
REMARK    6  A    between atoms: C_14  and  O_15
REMARK    7  A    between atoms: O_15  and  C_16
REMARK    8  A    between atoms: C_16  and  C_17
REMARK    9  A    between atoms: C_23  and  O_24
REMARK   10  A    between atoms: O_24  and  C_25
REMARK   11  A    between atoms: C_25  and  C_26
REMARK                            x       y       z     vdW  Elec       q    Type
REMARK                         _______ _______ _______ _____ _____    ______ ____
ROOT
ATOM      1  C   UNL     1       7.653   6.951  18.351  0.00  0.00    +0.000 C 
ATOM      2  C   UNL     1       7.363   6.407  16.955  0.00  0.00    +0.000 C 
ATOM      3  O   UNL     1       6.339   7.166  16.336  0.00  0.00    +0.000 OA
ATOM      4  C   UNL     1       5.025   6.595  16.374  0.00  0.00    +0.000 C 
ATOM      5  C   UNL     1       5.064   5.145  15.831  0.00  0.00    +0.000 C 
ATOM      6  C   UNL     1       5.875   4.238  16.767  0.00  0.00    +0.000 C 
ATOM      7  C   UNL     1       7.253   4.874  16.985  0.00  0.00    +0.000 C 
ATOM      8  O   UNL     1       8.242   4.169  17.217  0.00  0.00    +0.000 OA
ENDROOT
BRANCH   4   9
ATOM      9  C   UNL     1       4.381   6.768  17.771  0.00  0.00    +0.000 C 
BRANCH   9  10
ATOM     10  O   UNL     1       3.693   8.014  17.929  0.00  0.00    +0.000 OA
BRANCH  10  11
ATOM     11  C   UNL     1       2.279   7.931  17.792  0.00  0.00    +0.000 C 
BRANCH  11  12
ATOM     12  C   UNL     1       1.629   8.478  19.038  0.00  0.00    +0.000 A 
ATOM     13  C   UNL     1       1.748   7.788  20.255  0.00  0.00    +0.000 A 
ATOM     14  C   UNL     1       1.175   8.298  21.421  0.00  0.00    +0.000 A 
ATOM     15  C   UNL     1       0.476   9.504  21.385  0.00  0.00    +0.000 A 
ATOM     16  C   UNL     1       0.352  10.199  20.184  0.00  0.00    +0.000 A 
ATOM     17  C   UNL     1       0.925   9.689  19.016  0.00  0.00    +0.000 A 
ENDBRANCH  11  12
ENDBRANCH  10  11
ENDBRANCH   9  10
ENDBRANCH   4   9
BRANCH   5  18
ATOM     18  O   UNL     1       5.630   5.183  14.502  0.00  0.00    +0.000 OA
BRANCH  18  19
ATOM     19  C   UNL     1       6.362   4.017  14.123  0.00  0.00    +0.000 C 
BRANCH  19  20
ATOM     20  C   UNL     1       5.824   3.410  12.855  0.00  0.00    +0.000 A 
ATOM     21  C   UNL     1       6.472   2.342  12.218  0.00  0.00    +0.000 A 
ATOM     22  C   UNL     1       5.905   1.738  11.096  0.00  0.00    +0.000 A 
ATOM     23  C   UNL     1       4.680   2.185  10.606  0.00  0.00    +0.000 A 
ATOM     24  C   UNL     1       4.016   3.234  11.241  0.00  0.00    +0.000 A 
ATOM     25  C   UNL     1       4.582   3.839  12.362  0.00  0.00    +0.000 A 
ENDBRANCH  19  20
ENDBRANCH  18  19
ENDBRANCH   5  18
BRANCH   6  26
ATOM     26  O   UNL     1       5.165   3.924  17.967  0.00  0.00    +0.000 OA
BRANCH  26  27
ATOM     27  C   UNL     1       3.903   3.292  17.702  0.00  0.00    +0.000 C 
BRANCH  27  28
ATOM     28  C   UNL     1       2.961   3.309  18.883  0.00  0.00    +0.000 A 
ATOM     29  C   UNL     1       1.753   4.012  18.869  0.00  0.00    +0.000 A 
ATOM     30  C   UNL     1       0.942   4.043  20.007  0.00  0.00    +0.000 A 
ATOM     31  C   UNL     1       1.328   3.380  21.168  0.00  0.00    +0.000 A 
ATOM     32  C   UNL     1       2.520   2.666  21.191  0.00  0.00    +0.000 A 
ATOM     33  C   UNL     1       3.332   2.627  20.056  0.00  0.00    +0.000 A 
ENDBRANCH  27  28
ENDBRANCH  26  27
ENDBRANCH   6  26
TORSDOF 10
ENDMDL
MODEL 3
REMARK VINA RESULT:      -8.6      2.395      4.393
REMARK  Name = 
REMARK  11 active torsions:
REMARK  status: ('A' for Active; 'I' for Inactive)
REMARK    1  A    between atoms: C_1  and  C_2
REMARK    2  A    between atoms: C_4  and  C_5
REMARK    3  A    between atoms: C_5  and  O_6
REMARK    4  A    between atoms: O_6  and  C_7
REMARK    5  A    between atoms: C_7  and  C_8
REMARK    6  A    between atoms: C_14  and  O_15
REMARK    7  A    between atoms: O_15  and  C_16
REMARK    8  A    between atoms: C_16  and  C_17
REMARK    9  A    between atoms: C_23  and  O_24
REMARK   10  A    between atoms: O_24  and  C_25
REMARK   11  A    between atoms: C_25  and  C_26
REMARK                            x       y       z     vdW  Elec       q    Type
REMARK                         _______ _______ _______ _____ _____    ______ ____
ROOT
ATOM      1  C   UNL     1       7.516   5.489  19.808  0.00  0.00    +0.000 C 
ATOM      2  C   UNL     1       7.254   4.813  18.466  0.00  0.00    +0.000 C 
ATOM      3  O   UNL     1       7.858   5.552  17.419  0.00  0.00    +0.000 OA
ATOM      4  C   UNL     1       6.987   6.416  16.677  0.00  0.00    +0.000 C 
ATOM      5  C   UNL     1       5.757   5.619  16.174  0.00  0.00    +0.000 C 
ATOM      6  C   UNL     1       4.889   5.162  17.354  0.00  0.00    +0.000 C 
ATOM      7  C   UNL     1       5.777   4.403  18.346  0.00  0.00    +0.000 C 
ATOM      8  O   UNL     1       5.305   3.509  19.057  0.00  0.00    +0.000 OA
ENDROOT
BRANCH   4   9
ATOM      9  C   UNL     1       6.668   7.704  17.474  0.00  0.00    +0.000 C 
BRANCH   9  10
ATOM     10  O   UNL     1       7.725   8.669  17.441  0.00  0.00    +0.000 OA
BRANCH  10  11
ATOM     11  C   UNL     1       8.601   8.626  18.563  0.00  0.00    +0.000 C 
BRANCH  11  12
ATOM     12  C   UNL     1       9.092  10.021  18.859  0.00  0.00    +0.000 A 
ATOM     13  C   UNL     1       9.327  10.922  17.809  0.00  0.00    +0.000 A 
ATOM     14  C   UNL     1       9.756  12.224  18.071  0.00  0.00    +0.000 A 
ATOM     15  C   UNL     1       9.954  12.641  19.386  0.00  0.00    +0.000 A 
ATOM     16  C   UNL     1       9.723  11.757  20.438  0.00  0.00    +0.000 A 
ATOM     17  C   UNL     1       9.294  10.454  20.176  0.00  0.00    +0.000 A 
ENDBRANCH  11  12
ENDBRANCH  10  11
ENDBRANCH   9  10
ENDBRANCH   4   9
BRANCH   5  18
ATOM     18  O   UNL     1       6.240   4.498  15.401  0.00  0.00    +0.000 OA
BRANCH  18  19
ATOM     19  C   UNL     1       6.693   4.822  14.086  0.00  0.00    +0.000 C 
BRANCH  19  20
ATOM     20  C   UNL     1       6.148   3.866  13.059  0.00  0.00    +0.000 A 
ATOM     21  C   UNL     1       4.814   3.925  12.632  0.00  0.00    +0.000 A 
ATOM     22  C   UNL     1       4.358   3.088  11.613  0.00  0.00    +0.000 A 
ATOM     23  C   UNL     1       5.233   2.193  11.002  0.00  0.00    +0.000 A 
ATOM     24  C   UNL     1       6.566   2.135  11.404  0.00  0.00    +0.000 A 
ATOM     25  C   UNL     1       7.023   2.971  12.423  0.00  0.00    +0.000 A 
ENDBRANCH  19  20
ENDBRANCH  18  19
ENDBRANCH   5  18
BRANCH   6  26
ATOM     26  O   UNL     1       4.140   6.238  17.925  0.00  0.00    +0.000 OA
BRANCH  26  27
ATOM     27  C   UNL     1       2.724   6.025  17.830  0.00  0.00    +0.000 C 
BRANCH  27  28
ATOM     28  C   UNL     1       2.187   5.070  18.871  0.00  0.00    +0.000 A 
ATOM     29  C   UNL     1       2.397   5.256  20.239  0.00  0.00    +0.000 A 
ATOM     30  C   UNL     1       1.927   4.314  21.159  0.00  0.00    +0.000 A 
ATOM     31  C   UNL     1       1.251   3.178  20.725  0.00  0.00    +0.000 A 
ATOM     32  C   UNL     1       1.023   2.988  19.367  0.00  0.00    +0.000 A 
ATOM     33  C   UNL     1       1.485   3.928  18.443  0.00  0.00    +0.000 A 
ENDBRANCH  27  28
ENDBRANCH  26  27
ENDBRANCH   6  26
TORSDOF 10
ENDMDL
MODEL 4
REMARK VINA RESULT:      -8.5      0.712      1.100
REMARK  Name = 
REMARK  11 active torsions:
REMARK  status: ('A' for Active; 'I' for Inactive)
REMARK    1  A    between atoms: C_1  and  C_2
REMARK    2  A    between atoms: C_4  and  C_5
REMARK    3  A    between atoms: C_5  and  O_6
REMARK    4  A    between atoms: O_6  and  C_7
REMARK    5  A    between atoms: C_7  and  C_8
REMARK    6  A    between atoms: C_14  and  O_15
REMARK    7  A    between atoms: O_15  and  C_16
REMARK    8  A    between atoms: C_16  and  C_17
REMARK    9  A    between atoms: C_23  and  O_24
REMARK   10  A    between atoms: O_24  and  C_25
REMARK   11  A    between atoms: C_25  and  C_26
REMARK                            x       y       z     vdW  Elec       q    Type
REMARK                         _______ _______ _______ _____ _____    ______ ____
ROOT
ATOM      1  C   UNL     1       7.622   6.809  18.441  0.00  0.00    +0.000 C 
ATOM      2  C   UNL     1       7.400   6.242  17.043  0.00  0.00    +0.000 C 
ATOM      3  O   UNL     1       6.384   6.971  16.374  0.00  0.00    +0.000 OA
ATOM      4  C   UNL     1       5.083   6.371  16.368  0.00  0.00    +0.000 C 
ATOM      5  C   UNL     1       5.175   4.915  15.845  0.00  0.00    +0.000 C 
ATOM      6  C   UNL     1       5.969   4.039  16.824  0.00  0.00    +0.000 C 
ATOM      7  C   UNL     1       7.322   4.707  17.087  0.00  0.00    +0.000 C 
ATOM      8  O   UNL     1       8.317   4.028  17.366  0.00  0.00    +0.000 OA
ENDROOT
BRANCH   4   9
ATOM      9  C   UNL     1       4.381   6.545  17.737  0.00  0.00    +0.000 C 
BRANCH   9  10
ATOM     10  O   UNL     1       3.013   6.954  17.626  0.00  0.00    +0.000 OA
BRANCH  10  11
ATOM     11  C   UNL     1       2.798   8.352  17.788  0.00  0.00    +0.000 C 
BRANCH  11  12
ATOM     12  C   UNL     1       1.880   8.577  18.963  0.00  0.00    +0.000 A 
ATOM     13  C   UNL     1       0.931   9.611  18.928  0.00  0.00    +0.000 A 
ATOM     14  C   UNL     1       0.058   9.813  19.998  0.00  0.00    +0.000 A 
ATOM     15  C   UNL     1       0.121   8.982  21.115  0.00  0.00    +0.000 A 
ATOM     16  C   UNL     1       1.057   7.951  21.162  0.00  0.00    +0.000 A 
ATOM     17  C   UNL     1       1.931   7.749  20.092  0.00  0.00    +0.000 A 
ENDBRANCH  11  12
ENDBRANCH  10  11
ENDBRANCH   9  10
ENDBRANCH   4   9
BRANCH   5  18
ATOM     18  O   UNL     1       5.791   4.951  14.540  0.00  0.00    +0.000 OA
BRANCH  18  19
ATOM     19  C   UNL     1       4.972   4.473  13.472  0.00  0.00    +0.000 C 
BRANCH  19  20
ATOM     20  C   UNL     1       5.742   3.581  12.536  0.00  0.00    +0.000 A 
ATOM     21  C   UNL     1       7.107   3.782  12.283  0.00  0.00    +0.000 A 
ATOM     22  C   UNL     1       7.818   2.887  11.483  0.00  0.00    +0.000 A 
ATOM     23  C   UNL     1       7.178   1.777  10.938  0.00  0.00    +0.000 A 
ATOM     24  C   UNL     1       5.825   1.555  11.195  0.00  0.00    +0.000 A 
ATOM     25  C   UNL     1       5.113   2.449  11.994  0.00  0.00    +0.000 A 
ENDBRANCH  19  20
ENDBRANCH  18  19
ENDBRANCH   5  18
BRANCH   6  26
ATOM     26  O   UNL     1       5.219   3.722  17.999  0.00  0.00    +0.000 OA
BRANCH  26  27
ATOM     27  C   UNL     1       3.957   3.111  17.691  0.00  0.00    +0.000 C 
BRANCH  27  28
ATOM     28  C   UNL     1       2.990   3.105  18.853  0.00  0.00    +0.000 A 
ATOM     29  C   UNL     1       1.623   3.341  18.692  0.00  0.00    +0.000 A 
ATOM     30  C   UNL     1       0.778   3.380  19.805  0.00  0.00    +0.000 A 
ATOM     31  C   UNL     1       1.288   3.191  21.086  0.00  0.00    +0.000 A 
ATOM     32  C   UNL     1       2.645   2.941  21.259  0.00  0.00    +0.000 A 
ATOM     33  C   UNL     1       3.493   2.896  20.150  0.00  0.00    +0.000 A 
ENDBRANCH  27  28
ENDBRANCH  26  27
ENDBRANCH   6  26
TORSDOF 10
ENDMDL
MODEL 5
REMARK VINA RESULT:      -8.4      0.683      1.258
REMARK  Name = 
REMARK  11 active torsions:
REMARK  status: ('A' for Active; 'I' for Inactive)
REMARK    1  A    between atoms: C_1  and  C_2
REMARK    2  A    between atoms: C_4  and  C_5
REMARK    3  A    between atoms: C_5  and  O_6
REMARK    4  A    between atoms: O_6  and  C_7
REMARK    5  A    between atoms: C_7  and  C_8
REMARK    6  A    between atoms: C_14  and  O_15
REMARK    7  A    between atoms: O_15  and  C_16
REMARK    8  A    between atoms: C_16  and  C_17
REMARK    9  A    between atoms: C_23  and  O_24
REMARK   10  A    between atoms: O_24  and  C_25
REMARK   11  A    between atoms: C_25  and  C_26
REMARK                            x       y       z     vdW  Elec       q    Type
REMARK                         _______ _______ _______ _____ _____    ______ ____
ROOT
ATOM      1  C   UNL     1       7.614   6.875  18.428  0.00  0.00    +0.000 C 
ATOM      2  C   UNL     1       7.436   6.293  17.029  0.00  0.00    +0.000 C 
ATOM      3  O   UNL     1       6.447   7.018  16.319  0.00  0.00    +0.000 OA
ATOM      4  C   UNL     1       5.143   6.423  16.276  0.00  0.00    +0.000 C 
ATOM      5  C   UNL     1       5.246   4.961  15.774  0.00  0.00    +0.000 C 
ATOM      6  C   UNL     1       6.003   4.093  16.788  0.00  0.00    +0.000 C 
ATOM      7  C   UNL     1       7.350   4.759  17.089  0.00  0.00    +0.000 C 
ATOM      8  O   UNL     1       8.331   4.078  17.409  0.00  0.00    +0.000 OA
ENDROOT
BRANCH   4   9
ATOM      9  C   UNL     1       4.397   6.616  17.619  0.00  0.00    +0.000 C 
BRANCH   9  10
ATOM     10  O   UNL     1       3.807   7.914  17.759  0.00  0.00    +0.000 OA
BRANCH  10  11
ATOM     11  C   UNL     1       2.394   7.943  17.588  0.00  0.00    +0.000 C 
BRANCH  11  12
ATOM     12  C   UNL     1       1.757   8.492  18.841  0.00  0.00    +0.000 A 
ATOM     13  C   UNL     1       1.836   7.773  20.043  0.00  0.00    +0.000 A 
ATOM     14  C   UNL     1       1.274   8.283  21.215  0.00  0.00    +0.000 A 
ATOM     15  C   UNL     1       0.629   9.518  21.199  0.00  0.00    +0.000 A 
ATOM     16  C   UNL     1       0.545  10.243  20.011  0.00  0.00    +0.000 A 
ATOM     17  C   UNL     1       1.107   9.733  18.838  0.00  0.00    +0.000 A 
ENDBRANCH  11  12
ENDBRANCH  10  11
ENDBRANCH   9  10
ENDBRANCH   4   9
BRANCH   5  18
ATOM     18  O   UNL     1       5.906   4.979  14.489  0.00  0.00    +0.000 OA
BRANCH  18  19
ATOM     19  C   UNL     1       5.105   4.535  13.393  0.00  0.00    +0.000 C 
BRANCH  19  20
ATOM     20  C   UNL     1       5.818   3.499  12.566  0.00  0.00    +0.000 A 
ATOM     21  C   UNL     1       5.146   2.388  12.039  0.00  0.00    +0.000 A 
ATOM     22  C   UNL     1       5.809   1.491  11.201  0.00  0.00    +0.000 A 
ATOM     23  C   UNL     1       7.145   1.702  10.870  0.00  0.00    +0.000 A 
ATOM     24  C   UNL     1       7.822   2.812  11.373  0.00  0.00    +0.000 A 
ATOM     25  C   UNL     1       7.160   3.709  12.211  0.00  0.00    +0.000 A 
ENDBRANCH  19  20
ENDBRANCH  18  19
ENDBRANCH   5  18
BRANCH   6  26
ATOM     26  O   UNL     1       5.213   3.793  17.941  0.00  0.00    +0.000 OA
BRANCH  26  27
ATOM     27  C   UNL     1       4.011   3.083  17.607  0.00  0.00    +0.000 C 
BRANCH  27  28
ATOM     28  C   UNL     1       2.926   3.209  18.652  0.00  0.00    +0.000 A 
ATOM     29  C   UNL     1       1.654   2.657  18.482  0.00  0.00    +0.000 A 
ATOM     30  C   UNL     1       0.667   2.849  19.453  0.00  0.00    +0.000 A 
ATOM     31  C   UNL     1       0.936   3.595  20.597  0.00  0.00    +0.000 A 
ATOM     32  C   UNL     1       2.202   4.138  20.784  0.00  0.00    +0.000 A 
ATOM     33  C   UNL     1       3.193   3.945  19.820  0.00  0.00    +0.000 A 
ENDBRANCH  27  28
ENDBRANCH  26  27
ENDBRANCH   6  26
TORSDOF 10
ENDMDL
MODEL 6
REMARK VINA RESULT:      -8.4      2.066      6.252
REMARK  Name = 
REMARK  11 active torsions:
REMARK  status: ('A' for Active; 'I' for Inactive)
REMARK    1  A    between atoms: C_1  and  C_2
REMARK    2  A    between atoms: C_4  and  C_5
REMARK    3  A    between atoms: C_5  and  O_6
REMARK    4  A    between atoms: O_6  and  C_7
REMARK    5  A    between atoms: C_7  and  C_8
REMARK    6  A    between atoms: C_14  and  O_15
REMARK    7  A    between atoms: O_15  and  C_16
REMARK    8  A    between atoms: C_16  and  C_17
REMARK    9  A    between atoms: C_23  and  O_24
REMARK   10  A    between atoms: O_24  and  C_25
REMARK   11  A    between atoms: C_25  and  C_26
REMARK                            x       y       z     vdW  Elec       q    Type
REMARK                         _______ _______ _______ _____ _____    ______ ____
ROOT
ATOM      1  C   UNL     1       5.982   4.034  14.945  0.00  0.00    +0.000 C 
ATOM      2  C   UNL     1       6.719   5.206  15.586  0.00  0.00    +0.000 C 
ATOM      3  O   UNL     1       7.567   4.744  16.623  0.00  0.00    +0.000 OA
ATOM      4  C   UNL     1       7.058   4.879  17.956  0.00  0.00    +0.000 C 
ATOM      5  C   UNL     1       6.605   6.340  18.202  0.00  0.00    +0.000 C 
ATOM      6  C   UNL     1       5.397   6.687  17.321  0.00  0.00    +0.000 C 
ATOM      7  C   UNL     1       5.749   6.366  15.865  0.00  0.00    +0.000 C 
ATOM      8  O   UNL     1       5.236   7.003  14.938  0.00  0.00    +0.000 OA
ENDROOT
BRANCH   4   9
ATOM      9  C   UNL     1       6.001   3.791  18.264  0.00  0.00    +0.000 C 
BRANCH   9  10
ATOM     10  O   UNL     1       5.514   3.836  19.609  0.00  0.00    +0.000 OA
BRANCH  10  11
ATOM     11  C   UNL     1       4.795   2.677  20.018  0.00  0.00    +0.000 C 
BRANCH  11  12
ATOM     12  C   UNL     1       3.316   2.972  19.969  0.00  0.00    +0.000 A 
ATOM     13  C   UNL     1       2.667   3.113  18.733  0.00  0.00    +0.000 A 
ATOM     14  C   UNL     1       1.294   3.359  18.674  0.00  0.00    +0.000 A 
ATOM     15  C   UNL     1       0.554   3.465  19.850  0.00  0.00    +0.000 A 
ATOM     16  C   UNL     1       1.186   3.327  21.084  0.00  0.00    +0.000 A 
ATOM     17  C   UNL     1       2.560   3.081  21.143  0.00  0.00    +0.000 A 
ENDBRANCH  11  12
ENDBRANCH  10  11
ENDBRANCH   9  10
ENDBRANCH   4   9
BRANCH   5  18
ATOM     18  O   UNL     1       7.729   7.205  17.932  0.00  0.00    +0.000 OA
BRANCH  18  19
ATOM     19  C   UNL     1       7.388   8.502  17.442  0.00  0.00    +0.000 C 
BRANCH  19  20
ATOM     20  C   UNL     1       8.272   9.570  18.029  0.00  0.00    +0.000 A 
ATOM     21  C   UNL     1       8.350  10.852  17.469  0.00  0.00    +0.000 A 
ATOM     22  C   UNL     1       9.106  11.850  18.085  0.00  0.00    +0.000 A 
ATOM     23  C   UNL     1       9.782  11.580  19.273  0.00  0.00    +0.000 A 
ATOM     24  C   UNL     1       9.699  10.314  19.851  0.00  0.00    +0.000 A 
ATOM     25  C   UNL     1       8.945   9.316  19.235  0.00  0.00    +0.000 A 
ENDBRANCH  19  20
ENDBRANCH  18  19
ENDBRANCH   5  18
BRANCH   6  26
ATOM     26  O   UNL     1       4.191   6.080  17.792  0.00  0.00    +0.000 OA
BRANCH  26  27
ATOM     27  C   UNL     1       3.030   6.864  17.479  0.00  0.00    +0.000 C 
BRANCH  27  28
ATOM     28  C   UNL     1       2.357   7.458  18.695  0.00  0.00    +0.000 A 
ATOM     29  C   UNL     1       2.225   6.757  19.896  0.00  0.00    +0.000 A 
ATOM     30  C   UNL     1       1.546   7.329  20.975  0.00  0.00    +0.000 A 
ATOM     31  C   UNL     1       0.987   8.599  20.866  0.00  0.00    +0.000 A 
ATOM     32  C   UNL     1       1.123   9.313  19.681  0.00  0.00    +0.000 A 
ATOM     33  C   UNL     1       1.806   8.748  18.601  0.00  0.00    +0.000 A 
ENDBRANCH  27  28
ENDBRANCH  26  27
ENDBRANCH   6  26
TORSDOF 10
ENDMDL
MODEL 7
REMARK VINA RESULT:      -8.3      0.816      1.386
REMARK  Name = 
REMARK  11 active torsions:
REMARK  status: ('A' for Active; 'I' for Inactive)
REMARK    1  A    between atoms: C_1  and  C_2
REMARK    2  A    between atoms: C_4  and  C_5
REMARK    3  A    between atoms: C_5  and  O_6
REMARK    4  A    between atoms: O_6  and  C_7
REMARK    5  A    between atoms: C_7  and  C_8
REMARK    6  A    between atoms: C_14  and  O_15
REMARK    7  A    between atoms: O_15  and  C_16
REMARK    8  A    between atoms: C_16  and  C_17
REMARK    9  A    between atoms: C_23  and  O_24
REMARK   10  A    between atoms: O_24  and  C_25
REMARK   11  A    between atoms: C_25  and  C_26
REMARK                            x       y       z     vdW  Elec       q    Type
REMARK                         _______ _______ _______ _____ _____    ______ ____
ROOT
ATOM      1  C   UNL     1       7.781   7.352  18.082  0.00  0.00    +0.000 C 
ATOM      2  C   UNL     1       7.518   6.249  17.061  0.00  0.00    +0.000 C 
ATOM      3  O   UNL     1       6.448   6.617  16.207  0.00  0.00    +0.000 OA
ATOM      4  C   UNL     1       5.170   6.050  16.523  0.00  0.00    +0.000 C 
ATOM      5  C   UNL     1       5.293   4.511  16.650  0.00  0.00    +0.000 C 
ATOM      6  C   UNL     1       6.160   4.135  17.859  0.00  0.00    +0.000 C 
ATOM      7  C   UNL     1       7.498   4.873  17.745  0.00  0.00    +0.000 C 
ATOM      8  O   UNL     1       8.528   4.387  18.226  0.00  0.00    +0.000 OA
ENDROOT
BRANCH   4   9
ATOM      9  C   UNL     1       4.523   6.770  17.732  0.00  0.00    +0.000 C 
BRANCH   9  10
ATOM     10  O   UNL     1       3.104   6.919  17.610  0.00  0.00    +0.000 OA
BRANCH  10  11
ATOM     11  C   UNL     1       2.641   8.263  17.696  0.00  0.00    +0.000 C 
BRANCH  11  12
ATOM     12  C   UNL     1       1.861   8.436  18.975  0.00  0.00    +0.000 A 
ATOM     13  C   UNL     1       0.996   9.530  19.129  0.00  0.00    +0.000 A 
ATOM     14  C   UNL     1       0.247   9.687  20.297  0.00  0.00    +0.000 A 
ATOM     15  C   UNL     1       0.354   8.751  21.324  0.00  0.00    +0.000 A 
ATOM     16  C   UNL     1       1.209   7.659  21.183  0.00  0.00    +0.000 A 
ATOM     17  C   UNL     1       1.958   7.502  20.014  0.00  0.00    +0.000 A 
ENDBRANCH  11  12
ENDBRANCH  10  11
ENDBRANCH   9  10
ENDBRANCH   4   9
BRANCH   5  18
ATOM     18  O   UNL     1       5.849   4.007  15.416  0.00  0.00    +0.000 OA
BRANCH  18  19
ATOM     19  C   UNL     1       5.331   4.608  14.229  0.00  0.00    +0.000 C 
BRANCH  19  20
ATOM     20  C   UNL     1       5.640   3.785  13.007  0.00  0.00    +0.000 A 
ATOM     21  C   UNL     1       6.958   3.494  12.630  0.00  0.00    +0.000 A 
ATOM     22  C   UNL     1       7.215   2.653  11.546  0.00  0.00    +0.000 A 
ATOM     23  C   UNL     1       6.159   2.086  10.837  0.00  0.00    +0.000 A 
ATOM     24  C   UNL     1       4.843   2.353  11.212  0.00  0.00    +0.000 A 
ATOM     25  C   UNL     1       4.585   3.193  12.295  0.00  0.00    +0.000 A 
ENDBRANCH  19  20
ENDBRANCH  18  19
ENDBRANCH   5  18
BRANCH   6  26
ATOM     26  O   UNL     1       5.475   4.327  19.099  0.00  0.00    +0.000 OA
BRANCH  26  27
ATOM     27  C   UNL     1       4.823   3.131  19.551  0.00  0.00    +0.000 C 
BRANCH  27  28
ATOM     28  C   UNL     1       3.343   3.307  19.801  0.00  0.00    +0.000 A 
ATOM     29  C   UNL     1       2.755   3.047  21.041  0.00  0.00    +0.000 A 
ATOM     30  C   UNL     1       1.373   3.171  21.206  0.00  0.00    +0.000 A 
ATOM     31  C   UNL     1       0.565   3.550  20.138  0.00  0.00    +0.000 A 
ATOM     32  C   UNL     1       1.139   3.825  18.902  0.00  0.00    +0.000 A 
ATOM     33  C   UNL     1       2.520   3.707  18.733  0.00  0.00    +0.000 A 
ENDBRANCH  27  28
ENDBRANCH  26  27
ENDBRANCH   6  26
TORSDOF 10
ENDMDL
MODEL 8
REMARK VINA RESULT:      -8.3      0.856      1.543
REMARK  Name = 
REMARK  11 active torsions:
REMARK  status: ('A' for Active; 'I' for Inactive)
REMARK    1  A    between atoms: C_1  and  C_2
REMARK    2  A    between atoms: C_4  and  C_5
REMARK    3  A    between atoms: C_5  and  O_6
REMARK    4  A    between atoms: O_6  and  C_7
REMARK    5  A    between atoms: C_7  and  C_8
REMARK    6  A    between atoms: C_14  and  O_15
REMARK    7  A    between atoms: O_15  and  C_16
REMARK    8  A    between atoms: C_16  and  C_17
REMARK    9  A    between atoms: C_23  and  O_24
REMARK   10  A    between atoms: O_24  and  C_25
REMARK   11  A    between atoms: C_25  and  C_26
REMARK                            x       y       z     vdW  Elec       q    Type
REMARK                         _______ _______ _______ _____ _____    ______ ____
ROOT
ATOM      1  C   UNL     1       7.769   7.405  18.150  0.00  0.00    +0.000 C 
ATOM      2  C   UNL     1       7.540   6.306  17.117  0.00  0.00    +0.000 C 
ATOM      3  O   UNL     1       6.549   6.706  16.187  0.00  0.00    +0.000 OA
ATOM      4  C   UNL     1       5.232   6.186  16.412  0.00  0.00    +0.000 C 
ATOM      5  C   UNL     1       5.290   4.645  16.552  0.00  0.00    +0.000 C 
ATOM      6  C   UNL     1       6.054   4.246  17.822  0.00  0.00    +0.000 C 
ATOM      7  C   UNL     1       7.423   4.935  17.803  0.00  0.00    +0.000 C 
ATOM      8  O   UNL     1       8.397   4.415  18.359  0.00  0.00    +0.000 OA
ENDROOT
BRANCH   4   9
ATOM      9  C   UNL     1       4.526   6.936  17.568  0.00  0.00    +0.000 C 
BRANCH   9  10
ATOM     10  O   UNL     1       3.139   6.605  17.696  0.00  0.00    +0.000 OA
BRANCH  10  11
ATOM     11  C   UNL     1       2.638   6.658  19.028  0.00  0.00    +0.000 C 
BRANCH  11  12
ATOM     12  C   UNL     1       1.908   7.963  19.228  0.00  0.00    +0.000 A 
ATOM     13  C   UNL     1       1.425   8.311  20.499  0.00  0.00    +0.000 A 
ATOM     14  C   UNL     1       0.771   9.527  20.703  0.00  0.00    +0.000 A 
ATOM     15  C   UNL     1       0.594  10.411  19.640  0.00  0.00    +0.000 A 
ATOM     16  C   UNL     1       1.070  10.078  18.373  0.00  0.00    +0.000 A 
ATOM     17  C   UNL     1       1.724   8.861  18.168  0.00  0.00    +0.000 A 
ENDBRANCH  11  12
ENDBRANCH  10  11
ENDBRANCH   9  10
ENDBRANCH   4   9
BRANCH   5  18
ATOM     18  O   UNL     1       5.916   4.113  15.364  0.00  0.00    +0.000 OA
BRANCH  18  19
ATOM     19  C   UNL     1       5.455   4.676  14.135  0.00  0.00    +0.000 C 
BRANCH  19  20
ATOM     20  C   UNL     1       5.573   3.700  12.996  0.00  0.00    +0.000 A 
ATOM     21  C   UNL     1       4.460   3.321  12.233  0.00  0.00    +0.000 A 
ATOM     22  C   UNL     1       4.612   2.486  11.125  0.00  0.00    +0.000 A 
ATOM     23  C   UNL     1       5.878   2.031  10.762  0.00  0.00    +0.000 A 
ATOM     24  C   UNL     1       6.996   2.414  11.502  0.00  0.00    +0.000 A 
ATOM     25  C   UNL     1       6.845   3.248  12.609  0.00  0.00    +0.000 A 
ENDBRANCH  19  20
ENDBRANCH  18  19
ENDBRANCH   5  18
BRANCH   6  26
ATOM     26  O   UNL     1       5.289   4.470  19.009  0.00  0.00    +0.000 OA
BRANCH  26  27
ATOM     27  C   UNL     1       4.756   3.252  19.550  0.00  0.00    +0.000 C 
BRANCH  27  28
ATOM     28  C   UNL     1       3.246   3.235  19.626  0.00  0.00    +0.000 A 
ATOM     29  C   UNL     1       2.553   3.454  20.818  0.00  0.00    +0.000 A 
ATOM     30  C   UNL     1       1.158   3.372  20.847  0.00  0.00    +0.000 A 
ATOM     31  C   UNL     1       0.443   3.067  19.693  0.00  0.00    +0.000 A 
ATOM     32  C   UNL     1       1.121   2.860  18.497  0.00  0.00    +0.000 A 
ATOM     33  C   UNL     1       2.514   2.945  18.460  0.00  0.00    +0.000 A 
ENDBRANCH  27  28
ENDBRANCH  26  27
ENDBRANCH   6  26
TORSDOF 10
ENDMDL
MODEL 9
REMARK VINA RESULT:      -8.3      2.205      6.320
REMARK  Name = 
REMARK  11 active torsions:
REMARK  status: ('A' for Active; 'I' for Inactive)
REMARK    1  A    between atoms: C_1  and  C_2
REMARK    2  A    between atoms: C_4  and  C_5
REMARK    3  A    between atoms: C_5  and  O_6
REMARK    4  A    between atoms: O_6  and  C_7
REMARK    5  A    between atoms: C_7  and  C_8
REMARK    6  A    between atoms: C_14  and  O_15
REMARK    7  A    between atoms: O_15  and  C_16
REMARK    8  A    between atoms: C_16  and  C_17
REMARK    9  A    between atoms: C_23  and  O_24
REMARK   10  A    between atoms: O_24  and  C_25
REMARK   11  A    between atoms: C_25  and  C_26
REMARK                            x       y       z     vdW  Elec       q    Type
REMARK                         _______ _______ _______ _____ _____    ______ ____
ROOT
ATOM      1  C   UNL     1       6.018   3.289  16.109  0.00  0.00    +0.000 C 
ATOM      2  C   UNL     1       6.806   4.541  16.478  0.00  0.00    +0.000 C 
ATOM      3  O   UNL     1       7.245   4.465  17.823  0.00  0.00    +0.000 OA
ATOM      4  C   UNL     1       6.460   5.186  18.781  0.00  0.00    +0.000 C 
ATOM      5  C   UNL     1       6.288   6.656  18.323  0.00  0.00    +0.000 C 
ATOM      6  C   UNL     1       5.445   6.728  17.042  0.00  0.00    +0.000 C 
ATOM      7  C   UNL     1       6.073   5.803  15.994  0.00  0.00    +0.000 C 
ATOM      8  O   UNL     1       5.960   6.050  14.787  0.00  0.00    +0.000 OA
ENDROOT
BRANCH   4   9
ATOM      9  C   UNL     1       5.149   4.432  19.111  0.00  0.00    +0.000 C 
BRANCH   9  10
ATOM     10  O   UNL     1       5.364   3.189  19.788  0.00  0.00    +0.000 OA
BRANCH  10  11
ATOM     11  C   UNL     1       4.510   2.130  19.369  0.00  0.00    +0.000 C 
BRANCH  11  12
ATOM     12  C   UNL     1       3.075   2.533  19.600  0.00  0.00    +0.000 A 
ATOM     13  C   UNL     1       2.609   2.762  20.904  0.00  0.00    +0.000 A 
ATOM     14  C   UNL     1       1.291   3.161  21.130  0.00  0.00    +0.000 A 
ATOM     15  C   UNL     1       0.423   3.338  20.054  0.00  0.00    +0.000 A 
ATOM     16  C   UNL     1       0.872   3.116  18.754  0.00  0.00    +0.000 A 
ATOM     17  C   UNL     1       2.192   2.716  18.528  0.00  0.00    +0.000 A 
ENDBRANCH  11  12
ENDBRANCH  10  11
ENDBRANCH   9  10
ENDBRANCH   4   9
BRANCH   5  18
ATOM     18  O   UNL     1       7.604   7.218  18.127  0.00  0.00    +0.000 OA
BRANCH  18  19
ATOM     19  C   UNL     1       7.643   8.404  17.335  0.00  0.00    +0.000 C 
BRANCH  19  20
ATOM     20  C   UNL     1       8.292   9.545  18.072  0.00  0.00    +0.000 A 
ATOM     21  C   UNL     1       9.008   9.342  19.259  0.00  0.00    +0.000 A 
ATOM     22  C   UNL     1       9.677  10.401  19.873  0.00  0.00    +0.000 A 
ATOM     23  C   UNL     1       9.648  11.671  19.301  0.00  0.00    +0.000 A 
ATOM     24  C   UNL     1       8.954  11.884  18.111  0.00  0.00    +0.000 A 
ATOM     25  C   UNL     1       8.284  10.826  17.497  0.00  0.00    +0.000 A 
ENDBRANCH  19  20
ENDBRANCH  18  19
ENDBRANCH   5  18
BRANCH   6  26
ATOM     26  O   UNL     1       4.057   6.491  17.292  0.00  0.00    +0.000 OA
BRANCH  26  27
ATOM     27  C   UNL     1       3.314   7.712  17.429  0.00  0.00    +0.000 C 
BRANCH  27  28
ATOM     28  C   UNL     1       2.520   7.793  18.713  0.00  0.00    +0.000 A 
ATOM     29  C   UNL     1       2.427   6.724  19.607  0.00  0.00    +0.000 A 
ATOM     30  C   UNL     1       1.635   6.830  20.753  0.00  0.00    +0.000 A 
ATOM     31  C   UNL     1       0.924   7.997  21.016  0.00  0.00    +0.000 A 
ATOM     32  C   UNL     1       1.019   9.074  20.141  0.00  0.00    +0.000 A 
ATOM     33  C   UNL     1       1.813   8.975  18.997  0.00  0.00    +0.000 A 
ENDBRANCH  27  28
ENDBRANCH  26  27
ENDBRANCH   6  26
TORSDOF 10
ENDMDL
