MODEL 1
REMARK VINA RESULT:      -7.6      0.000      0.000
REMARK  Name = 
REMARK  11 active torsions:
REMARK  status: ('A' for Active; 'I' for Inactive)
REMARK    1  A    between atoms: C_1  and  C_2
REMARK    2  A    between atoms: N_4  and  C_5
REMARK    3  A    between atoms: C_5  and  C_6
REMARK    4  A    between atoms: N_8  and  C_9
REMARK    5  A    between atoms: C_12  and  O_13
REMARK    6  A    between atoms: O_13  and  C_14
REMARK    7  A    between atoms: C_14  and  C_15
REMARK    8  A    between atoms: C_15  and  O_16
REMARK    9  A    between atoms: C_15  and  C_17
REMARK   10  A    between atoms: C_17  and  N_18
REMARK   11  A    between atoms: N_18  and  C_19
REMARK                            x       y       z     vdW  Elec       q    Type
REMARK                         _______ _______ _______ _____ _____    ______ ____
ROOT
ATOM      1  C   UNL     1       2.494   7.339  18.780  0.00  0.00    +0.000 A 
ATOM      2  C   UNL     1       2.276   8.297  17.782  0.00  0.00    +0.000 A 
ATOM      3  C   UNL     1       1.523   9.445  18.038  0.00  0.00    +0.000 A 
ATOM      4  C   UNL     1       0.993   9.679  19.308  0.00  0.00    +0.000 A 
ATOM      5  C   UNL     1       1.218   8.728  20.305  0.00  0.00    +0.000 A 
ATOM      6  F   UNL     1       0.760   8.894  21.555  0.00  0.00    +0.000 F 
ATOM      7  C   UNL     1       1.947   7.568  20.045  0.00  0.00    +0.000 A 
ENDROOT
BRANCH   1  10
ATOM      8  C   UNL     1       4.881   4.572  18.598  0.00  0.00    +0.000 C 
ATOM      9  C   UNL     1       4.642   6.064  18.651  0.00  0.00    +0.000 C 
ATOM     10  N   UNL     1       3.222   6.161  18.518  0.00  0.00    +0.000 N 
ATOM     11  C   UNL     1       2.719   4.964  18.022  0.00  0.00    +0.000 C 
ATOM     12  O   UNL     1       1.582   4.708  17.665  0.00  0.00    +0.000 OA
ATOM     13  O   UNL     1       3.731   4.051  17.912  0.00  0.00    +0.000 OA
BRANCH   8  14
ATOM     14  C   UNL     1       6.143   4.209  17.825  0.00  0.00    +0.000 C 
BRANCH  14  18
ATOM     15  C   UNL     1       6.156   3.880  14.058  0.00  0.00    +0.000 C 
ATOM     16  C   UNL     1       6.612   4.331  15.414  0.00  0.00    +0.000 C 
ATOM     17  O   UNL     1       7.571   5.079  15.580  0.00  0.00    +0.000 OA
ATOM     18  N   UNL     1       5.843   3.858  16.448  0.00  0.00    +0.000 N 
ATOM     19  H   UNL     1       5.278   3.030  16.291  0.00  0.00    +0.000 HD
ENDBRANCH  14  18
ENDBRANCH   8  14
ENDBRANCH   1  10
BRANCH   4  20
ATOM     20  O   UNL     1       0.303  10.852  19.422  0.00  0.00    +0.000 OA
BRANCH  20  21
ATOM     21  C   UNL     1      -0.746  11.068  18.472  0.00  0.00    +0.000 C 
BRANCH  21  22
ATOM     22  C   UNL     1      -1.897  11.808  19.163  0.00  0.00    +0.000 C 
BRANCH  22  23
ATOM     23  O   UNL     1      -1.608  13.211  19.224  0.00  0.00    +0.000 OA
ATOM     24  H   UNL     1      -1.025  13.338  19.997  0.00  0.00    +0.000 HD
ENDBRANCH  22  23
BRANCH  22  25
ATOM     25  C   UNL     1      -3.241  11.596  18.443  0.00  0.00    +0.000 C 
BRANCH  25  26
ATOM     26  N   UNL     1      -3.113  11.811  17.001  0.00  0.00    +0.000 NA
ATOM     27  H   UNL     1      -2.133  11.948  16.759  0.00  0.00    +0.000 HD
BRANCH  26  28
ATOM     28  C   UNL     1      -3.709  10.733  16.212  0.00  0.00    +0.000 C 
ATOM     29  C   UNL     1      -3.228  10.537  14.802  0.00  0.00    +0.000 C 
ATOM     30  C   UNL     1      -2.879   9.533  15.863  0.00  0.00    +0.000 C 
ENDBRANCH  26  28
ENDBRANCH  25  26
ENDBRANCH  22  25
ENDBRANCH  21  22
ENDBRANCH  20  21
ENDBRANCH   4  20
TORSDOF 10
ENDMDL
MODEL 2
REMARK VINA RESULT:      -7.5      1.339      1.767
REMARK  Name = 
REMARK  11 active torsions:
REMARK  status: ('A' for Active; 'I' for Inactive)
REMARK    1  A    between atoms: C_1  and  C_2
REMARK    2  A    between atoms: N_4  and  C_5
REMARK    3  A    between atoms: C_5  and  C_6
REMARK    4  A    between atoms: N_8  and  C_9
REMARK    5  A    between atoms: C_12  and  O_13
REMARK    6  A    between atoms: O_13  and  C_14
REMARK    7  A    between atoms: C_14  and  C_15
REMARK    8  A    between atoms: C_15  and  O_16
REMARK    9  A    between atoms: C_15  and  C_17
REMARK   10  A    between atoms: C_17  and  N_18
REMARK   11  A    between atoms: N_18  and  C_19
REMARK                            x       y       z     vdW  Elec       q    Type
REMARK                         _______ _______ _______ _____ _____    ______ ____
ROOT
ATOM      1  C   UNL     1       2.684   7.030  18.784  0.00  0.00    +0.000 A 
ATOM      2  C   UNL     1       2.172   7.141  20.083  0.00  0.00    +0.000 A 
ATOM      3  C   UNL     1       1.412   8.249  20.465  0.00  0.00    +0.000 A 
ATOM      4  C   UNL     1       1.120   9.261  19.550  0.00  0.00    +0.000 A 
ATOM      5  C   UNL     1       1.623   9.146  18.253  0.00  0.00    +0.000 A 
ATOM      6  F   UNL     1       1.367  10.067  17.311  0.00  0.00    +0.000 F 
ATOM      7  C   UNL     1       2.405   8.054  17.875  0.00  0.00    +0.000 A 
ENDROOT
BRANCH   1  10
ATOM      8  C   UNL     1       5.256   4.477  18.282  0.00  0.00    +0.000 C 
ATOM      9  C   UNL     1       4.910   5.939  18.449  0.00  0.00    +0.000 C 
ATOM     10  N   UNL     1       3.481   5.932  18.402  0.00  0.00    +0.000 N 
ATOM     11  C   UNL     1       3.039   4.734  17.855  0.00  0.00    +0.000 C 
ATOM     12  O   UNL     1       1.905   4.412  17.545  0.00  0.00    +0.000 OA
ATOM     13  O   UNL     1       4.109   3.912  17.627  0.00  0.00    +0.000 OA
BRANCH   8  14
ATOM     14  C   UNL     1       6.492   4.264  17.417  0.00  0.00    +0.000 C 
BRANCH  14  18
ATOM     15  C   UNL     1       6.205   3.900  13.664  0.00  0.00    +0.000 C 
ATOM     16  C   UNL     1       6.690   4.450  14.973  0.00  0.00    +0.000 C 
ATOM     17  O   UNL     1       7.488   5.380  15.051  0.00  0.00    +0.000 OA
ATOM     18  N   UNL     1       6.137   3.843  16.073  0.00  0.00    +0.000 N 
ATOM     19  H   UNL     1       5.741   2.915  15.965  0.00  0.00    +0.000 HD
ENDBRANCH  14  18
ENDBRANCH   8  14
ENDBRANCH   1  10
BRANCH   4  20
ATOM     20  O   UNL     1       0.346  10.268  20.052  0.00  0.00    +0.000 OA
BRANCH  20  21
ATOM     21  C   UNL     1       0.956  11.561  20.128  0.00  0.00    +0.000 C 
BRANCH  21  22
ATOM     22  C   UNL     1       0.121  12.552  19.307  0.00  0.00    +0.000 C 
BRANCH  22  23
ATOM     23  O   UNL     1       0.817  12.896  18.102  0.00  0.00    +0.000 OA
ATOM     24  H   UNL     1       0.132  13.134  17.448  0.00  0.00    +0.000 HD
ENDBRANCH  22  23
BRANCH  22  25
ATOM     25  C   UNL     1      -1.266  11.988  18.950  0.00  0.00    +0.000 C 
BRANCH  25  26
ATOM     26  N   UNL     1      -1.605  12.251  17.551  0.00  0.00    +0.000 NA
ATOM     27  H   UNL     1      -0.751  12.344  17.001  0.00  0.00    +0.000 HD
BRANCH  26  28
ATOM     28  C   UNL     1      -2.494  11.240  16.982  0.00  0.00    +0.000 C 
ATOM     29  C   UNL     1      -1.950   9.857  16.764  0.00  0.00    +0.000 C 
ATOM     30  C   UNL     1      -2.964  10.105  17.844  0.00  0.00    +0.000 C 
ENDBRANCH  26  28
ENDBRANCH  25  26
ENDBRANCH  22  25
ENDBRANCH  21  22
ENDBRANCH  20  21
ENDBRANCH   4  20
TORSDOF 10
ENDMDL
MODEL 3
REMARK VINA RESULT:      -7.4      1.694      2.753
REMARK  Name = 
REMARK  11 active torsions:
REMARK  status: ('A' for Active; 'I' for Inactive)
REMARK    1  A    between atoms: C_1  and  C_2
REMARK    2  A    between atoms: N_4  and  C_5
REMARK    3  A    between atoms: C_5  and  C_6
REMARK    4  A    between atoms: N_8  and  C_9
REMARK    5  A    between atoms: C_12  and  O_13
REMARK    6  A    between atoms: O_13  and  C_14
REMARK    7  A    between atoms: C_14  and  C_15
REMARK    8  A    between atoms: C_15  and  O_16
REMARK    9  A    between atoms: C_15  and  C_17
REMARK   10  A    between atoms: C_17  and  N_18
REMARK   11  A    between atoms: N_18  and  C_19
REMARK                            x       y       z     vdW  Elec       q    Type
REMARK                         _______ _______ _______ _____ _____    ______ ____
ROOT
ATOM      1  C   UNL     1       2.822   7.098  18.594  0.00  0.00    +0.000 A 
ATOM      2  C   UNL     1       2.557   8.120  17.674  0.00  0.00    +0.000 A 
ATOM      3  C   UNL     1       1.725   9.191  18.008  0.00  0.00    +0.000 A 
ATOM      4  C   UNL     1       1.161   9.283  19.281  0.00  0.00    +0.000 A 
ATOM      5  C   UNL     1       1.432   8.269  20.201  0.00  0.00    +0.000 A 
ATOM      6  F   UNL     1       0.944   8.299  21.450  0.00  0.00    +0.000 F 
ATOM      7  C   UNL     1       2.241   7.184  19.862  0.00  0.00    +0.000 A 
ENDROOT
BRANCH   1  10
ATOM      8  C   UNL     1       5.438   4.579  18.149  0.00  0.00    +0.000 C 
ATOM      9  C   UNL     1       5.060   6.040  18.232  0.00  0.00    +0.000 C 
ATOM     10  N   UNL     1       3.632   5.996  18.252  0.00  0.00    +0.000 N 
ATOM     11  C   UNL     1       3.199   4.751  17.809  0.00  0.00    +0.000 C 
ATOM     12  O   UNL     1       2.061   4.381  17.576  0.00  0.00    +0.000 OA
ATOM     13  O   UNL     1       4.279   3.942  17.589  0.00  0.00    +0.000 OA
BRANCH   8  14
ATOM     14  C   UNL     1       6.640   4.337  17.244  0.00  0.00    +0.000 C 
BRANCH  14  18
ATOM     15  C   UNL     1       6.179   3.829  13.525  0.00  0.00    +0.000 C 
ATOM     16  C   UNL     1       6.707   4.442  14.789  0.00  0.00    +0.000 C 
ATOM     17  O   UNL     1       7.473   5.403  14.793  0.00  0.00    +0.000 OA
ATOM     18  N   UNL     1       6.235   3.856  15.936  0.00  0.00    +0.000 N 
ATOM     19  H   UNL     1       5.868   2.911  15.879  0.00  0.00    +0.000 HD
ENDBRANCH  14  18
ENDBRANCH   8  14
ENDBRANCH   1  10
BRANCH   4  20
ATOM     20  O   UNL     1       0.392  10.396  19.476  0.00  0.00    +0.000 OA
BRANCH  20  21
ATOM     21  C   UNL     1      -0.691  10.589  18.561  0.00  0.00    +0.000 C 
BRANCH  21  22
ATOM     22  C   UNL     1      -1.140  12.054  18.625  0.00  0.00    +0.000 C 
BRANCH  22  23
ATOM     23  O   UNL     1      -1.370  12.552  17.300  0.00  0.00    +0.000 OA
ATOM     24  H   UNL     1      -0.676  12.159  16.736  0.00  0.00    +0.000 HD
ENDBRANCH  22  23
BRANCH  22  25
ATOM     25  C   UNL     1      -2.416  12.236  19.466  0.00  0.00    +0.000 C 
BRANCH  25  26
ATOM     26  N   UNL     1      -2.140  12.965  20.704  0.00  0.00    +0.000 NA
ATOM     27  H   UNL     1      -2.799  13.737  20.804  0.00  0.00    +0.000 HD
BRANCH  26  28
ATOM     28  C   UNL     1      -2.150  12.104  21.886  0.00  0.00    +0.000 C 
ATOM     29  C   UNL     1      -1.206  12.427  23.008  0.00  0.00    +0.000 C 
ATOM     30  C   UNL     1      -2.682  12.641  23.182  0.00  0.00    +0.000 C 
ENDBRANCH  26  28
ENDBRANCH  25  26
ENDBRANCH  22  25
ENDBRANCH  21  22
ENDBRANCH  20  21
ENDBRANCH   4  20
TORSDOF 10
ENDMDL
MODEL 4
REMARK VINA RESULT:      -7.3      1.252      1.564
REMARK  Name = 
REMARK  11 active torsions:
REMARK  status: ('A' for Active; 'I' for Inactive)
REMARK    1  A    between atoms: C_1  and  C_2
REMARK    2  A    between atoms: N_4  and  C_5
REMARK    3  A    between atoms: C_5  and  C_6
REMARK    4  A    between atoms: N_8  and  C_9
REMARK    5  A    between atoms: C_12  and  O_13
REMARK    6  A    between atoms: O_13  and  C_14
REMARK    7  A    between atoms: C_14  and  C_15
REMARK    8  A    between atoms: C_15  and  O_16
REMARK    9  A    between atoms: C_15  and  C_17
REMARK   10  A    between atoms: C_17  and  N_18
REMARK   11  A    between atoms: N_18  and  C_19
REMARK                            x       y       z     vdW  Elec       q    Type
REMARK                         _______ _______ _______ _____ _____    ______ ____
ROOT
ATOM      1  C   UNL     1       2.899   7.117  18.606  0.00  0.00    +0.000 A 
ATOM      2  C   UNL     1       2.634   8.067  17.612  0.00  0.00    +0.000 A 
ATOM      3  C   UNL     1       1.743   9.119  17.840  0.00  0.00    +0.000 A 
ATOM      4  C   UNL     1       1.117   9.264  19.078  0.00  0.00    +0.000 A 
ATOM      5  C   UNL     1       1.389   8.322  20.072  0.00  0.00    +0.000 A 
ATOM      6  F   UNL     1       0.843   8.407  21.295  0.00  0.00    +0.000 F 
ATOM      7  C   UNL     1       2.257   7.256  19.839  0.00  0.00    +0.000 A 
ENDROOT
BRANCH   1  10
ATOM      8  C   UNL     1       5.669   4.741  18.351  0.00  0.00    +0.000 C 
ATOM      9  C   UNL     1       5.187   6.170  18.253  0.00  0.00    +0.000 C 
ATOM     10  N   UNL     1       3.770   6.034  18.370  0.00  0.00    +0.000 N 
ATOM     11  C   UNL     1       3.408   4.713  18.133  0.00  0.00    +0.000 C 
ATOM     12  O   UNL     1       2.291   4.238  18.026  0.00  0.00    +0.000 OA
ATOM     13  O   UNL     1       4.533   3.954  17.960  0.00  0.00    +0.000 OA
BRANCH   8  14
ATOM     14  C   UNL     1       6.836   4.452  17.415  0.00  0.00    +0.000 C 
BRANCH  14  18
ATOM     15  C   UNL     1       6.198   3.858  13.735  0.00  0.00    +0.000 C 
ATOM     16  C   UNL     1       6.770   4.513  14.958  0.00  0.00    +0.000 C 
ATOM     17  O   UNL     1       7.500   5.499  14.905  0.00  0.00    +0.000 OA
ATOM     18  N   UNL     1       6.379   3.932  16.138  0.00  0.00    +0.000 N 
ATOM     19  H   UNL     1       6.044   2.975  16.117  0.00  0.00    +0.000 HD
ENDBRANCH  14  18
ENDBRANCH   8  14
ENDBRANCH   1  10
BRANCH   4  20
ATOM     20  O   UNL     1       0.294  10.351  19.169  0.00  0.00    +0.000 OA
BRANCH  20  21
ATOM     21  C   UNL     1      -0.635  10.536  18.095  0.00  0.00    +0.000 C 
BRANCH  21  22
ATOM     22  C   UNL     1      -1.755  11.472  18.565  0.00  0.00    +0.000 C 
BRANCH  22  23
ATOM     23  O   UNL     1      -1.530  12.794  18.056  0.00  0.00    +0.000 OA
ATOM     24  H   UNL     1      -0.820  13.180  18.604  0.00  0.00    +0.000 HD
ENDBRANCH  22  23
BRANCH  22  25
ATOM     25  C   UNL     1      -3.146  10.986  18.119  0.00  0.00    +0.000 C 
BRANCH  25  26
ATOM     26  N   UNL     1      -4.138  12.059  18.201  0.00  0.00    +0.000 NA
ATOM     27  H   UNL     1      -3.693  12.955  18.008  0.00  0.00    +0.000 HD
BRANCH  26  28
ATOM     28  C   UNL     1      -5.287  11.838  17.325  0.00  0.00    +0.000 C 
ATOM     29  C   UNL     1      -6.651  11.753  17.950  0.00  0.00    +0.000 C 
ATOM     30  C   UNL     1      -6.278  12.947  17.119  0.00  0.00    +0.000 C 
ENDBRANCH  26  28
ENDBRANCH  25  26
ENDBRANCH  22  25
ENDBRANCH  21  22
ENDBRANCH  20  21
ENDBRANCH   4  20
TORSDOF 10
ENDMDL
MODEL 5
REMARK VINA RESULT:      -7.2      1.013      1.162
REMARK  Name = 
REMARK  11 active torsions:
REMARK  status: ('A' for Active; 'I' for Inactive)
REMARK    1  A    between atoms: C_1  and  C_2
REMARK    2  A    between atoms: N_4  and  C_5
REMARK    3  A    between atoms: C_5  and  C_6
REMARK    4  A    between atoms: N_8  and  C_9
REMARK    5  A    between atoms: C_12  and  O_13
REMARK    6  A    between atoms: O_13  and  C_14
REMARK    7  A    between atoms: C_14  and  C_15
REMARK    8  A    between atoms: C_15  and  O_16
REMARK    9  A    between atoms: C_15  and  C_17
REMARK   10  A    between atoms: C_17  and  N_18
REMARK   11  A    between atoms: N_18  and  C_19
REMARK                            x       y       z     vdW  Elec       q    Type
REMARK                         _______ _______ _______ _____ _____    ______ ____
ROOT
ATOM      1  C   UNL     1       2.798   7.074  18.674  0.00  0.00    +0.000 A 
ATOM      2  C   UNL     1       2.562   8.129  17.783  0.00  0.00    +0.000 A 
ATOM      3  C   UNL     1       1.774   9.221  18.153  0.00  0.00    +0.000 A 
ATOM      4  C   UNL     1       1.225   9.301  19.433  0.00  0.00    +0.000 A 
ATOM      5  C   UNL     1       1.468   8.254  20.324  0.00  0.00    +0.000 A 
ATOM      6  F   UNL     1       0.993   8.269  21.579  0.00  0.00    +0.000 F 
ATOM      7  C   UNL     1       2.232   7.149  19.949  0.00  0.00    +0.000 A 
ENDROOT
BRANCH   1  10
ATOM      8  C   UNL     1       5.298   4.451  18.171  0.00  0.00    +0.000 C 
ATOM      9  C   UNL     1       4.991   5.923  18.327  0.00  0.00    +0.000 C 
ATOM     10  N   UNL     1       3.563   5.952  18.295  0.00  0.00    +0.000 N 
ATOM     11  C   UNL     1       3.084   4.760  17.765  0.00  0.00    +0.000 C 
ATOM     12  O   UNL     1       1.939   4.464  17.471  0.00  0.00    +0.000 OA
ATOM     13  O   UNL     1       4.130   3.909  17.534  0.00  0.00    +0.000 OA
BRANCH   8  14
ATOM     14  C   UNL     1       6.519   4.198  17.295  0.00  0.00    +0.000 C 
BRANCH  14  18
ATOM     15  C   UNL     1       6.171   3.851  13.545  0.00  0.00    +0.000 C 
ATOM     16  C   UNL     1       6.682   4.390  14.849  0.00  0.00    +0.000 C 
ATOM     17  O   UNL     1       7.493   5.310  14.918  0.00  0.00    +0.000 OA
ATOM     18  N   UNL     1       6.139   3.786  15.955  0.00  0.00    +0.000 N 
ATOM     19  H   UNL     1       5.728   2.865  15.850  0.00  0.00    +0.000 HD
ENDBRANCH  14  18
ENDBRANCH   8  14
ENDBRANCH   1  10
BRANCH   4  20
ATOM     20  O   UNL     1       0.500  10.435  19.665  0.00  0.00    +0.000 OA
BRANCH  20  21
ATOM     21  C   UNL     1       0.948  11.622  19.002  0.00  0.00    +0.000 C 
BRANCH  21  22
ATOM     22  C   UNL     1      -0.197  12.643  18.984  0.00  0.00    +0.000 C 
BRANCH  22  23
ATOM     23  O   UNL     1       0.284  13.906  18.507  0.00  0.00    +0.000 OA
ATOM     24  H   UNL     1       0.243  14.519  19.265  0.00  0.00    +0.000 HD
ENDBRANCH  22  23
BRANCH  22  25
ATOM     25  C   UNL     1      -1.374  12.182  18.107  0.00  0.00    +0.000 C 
BRANCH  25  26
ATOM     26  N   UNL     1      -2.186  11.173  18.791  0.00  0.00    +0.000 NA
ATOM     27  H   UNL     1      -3.030  11.605  19.164  0.00  0.00    +0.000 HD
BRANCH  26  28
ATOM     28  C   UNL     1      -2.507  10.030  17.938  0.00  0.00    +0.000 C 
ATOM     29  C   UNL     1      -3.652  10.162  16.974  0.00  0.00    +0.000 C 
ATOM     30  C   UNL     1      -2.240  10.114  16.464  0.00  0.00    +0.000 C 
ENDBRANCH  26  28
ENDBRANCH  25  26
ENDBRANCH  22  25
ENDBRANCH  21  22
ENDBRANCH  20  21
ENDBRANCH   4  20
TORSDOF 10
ENDMDL
MODEL 6
REMARK VINA RESULT:      -7.2      2.342      3.246
REMARK  Name = 
REMARK  11 active torsions:
REMARK  status: ('A' for Active; 'I' for Inactive)
REMARK    1  A    between atoms: C_1  and  C_2
REMARK    2  A    between atoms: N_4  and  C_5
REMARK    3  A    between atoms: C_5  and  C_6
REMARK    4  A    between atoms: N_8  and  C_9
REMARK    5  A    between atoms: C_12  and  O_13
REMARK    6  A    between atoms: O_13  and  C_14
REMARK    7  A    between atoms: C_14  and  C_15
REMARK    8  A    between atoms: C_15  and  O_16
REMARK    9  A    between atoms: C_15  and  C_17
REMARK   10  A    between atoms: C_17  and  N_18
REMARK   11  A    between atoms: N_18  and  C_19
REMARK                            x       y       z     vdW  Elec       q    Type
REMARK                         _______ _______ _______ _____ _____    ______ ____
ROOT
ATOM      1  C   UNL     1       3.622   6.164  17.974  0.00  0.00    +0.000 A 
ATOM      2  C   UNL     1       3.300   7.468  17.576  0.00  0.00    +0.000 A 
ATOM      3  C   UNL     1       2.441   8.263  18.340  0.00  0.00    +0.000 A 
ATOM      4  C   UNL     1       1.905   7.784  19.535  0.00  0.00    +0.000 A 
ATOM      5  C   UNL     1       2.233   6.488  19.936  0.00  0.00    +0.000 A 
ATOM      6  F   UNL     1       1.775   5.966  21.084  0.00  0.00    +0.000 F 
ATOM      7  C   UNL     1       3.069   5.682  19.163  0.00  0.00    +0.000 A 
ENDROOT
BRANCH   1  10
ATOM      8  C   UNL     1       6.308   4.588  16.054  0.00  0.00    +0.000 C 
ATOM      9  C   UNL     1       5.545   5.845  16.407  0.00  0.00    +0.000 C 
ATOM     10  N   UNL     1       4.460   5.345  17.190  0.00  0.00    +0.000 N 
ATOM     11  C   UNL     1       4.328   3.977  16.983  0.00  0.00    +0.000 C 
ATOM     12  O   UNL     1       3.450   3.230  17.379  0.00  0.00    +0.000 OA
ATOM     13  O   UNL     1       5.337   3.536  16.172  0.00  0.00    +0.000 OA
BRANCH   8  14
ATOM     14  C   UNL     1       6.857   4.617  14.632  0.00  0.00    +0.000 C 
BRANCH  14  18
ATOM     15  C   UNL     1       5.694   2.510  11.716  0.00  0.00    +0.000 C 
ATOM     16  C   UNL     1       6.470   3.569  12.443  0.00  0.00    +0.000 C 
ATOM     17  O   UNL     1       7.257   4.324  11.878  0.00  0.00    +0.000 OA
ATOM     18  N   UNL     1       6.198   3.639  13.786  0.00  0.00    +0.000 N 
ATOM     19  H   UNL     1       5.793   2.827  14.240  0.00  0.00    +0.000 HD
ENDBRANCH  14  18
ENDBRANCH   8  14
ENDBRANCH   1  10
BRANCH   4  20
ATOM     20  O   UNL     1       1.105   8.677  20.190  0.00  0.00    +0.000 OA
BRANCH  20  21
ATOM     21  C   UNL     1       1.342   8.832  21.594  0.00  0.00    +0.000 C 
BRANCH  21  22
ATOM     22  C   UNL     1       0.198   9.652  22.202  0.00  0.00    +0.000 C 
BRANCH  22  23
ATOM     23  O   UNL     1       0.377   9.762  23.620  0.00  0.00    +0.000 OA
ATOM     24  H   UNL     1       0.736   8.904  23.918  0.00  0.00    +0.000 HD
ENDBRANCH  22  23
BRANCH  22  25
ATOM     25  C   UNL     1       0.103  11.062  21.590  0.00  0.00    +0.000 C 
BRANCH  25  26
ATOM     26  N   UNL     1      -1.022  11.165  20.659  0.00  0.00    +0.000 NA
ATOM     27  H   UNL     1      -1.671  11.882  20.981  0.00  0.00    +0.000 HD
BRANCH  26  28
ATOM     28  C   UNL     1      -0.599  11.411  19.282  0.00  0.00    +0.000 C 
ATOM     29  C   UNL     1      -1.108  10.492  18.208  0.00  0.00    +0.000 C 
ATOM     30  C   UNL     1      -1.603  11.908  18.282  0.00  0.00    +0.000 C 
ENDBRANCH  26  28
ENDBRANCH  25  26
ENDBRANCH  22  25
ENDBRANCH  21  22
ENDBRANCH  20  21
ENDBRANCH   4  20
TORSDOF 10
ENDMDL
MODEL 7
REMARK VINA RESULT:      -7.2      2.150      8.473
REMARK  Name = 
REMARK  11 active torsions:
REMARK  status: ('A' for Active; 'I' for Inactive)
REMARK    1  A    between atoms: C_1  and  C_2
REMARK    2  A    between atoms: N_4  and  C_5
REMARK    3  A    between atoms: C_5  and  C_6
REMARK    4  A    between atoms: N_8  and  C_9
REMARK    5  A    between atoms: C_12  and  O_13
REMARK    6  A    between atoms: O_13  and  C_14
REMARK    7  A    between atoms: C_14  and  C_15
REMARK    8  A    between atoms: C_15  and  O_16
REMARK    9  A    between atoms: C_15  and  C_17
REMARK   10  A    between atoms: C_17  and  N_18
REMARK   11  A    between atoms: N_18  and  C_19
REMARK                            x       y       z     vdW  Elec       q    Type
REMARK                         _______ _______ _______ _____ _____    ______ ____
ROOT
ATOM      1  C   UNL     1       1.528   8.536  19.243  0.00  0.00    +0.000 A 
ATOM      2  C   UNL     1       2.360   8.392  18.126  0.00  0.00    +0.000 A 
ATOM      3  C   UNL     1       3.236   7.309  18.016  0.00  0.00    +0.000 A 
ATOM      4  C   UNL     1       3.280   6.327  19.006  0.00  0.00    +0.000 A 
ATOM      5  C   UNL     1       2.443   6.466  20.115  0.00  0.00    +0.000 A 
ATOM      6  F   UNL     1       2.412   5.552  21.096  0.00  0.00    +0.000 F 
ATOM      7  C   UNL     1       1.587   7.560  20.240  0.00  0.00    +0.000 A 
ENDROOT
BRANCH   1  10
ATOM      8  C   UNL     1      -1.166  11.010  19.141  0.00  0.00    +0.000 C 
ATOM      9  C   UNL     1      -0.308  10.011  18.399  0.00  0.00    +0.000 C 
ATOM     10  N   UNL     1       0.668   9.645  19.377  0.00  0.00    +0.000 N 
ATOM     11  C   UNL     1       0.677  10.586  20.400  0.00  0.00    +0.000 C 
ATOM     12  O   UNL     1       1.448  10.679  21.339  0.00  0.00    +0.000 OA
ATOM     13  O   UNL     1      -0.314  11.505  20.187  0.00  0.00    +0.000 OA
BRANCH   8  14
ATOM     14  C   UNL     1      -1.612  12.169  18.257  0.00  0.00    +0.000 C 
BRANCH  14  18
ATOM     15  C   UNL     1      -3.245  10.806  15.131  0.00  0.00    +0.000 C 
ATOM     16  C   UNL     1      -3.126  11.223  16.567  0.00  0.00    +0.000 C 
ATOM     17  O   UNL     1      -4.042  11.097  17.376  0.00  0.00    +0.000 OA
ATOM     18  N   UNL     1      -1.895  11.728  16.903  0.00  0.00    +0.000 N 
ATOM     19  H   UNL     1      -1.301  12.086  16.162  0.00  0.00    +0.000 HD
ENDBRANCH  14  18
ENDBRANCH   8  14
ENDBRANCH   1  10
BRANCH   4  20
ATOM     20  O   UNL     1       4.161   5.314  18.755  0.00  0.00    +0.000 OA
BRANCH  20  21
ATOM     21  C   UNL     1       4.849   5.366  17.500  0.00  0.00    +0.000 C 
BRANCH  21  22
ATOM     22  C   UNL     1       4.587   4.062  16.736  0.00  0.00    +0.000 C 
BRANCH  22  23
ATOM     23  O   UNL     1       5.829   3.507  16.281  0.00  0.00    +0.000 OA
ATOM     24  H   UNL     1       6.207   3.024  17.041  0.00  0.00    +0.000 HD
ENDBRANCH  22  23
BRANCH  22  25
ATOM     25  C   UNL     1       3.850   3.021  17.597  0.00  0.00    +0.000 C 
BRANCH  25  26
ATOM     26  N   UNL     1       2.440   2.916  17.216  0.00  0.00    +0.000 NA
ATOM     27  H   UNL     1       2.252   1.986  16.843  0.00  0.00    +0.000 HD
BRANCH  26  28
ATOM     28  C   UNL     1       1.530   3.241  18.313  0.00  0.00    +0.000 C 
ATOM     29  C   UNL     1       0.611   2.164  18.816  0.00  0.00    +0.000 C 
ATOM     30  C   UNL     1       1.759   2.630  19.664  0.00  0.00    +0.000 C 
ENDBRANCH  26  28
ENDBRANCH  25  26
ENDBRANCH  22  25
ENDBRANCH  21  22
ENDBRANCH  20  21
ENDBRANCH   4  20
TORSDOF 10
ENDMDL
MODEL 8
REMARK VINA RESULT:      -7.1      1.687      2.142
REMARK  Name = 
REMARK  11 active torsions:
REMARK  status: ('A' for Active; 'I' for Inactive)
REMARK    1  A    between atoms: C_1  and  C_2
REMARK    2  A    between atoms: N_4  and  C_5
REMARK    3  A    between atoms: C_5  and  C_6
REMARK    4  A    between atoms: N_8  and  C_9
REMARK    5  A    between atoms: C_12  and  O_13
REMARK    6  A    between atoms: O_13  and  C_14
REMARK    7  A    between atoms: C_14  and  C_15
REMARK    8  A    between atoms: C_15  and  O_16
REMARK    9  A    between atoms: C_15  and  C_17
REMARK   10  A    between atoms: C_17  and  N_18
REMARK   11  A    between atoms: N_18  and  C_19
REMARK                            x       y       z     vdW  Elec       q    Type
REMARK                         _______ _______ _______ _____ _____    ______ ____
ROOT
ATOM      1  C   UNL     1       3.543   6.405  17.897  0.00  0.00    +0.000 A 
ATOM      2  C   UNL     1       3.220   7.663  17.375  0.00  0.00    +0.000 A 
ATOM      3  C   UNL     1       2.367   8.530  18.062  0.00  0.00    +0.000 A 
ATOM      4  C   UNL     1       1.839   8.173  19.303  0.00  0.00    +0.000 A 
ATOM      5  C   UNL     1       2.169   6.922  19.828  0.00  0.00    +0.000 A 
ATOM      6  F   UNL     1       1.719   6.517  21.025  0.00  0.00    +0.000 F 
ATOM      7  C   UNL     1       2.999   6.043  19.132  0.00  0.00    +0.000 A 
ENDROOT
BRANCH   1  10
ATOM      8  C   UNL     1       6.244   4.594  16.220  0.00  0.00    +0.000 C 
ATOM      9  C   UNL     1       5.558   5.912  16.499  0.00  0.00    +0.000 C 
ATOM     10  N   UNL     1       4.375   5.510  17.193  0.00  0.00    +0.000 N 
ATOM     11  C   UNL     1       4.151   4.154  16.986  0.00  0.00    +0.000 C 
ATOM     12  O   UNL     1       3.187   3.485  17.312  0.00  0.00    +0.000 OA
ATOM     13  O   UNL     1       5.185   3.624  16.265  0.00  0.00    +0.000 OA
BRANCH   8  14
ATOM     14  C   UNL     1       6.909   4.560  14.850  0.00  0.00    +0.000 C 
BRANCH  14  18
ATOM     15  C   UNL     1       5.680   2.686  11.804  0.00  0.00    +0.000 C 
ATOM     16  C   UNL     1       6.498   3.662  12.599  0.00  0.00    +0.000 C 
ATOM     17  O   UNL     1       7.327   4.409  12.086  0.00  0.00    +0.000 OA
ATOM     18  N   UNL     1       6.214   3.666  13.942  0.00  0.00    +0.000 N 
ATOM     19  H   UNL     1       5.765   2.849  14.343  0.00  0.00    +0.000 HD
ENDBRANCH  14  18
ENDBRANCH   8  14
ENDBRANCH   1  10
BRANCH   4  20
ATOM     20  O   UNL     1       1.044   9.127  19.872  0.00  0.00    +0.000 OA
BRANCH  20  21
ATOM     21  C   UNL     1       0.430  10.059  18.976  0.00  0.00    +0.000 C 
BRANCH  21  22
ATOM     22  C   UNL     1      -0.746  10.734  19.693  0.00  0.00    +0.000 C 
BRANCH  22  23
ATOM     23  O   UNL     1      -0.294  11.919  20.362  0.00  0.00    +0.000 OA
ATOM     24  H   UNL     1      -0.188  11.678  21.303  0.00  0.00    +0.000 HD
ENDBRANCH  22  23
BRANCH  22  25
ATOM     25  C   UNL     1      -1.885  11.101  18.724  0.00  0.00    +0.000 C 
BRANCH  25  26
ATOM     26  N   UNL     1      -2.045  10.086  17.681  0.00  0.00    +0.000 NA
ATOM     27  H   UNL     1      -2.764   9.417  17.958  0.00  0.00    +0.000 HD
BRANCH  26  28
ATOM     28  C   UNL     1      -2.334  10.661  16.369  0.00  0.00    +0.000 C 
ATOM     29  C   UNL     1      -3.083   9.820  15.374  0.00  0.00    +0.000 C 
ATOM     30  C   UNL     1      -3.751  11.004  16.012  0.00  0.00    +0.000 C 
ENDBRANCH  26  28
ENDBRANCH  25  26
ENDBRANCH  22  25
ENDBRANCH  21  22
ENDBRANCH  20  21
ENDBRANCH   4  20
TORSDOF 10
ENDMDL
MODEL 9
REMARK VINA RESULT:      -7.1      1.787      2.399
REMARK  Name = 
REMARK  11 active torsions:
REMARK  status: ('A' for Active; 'I' for Inactive)
REMARK    1  A    between atoms: C_1  and  C_2
REMARK    2  A    between atoms: N_4  and  C_5
REMARK    3  A    between atoms: C_5  and  C_6
REMARK    4  A    between atoms: N_8  and  C_9
REMARK    5  A    between atoms: C_12  and  O_13
REMARK    6  A    between atoms: O_13  and  C_14
REMARK    7  A    between atoms: C_14  and  C_15
REMARK    8  A    between atoms: C_15  and  O_16
REMARK    9  A    between atoms: C_15  and  C_17
REMARK   10  A    between atoms: C_17  and  N_18
REMARK   11  A    between atoms: N_18  and  C_19
REMARK                            x       y       z     vdW  Elec       q    Type
REMARK                         _______ _______ _______ _____ _____    ______ ____
ROOT
ATOM      1  C   UNL     1       3.193   6.698  18.440  0.00  0.00    +0.000 A 
ATOM      2  C   UNL     1       2.648   6.548  19.721  0.00  0.00    +0.000 A 
ATOM      3  C   UNL     1       1.809   7.524  20.265  0.00  0.00    +0.000 A 
ATOM      4  C   UNL     1       1.470   8.660  19.530  0.00  0.00    +0.000 A 
ATOM      5  C   UNL     1       2.006   8.805  18.250  0.00  0.00    +0.000 A 
ATOM      6  F   UNL     1       1.709   9.859  17.474  0.00  0.00    +0.000 F 
ATOM      7  C   UNL     1       2.865   7.846  17.714  0.00  0.00    +0.000 A 
ENDROOT
BRANCH   1  10
ATOM      8  C   UNL     1       6.002   4.599  17.395  0.00  0.00    +0.000 C 
ATOM      9  C   UNL     1       5.448   5.987  17.623  0.00  0.00    +0.000 C 
ATOM     10  N   UNL     1       4.068   5.735  17.899  0.00  0.00    +0.000 N 
ATOM     11  C   UNL     1       3.736   4.452  17.477  0.00  0.00    +0.000 C 
ATOM     12  O   UNL     1       2.637   3.927  17.434  0.00  0.00    +0.000 OA
ATOM     13  O   UNL     1       4.858   3.815  17.021  0.00  0.00    +0.000 OA
BRANCH   8  14
ATOM     14  C   UNL     1       7.035   4.558  16.276  0.00  0.00    +0.000 C 
BRANCH  14  18
ATOM     15  C   UNL     1       6.155   3.613  12.722  0.00  0.00    +0.000 C 
ATOM     16  C   UNL     1       6.785   4.397  13.836  0.00  0.00    +0.000 C 
ATOM     17  O   UNL     1       7.464   5.402  13.642  0.00  0.00    +0.000 OA
ATOM     18  N   UNL     1       6.510   3.909  15.089  0.00  0.00    +0.000 N 
ATOM     19  H   UNL     1       6.218   2.942  15.176  0.00  0.00    +0.000 HD
ENDBRANCH  14  18
ENDBRANCH   8  14
ENDBRANCH   1  10
BRANCH   4  20
ATOM     20  O   UNL     1       0.622   9.515  20.175  0.00  0.00    +0.000 OA
BRANCH  20  21
ATOM     21  C   UNL     1       1.220  10.660  20.792  0.00  0.00    +0.000 C 
BRANCH  21  22
ATOM     22  C   UNL     1       0.310  11.874  20.571  0.00  0.00    +0.000 C 
BRANCH  22  23
ATOM     23  O   UNL     1       0.405  12.765  21.690  0.00  0.00    +0.000 OA
ATOM     24  H   UNL     1       1.265  12.580  22.115  0.00  0.00    +0.000 HD
ENDBRANCH  22  23
BRANCH  22  25
ATOM     25  C   UNL     1       0.660  12.638  19.281  0.00  0.00    +0.000 C 
BRANCH  25  26
ATOM     26  N   UNL     1      -0.097  12.129  18.137  0.00  0.00    +0.000 NA
ATOM     27  H   UNL     1       0.441  11.405  17.662  0.00  0.00    +0.000 HD
BRANCH  26  28
ATOM     28  C   UNL     1      -1.427  11.645  18.506  0.00  0.00    +0.000 C 
ATOM     29  C   UNL     1      -2.474  11.557  17.432  0.00  0.00    +0.000 C 
ATOM     30  C   UNL     1      -1.884  10.304  18.011  0.00  0.00    +0.000 C 
ENDBRANCH  26  28
ENDBRANCH  25  26
ENDBRANCH  22  25
ENDBRANCH  21  22
ENDBRANCH  20  21
ENDBRANCH   4  20
TORSDOF 10
ENDMDL
