MODEL 1
REMARK VINA RESULT:      -7.0      0.000      0.000
REMARK  Name = 
REMARK  10 active torsions:
REMARK  status: ('A' for Active; 'I' for Inactive)
REMARK    1  A    between atoms: C_1  and  C_2
REMARK    2  A    between atoms: C_2  and  C_3
REMARK    3  A    between atoms: C_3  and  C_4
REMARK    4  A    between atoms: C_4  and  C_5
REMARK    5  A    between atoms: C_5  and  C_6
REMARK    6  A    between atoms: C_6  and  C_7
REMARK    7  A    between atoms: C_7  and  C_13
REMARK    8  A    between atoms: N_8  and  N_9
REMARK    9  A    between atoms: N_9  and  C_10
REMARK   10  A    between atoms: C_10  and  N_11
REMARK                            x       y       z     vdW  Elec       q    Type
REMARK                         _______ _______ _______ _____ _____    ______ ____
ROOT
ATOM      1  C   UNL     1       4.629   3.925  18.637  0.00  0.00    +0.000 C 
ATOM      2  N   UNL     1       5.752   4.081  19.305  0.00  0.00    +0.000 NA
ENDROOT
BRANCH   1   3
ATOM      3  C   UNL     1       3.407   3.561  19.438  0.00  0.00    +0.000 A 
ATOM      4  C   UNL     1       2.162   4.022  18.996  0.00  0.00    +0.000 A 
ATOM      5  C   UNL     1       1.017   3.756  19.743  0.00  0.00    +0.000 A 
ATOM      6  C   UNL     1       1.105   3.021  20.924  0.00  0.00    +0.000 A 
ATOM      7  C   UNL     1       2.336   2.539  21.356  0.00  0.00    +0.000 A 
ATOM      8  C   UNL     1       3.481   2.804  20.608  0.00  0.00    +0.000 A 
ENDBRANCH   1   3
BRANCH   2   9
ATOM      9  N   UNL     1       6.913   4.426  18.685  0.00  0.00    +0.000 N 
ATOM     10  H   UNL     1       7.311   3.838  17.964  0.00  0.00    +0.000 HD
BRANCH   9  11
ATOM     11  C   UNL     1       7.675   5.490  19.026  0.00  0.00    +0.000 C 
ATOM     12  S   UNL     1       7.720   6.860  18.082  0.00  0.00    +0.000 S 
BRANCH  11  13
ATOM     13  N   UNL     1       8.408   5.418  20.169  0.00  0.00    +0.000 N 
ATOM     14  H   UNL     1       9.409   5.321  20.079  0.00  0.00    +0.000 HD
ATOM     15  H   UNL     1       8.012   5.752  21.041  0.00  0.00    +0.000 HD
ENDBRANCH  11  13
ENDBRANCH   9  11
ENDBRANCH   2   9
BRANCH   1  16
ATOM     16  C   UNL     1       4.381   4.102  17.128  0.00  0.00    +0.000 C 
BRANCH  16  17
ATOM     17  C   UNL     1       4.611   5.477  16.533  0.00  0.00    +0.000 C 
BRANCH  17  18
ATOM     18  C   UNL     1       5.508   5.603  15.305  0.00  0.00    +0.000 C 
BRANCH  18  19
ATOM     19  C   UNL     1       5.339   4.290  14.520  0.00  0.00    +0.000 C 
BRANCH  19  21
ATOM     20  C   UNL     1       5.973   3.297  12.311  0.00  0.00    +0.000 C 
ATOM     21  C   UNL     1       6.471   4.038  13.537  0.00  0.00    +0.000 C 
ENDBRANCH  19  21
ENDBRANCH  18  19
ENDBRANCH  17  18
ENDBRANCH  16  17
ENDBRANCH   1  16
TORSDOF 9
ENDMDL
MODEL 2
REMARK VINA RESULT:      -6.9      0.996      1.177
REMARK  Name = 
REMARK  10 active torsions:
REMARK  status: ('A' for Active; 'I' for Inactive)
REMARK    1  A    between atoms: C_1  and  C_2
REMARK    2  A    between atoms: C_2  and  C_3
REMARK    3  A    between atoms: C_3  and  C_4
REMARK    4  A    between atoms: C_4  and  C_5
REMARK    5  A    between atoms: C_5  and  C_6
REMARK    6  A    between atoms: C_6  and  C_7
REMARK    7  A    between atoms: C_7  and  C_13
REMARK    8  A    between atoms: N_8  and  N_9
REMARK    9  A    between atoms: N_9  and  C_10
REMARK   10  A    between atoms: C_10  and  N_11
REMARK                            x       y       z     vdW  Elec       q    Type
REMARK                         _______ _______ _______ _____ _____    ______ ____
ROOT
ATOM      1  C   UNL     1       4.616   4.318  18.317  0.00  0.00    +0.000 C 
ATOM      2  N   UNL     1       5.679   4.032  19.036  0.00  0.00    +0.000 NA
ENDROOT
BRANCH   1   3
ATOM      3  C   UNL     1       3.281   3.908  18.885  0.00  0.00    +0.000 A 
ATOM      4  C   UNL     1       2.590   2.862  18.265  0.00  0.00    +0.000 A 
ATOM      5  C   UNL     1       1.327   2.496  18.725  0.00  0.00    +0.000 A 
ATOM      6  C   UNL     1       0.755   3.160  19.809  0.00  0.00    +0.000 A 
ATOM      7  C   UNL     1       1.449   4.185  20.445  0.00  0.00    +0.000 A 
ATOM      8  C   UNL     1       2.712   4.549  19.986  0.00  0.00    +0.000 A 
ENDBRANCH   1   3
BRANCH   2   9
ATOM      9  N   UNL     1       6.933   4.369  18.628  0.00  0.00    +0.000 N 
ATOM     10  H   UNL     1       7.486   3.732  18.070  0.00  0.00    +0.000 HD
BRANCH   9  11
ATOM     11  C   UNL     1       7.579   5.499  18.996  0.00  0.00    +0.000 C 
ATOM     12  S   UNL     1       7.603   6.841  18.013  0.00  0.00    +0.000 S 
BRANCH  11  13
ATOM     13  N   UNL     1       8.210   5.516  20.200  0.00  0.00    +0.000 N 
ATOM     14  H   UNL     1       9.220   5.522  20.200  0.00  0.00    +0.000 HD
ATOM     15  H   UNL     1       7.707   5.817  21.027  0.00  0.00    +0.000 HD
ENDBRANCH  11  13
ENDBRANCH   9  11
ENDBRANCH   2   9
BRANCH   1  16
ATOM     16  C   UNL     1       4.542   5.057  16.969  0.00  0.00    +0.000 C 
BRANCH  16  17
ATOM     17  C   UNL     1       4.986   4.307  15.728  0.00  0.00    +0.000 C 
BRANCH  17  18
ATOM     18  C   UNL     1       6.474   4.264  15.393  0.00  0.00    +0.000 C 
BRANCH  18  19
ATOM     19  C   UNL     1       6.566   4.350  13.859  0.00  0.00    +0.000 C 
BRANCH  19  21
ATOM     20  C   UNL     1       5.774   2.947  11.942  0.00  0.00    +0.000 C 
ATOM     21  C   UNL     1       5.357   3.751  13.159  0.00  0.00    +0.000 C 
ENDBRANCH  19  21
ENDBRANCH  18  19
ENDBRANCH  17  18
ENDBRANCH  16  17
ENDBRANCH   1  16
TORSDOF 9
ENDMDL
MODEL 3
REMARK VINA RESULT:      -6.9      1.341      1.850
REMARK  Name = 
REMARK  10 active torsions:
REMARK  status: ('A' for Active; 'I' for Inactive)
REMARK    1  A    between atoms: C_1  and  C_2
REMARK    2  A    between atoms: C_2  and  C_3
REMARK    3  A    between atoms: C_3  and  C_4
REMARK    4  A    between atoms: C_4  and  C_5
REMARK    5  A    between atoms: C_5  and  C_6
REMARK    6  A    between atoms: C_6  and  C_7
REMARK    7  A    between atoms: C_7  and  C_13
REMARK    8  A    between atoms: N_8  and  N_9
REMARK    9  A    between atoms: N_9  and  C_10
REMARK   10  A    between atoms: C_10  and  N_11
REMARK                            x       y       z     vdW  Elec       q    Type
REMARK                         _______ _______ _______ _____ _____    ______ ____
ROOT
ATOM      1  C   UNL     1       4.989   4.470  17.644  0.00  0.00    +0.000 C 
ATOM      2  N   UNL     1       6.038   4.056  18.323  0.00  0.00    +0.000 NA
ENDROOT
BRANCH   1   3
ATOM      3  C   UNL     1       3.667   3.828  17.978  0.00  0.00    +0.000 A 
ATOM      4  C   UNL     1       3.556   2.439  17.859  0.00  0.00    +0.000 A 
ATOM      5  C   UNL     1       2.334   1.816  18.101  0.00  0.00    +0.000 A 
ATOM      6  C   UNL     1       1.224   2.572  18.474  0.00  0.00    +0.000 A 
ATOM      7  C   UNL     1       1.334   3.952  18.617  0.00  0.00    +0.000 A 
ATOM      8  C   UNL     1       2.557   4.573  18.377  0.00  0.00    +0.000 A 
ENDBRANCH   1   3
BRANCH   2   9
ATOM      9  N   UNL     1       7.277   4.578  18.116  0.00  0.00    +0.000 N 
ATOM     10  H   UNL     1       7.927   4.136  17.479  0.00  0.00    +0.000 HD
BRANCH   9  11
ATOM     11  C   UNL     1       7.783   5.637  18.788  0.00  0.00    +0.000 C 
ATOM     12  S   UNL     1       7.815   7.156  18.112  0.00  0.00    +0.000 S 
BRANCH  11  13
ATOM     13  N   UNL     1       8.266   5.432  20.043  0.00  0.00    +0.000 N 
ATOM     14  H   UNL     1       7.629   5.067  20.737  0.00  0.00    +0.000 HD
ATOM     15  H   UNL     1       9.266   5.356  20.190  0.00  0.00    +0.000 HD
ENDBRANCH  11  13
ENDBRANCH   9  11
ENDBRANCH   2   9
BRANCH   1  16
ATOM     16  C   UNL     1       4.919   5.565  16.564  0.00  0.00    +0.000 C 
BRANCH  16  17
ATOM     17  C   UNL     1       5.672   5.326  15.270  0.00  0.00    +0.000 C 
BRANCH  17  18
ATOM     18  C   UNL     1       5.569   3.958  14.604  0.00  0.00    +0.000 C 
BRANCH  18  19
ATOM     19  C   UNL     1       6.392   4.054  13.308  0.00  0.00    +0.000 C 
BRANCH  19  21
ATOM     20  C   UNL     1       4.563   3.403  11.726  0.00  0.00    +0.000 C 
ATOM     21  C   UNL     1       5.945   3.060  12.248  0.00  0.00    +0.000 C 
ENDBRANCH  19  21
ENDBRANCH  18  19
ENDBRANCH  17  18
ENDBRANCH  16  17
ENDBRANCH   1  16
TORSDOF 9
ENDMDL
MODEL 4
REMARK VINA RESULT:      -6.8      1.418      6.034
REMARK  Name = 
REMARK  10 active torsions:
REMARK  status: ('A' for Active; 'I' for Inactive)
REMARK    1  A    between atoms: C_1  and  C_2
REMARK    2  A    between atoms: C_2  and  C_3
REMARK    3  A    between atoms: C_3  and  C_4
REMARK    4  A    between atoms: C_4  and  C_5
REMARK    5  A    between atoms: C_5  and  C_6
REMARK    6  A    between atoms: C_6  and  C_7
REMARK    7  A    between atoms: C_7  and  C_13
REMARK    8  A    between atoms: N_8  and  N_9
REMARK    9  A    between atoms: N_9  and  C_10
REMARK   10  A    between atoms: C_10  and  N_11
REMARK                            x       y       z     vdW  Elec       q    Type
REMARK                         _______ _______ _______ _____ _____    ______ ____
ROOT
ATOM      1  C   UNL     1       6.540   4.564  16.027  0.00  0.00    +0.000 C 
ATOM      2  N   UNL     1       7.637   4.421  16.740  0.00  0.00    +0.000 NA
ENDROOT
BRANCH   1   3
ATOM      3  C   UNL     1       6.687   4.477  14.530  0.00  0.00    +0.000 A 
ATOM      4  C   UNL     1       5.883   3.566  13.837  0.00  0.00    +0.000 A 
ATOM      5  C   UNL     1       6.033   3.416  12.460  0.00  0.00    +0.000 A 
ATOM      6  C   UNL     1       6.972   4.179  11.769  0.00  0.00    +0.000 A 
ATOM      7  C   UNL     1       7.758   5.104  12.450  0.00  0.00    +0.000 A 
ATOM      8  C   UNL     1       7.606   5.255  13.826  0.00  0.00    +0.000 A 
ENDBRANCH   1   3
BRANCH   2   9
ATOM      9  N   UNL     1       7.619   4.464  18.100  0.00  0.00    +0.000 N 
ATOM     10  H   UNL     1       7.346   3.654  18.642  0.00  0.00    +0.000 HD
BRANCH   9  11
ATOM     11  C   UNL     1       7.854   5.576  18.832  0.00  0.00    +0.000 C 
ATOM     12  S   UNL     1       7.787   7.093  18.151  0.00  0.00    +0.000 S 
BRANCH  11  13
ATOM     13  N   UNL     1       8.146   5.428  20.152  0.00  0.00    +0.000 N 
ATOM     14  H   UNL     1       8.713   6.141  20.590  0.00  0.00    +0.000 HD
ATOM     15  H   UNL     1       7.579   4.814  20.727  0.00  0.00    +0.000 HD
ENDBRANCH  11  13
ENDBRANCH   9  11
ENDBRANCH   2   9
BRANCH   1  16
ATOM     16  C   UNL     1       5.098   4.774  16.521  0.00  0.00    +0.000 C 
BRANCH  16  17
ATOM     17  C   UNL     1       4.365   3.574  17.089  0.00  0.00    +0.000 C 
BRANCH  17  18
ATOM     18  C   UNL     1       2.864   3.682  17.336  0.00  0.00    +0.000 C 
BRANCH  18  19
ATOM     19  C   UNL     1       2.400   2.276  17.753  0.00  0.00    +0.000 C 
BRANCH  19  21
ATOM     20  C   UNL     1       1.216   3.684  19.451  0.00  0.00    +0.000 C 
ATOM     21  C   UNL     1       1.340   2.300  18.842  0.00  0.00    +0.000 C 
ENDBRANCH  19  21
ENDBRANCH  18  19
ENDBRANCH  17  18
ENDBRANCH  16  17
ENDBRANCH   1  16
TORSDOF 9
ENDMDL
MODEL 5
REMARK VINA RESULT:      -6.8      1.025      1.349
REMARK  Name = 
REMARK  10 active torsions:
REMARK  status: ('A' for Active; 'I' for Inactive)
REMARK    1  A    between atoms: C_1  and  C_2
REMARK    2  A    between atoms: C_2  and  C_3
REMARK    3  A    between atoms: C_3  and  C_4
REMARK    4  A    between atoms: C_4  and  C_5
REMARK    5  A    between atoms: C_5  and  C_6
REMARK    6  A    between atoms: C_6  and  C_7
REMARK    7  A    between atoms: C_7  and  C_13
REMARK    8  A    between atoms: N_8  and  N_9
REMARK    9  A    between atoms: N_9  and  C_10
REMARK   10  A    between atoms: C_10  and  N_11
REMARK                            x       y       z     vdW  Elec       q    Type
REMARK                         _______ _______ _______ _____ _____    ______ ____
ROOT
ATOM      1  C   UNL     1       4.683   4.851  18.400  0.00  0.00    +0.000 C 
ATOM      2  N   UNL     1       5.730   4.212  18.877  0.00  0.00    +0.000 NA
ENDROOT
BRANCH   1   3
ATOM      3  C   UNL     1       3.331   4.396  18.885  0.00  0.00    +0.000 A 
ATOM      4  C   UNL     1       2.896   4.833  20.141  0.00  0.00    +0.000 A 
ATOM      5  C   UNL     1       1.678   4.387  20.648  0.00  0.00    +0.000 A 
ATOM      6  C   UNL     1       0.885   3.516  19.903  0.00  0.00    +0.000 A 
ATOM      7  C   UNL     1       1.301   3.097  18.643  0.00  0.00    +0.000 A 
ATOM      8  C   UNL     1       2.518   3.545  18.135  0.00  0.00    +0.000 A 
ENDBRANCH   1   3
BRANCH   2   9
ATOM      9  N   UNL     1       6.999   4.549  18.521  0.00  0.00    +0.000 N 
ATOM     10  H   UNL     1       7.521   3.982  17.865  0.00  0.00    +0.000 HD
BRANCH   9  11
ATOM     11  C   UNL     1       7.698   5.573  19.059  0.00  0.00    +0.000 C 
ATOM     12  S   UNL     1       7.883   7.016  18.251  0.00  0.00    +0.000 S 
BRANCH  11  13
ATOM     13  N   UNL     1       8.250   5.399  20.290  0.00  0.00    +0.000 N 
ATOM     14  H   UNL     1       7.827   5.888  21.067  0.00  0.00    +0.000 HD
ATOM     15  H   UNL     1       8.844   4.597  20.466  0.00  0.00    +0.000 HD
ENDBRANCH  11  13
ENDBRANCH   9  11
ENDBRANCH   2   9
BRANCH   1  16
ATOM     16  C   UNL     1       4.650   6.042  17.425  0.00  0.00    +0.000 C 
BRANCH  16  17
ATOM     17  C   UNL     1       5.021   5.778  15.979  0.00  0.00    +0.000 C 
BRANCH  17  18
ATOM     18  C   UNL     1       5.139   4.333  15.504  0.00  0.00    +0.000 C 
BRANCH  18  19
ATOM     19  C   UNL     1       6.595   4.158  15.036  0.00  0.00    +0.000 C 
BRANCH  19  21
ATOM     20  C   UNL     1       5.759   3.520  12.764  0.00  0.00    +0.000 C 
ATOM     21  C   UNL     1       6.762   4.354  13.538  0.00  0.00    +0.000 C 
ENDBRANCH  19  21
ENDBRANCH  18  19
ENDBRANCH  17  18
ENDBRANCH  16  17
ENDBRANCH   1  16
TORSDOF 9
ENDMDL
MODEL 6
REMARK VINA RESULT:      -6.7      2.802      5.079
REMARK  Name = 
REMARK  10 active torsions:
REMARK  status: ('A' for Active; 'I' for Inactive)
REMARK    1  A    between atoms: C_1  and  C_2
REMARK    2  A    between atoms: C_2  and  C_3
REMARK    3  A    between atoms: C_3  and  C_4
REMARK    4  A    between atoms: C_4  and  C_5
REMARK    5  A    between atoms: C_5  and  C_6
REMARK    6  A    between atoms: C_6  and  C_7
REMARK    7  A    between atoms: C_7  and  C_13
REMARK    8  A    between atoms: N_8  and  N_9
REMARK    9  A    between atoms: N_9  and  C_10
REMARK   10  A    between atoms: C_10  and  N_11
REMARK                            x       y       z     vdW  Elec       q    Type
REMARK                         _______ _______ _______ _____ _____    ______ ____
ROOT
ATOM      1  C   UNL     1       3.399   5.924  18.701  0.00  0.00    +0.000 C 
ATOM      2  N   UNL     1       4.487   5.789  19.430  0.00  0.00    +0.000 NA
ENDROOT
BRANCH   1   3
ATOM      3  C   UNL     1       2.529   7.119  18.995  0.00  0.00    +0.000 A 
ATOM      4  C   UNL     1       2.282   8.029  17.962  0.00  0.00    +0.000 A 
ATOM      5  C   UNL     1       1.531   9.176  18.212  0.00  0.00    +0.000 A 
ATOM      6  C   UNL     1       1.014   9.413  19.484  0.00  0.00    +0.000 A 
ATOM      7  C   UNL     1       1.236   8.498  20.509  0.00  0.00    +0.000 A 
ATOM      8  C   UNL     1       1.985   7.351  20.259  0.00  0.00    +0.000 A 
ENDBRANCH   1   3
BRANCH   2   9
ATOM      9  N   UNL     1       5.353   4.758  19.239  0.00  0.00    +0.000 N 
ATOM     10  H   UNL     1       5.204   3.865  19.691  0.00  0.00    +0.000 HD
BRANCH   9  11
ATOM     11  C   UNL     1       6.507   4.847  18.540  0.00  0.00    +0.000 C 
ATOM     12  S   UNL     1       7.742   5.847  19.032  0.00  0.00    +0.000 S 
BRANCH  11  13
ATOM     13  N   UNL     1       6.639   4.093  17.416  0.00  0.00    +0.000 N 
ATOM     14  H   UNL     1       6.760   4.576  16.538  0.00  0.00    +0.000 HD
ATOM     15  H   UNL     1       6.910   3.119  17.494  0.00  0.00    +0.000 HD
ENDBRANCH  11  13
ENDBRANCH   9  11
ENDBRANCH   2   9
BRANCH   1  16
ATOM     16  C   UNL     1       2.904   5.036  17.546  0.00  0.00    +0.000 C 
BRANCH  16  17
ATOM     17  C   UNL     1       1.616   4.262  17.755  0.00  0.00    +0.000 C 
BRANCH  17  18
ATOM     18  C   UNL     1       1.695   2.853  18.333  0.00  0.00    +0.000 C 
BRANCH  18  19
ATOM     19  C   UNL     1       0.704   2.821  19.510  0.00  0.00    +0.000 C 
BRANCH  19  21
ATOM     20  C   UNL     1       2.388   3.129  21.337  0.00  0.00    +0.000 C 
ATOM     21  C   UNL     1       1.143   3.691  20.677  0.00  0.00    +0.000 C 
ENDBRANCH  19  21
ENDBRANCH  18  19
ENDBRANCH  17  18
ENDBRANCH  16  17
ENDBRANCH   1  16
TORSDOF 9
ENDMDL
MODEL 7
REMARK VINA RESULT:      -6.7      2.282      3.806
REMARK  Name = 
REMARK  10 active torsions:
REMARK  status: ('A' for Active; 'I' for Inactive)
REMARK    1  A    between atoms: C_1  and  C_2
REMARK    2  A    between atoms: C_2  and  C_3
REMARK    3  A    between atoms: C_3  and  C_4
REMARK    4  A    between atoms: C_4  and  C_5
REMARK    5  A    between atoms: C_5  and  C_6
REMARK    6  A    between atoms: C_6  and  C_7
REMARK    7  A    between atoms: C_7  and  C_13
REMARK    8  A    between atoms: N_8  and  N_9
REMARK    9  A    between atoms: N_9  and  C_10
REMARK   10  A    between atoms: C_10  and  N_11
REMARK                            x       y       z     vdW  Elec       q    Type
REMARK                         _______ _______ _______ _____ _____    ______ ____
ROOT
ATOM      1  C   UNL     1       4.453   4.437  18.408  0.00  0.00    +0.000 C 
ATOM      2  N   UNL     1       5.583   4.069  18.973  0.00  0.00    +0.000 NA
ENDROOT
BRANCH   1   3
ATOM      3  C   UNL     1       3.180   3.996  19.083  0.00  0.00    +0.000 A 
ATOM      4  C   UNL     1       2.253   3.262  18.335  0.00  0.00    +0.000 A 
ATOM      5  C   UNL     1       1.040   2.888  18.907  0.00  0.00    +0.000 A 
ATOM      6  C   UNL     1       0.751   3.231  20.227  0.00  0.00    +0.000 A 
ATOM      7  C   UNL     1       1.679   3.939  20.983  0.00  0.00    +0.000 A 
ATOM      8  C   UNL     1       2.893   4.312  20.411  0.00  0.00    +0.000 A 
ENDBRANCH   1   3
BRANCH   2   9
ATOM      9  N   UNL     1       6.791   4.425  18.459  0.00  0.00    +0.000 N 
ATOM     10  H   UNL     1       7.237   3.864  17.744  0.00  0.00    +0.000 HD
BRANCH   9  11
ATOM     11  C   UNL     1       7.534   5.464  18.902  0.00  0.00    +0.000 C 
ATOM     12  S   UNL     1       7.627   6.889  18.048  0.00  0.00    +0.000 S 
BRANCH  11  13
ATOM     13  N   UNL     1       8.208   5.319  20.074  0.00  0.00    +0.000 N 
ATOM     14  H   UNL     1       7.668   5.120  20.904  0.00  0.00    +0.000 HD
ATOM     15  H   UNL     1       9.202   5.116  20.061  0.00  0.00    +0.000 HD
ENDBRANCH  11  13
ENDBRANCH   9  11
ENDBRANCH   2   9
BRANCH   1  16
ATOM     16  C   UNL     1       4.248   5.303  17.151  0.00  0.00    +0.000 C 
BRANCH  16  17
ATOM     17  C   UNL     1       4.001   6.785  17.350  0.00  0.00    +0.000 C 
BRANCH  17  18
ATOM     18  C   UNL     1       2.729   7.226  18.069  0.00  0.00    +0.000 C 
BRANCH  18  19
ATOM     19  C   UNL     1       2.577   8.729  17.779  0.00  0.00    +0.000 C 
BRANCH  19  21
ATOM     20  C   UNL     1       1.084   9.296  19.706  0.00  0.00    +0.000 C 
ATOM     21  C   UNL     1       1.223   9.279  18.196  0.00  0.00    +0.000 C 
ENDBRANCH  19  21
ENDBRANCH  18  19
ENDBRANCH  17  18
ENDBRANCH  16  17
ENDBRANCH   1  16
TORSDOF 9
ENDMDL
MODEL 8
REMARK VINA RESULT:      -6.7      1.296      6.031
REMARK  Name = 
REMARK  10 active torsions:
REMARK  status: ('A' for Active; 'I' for Inactive)
REMARK    1  A    between atoms: C_1  and  C_2
REMARK    2  A    between atoms: C_2  and  C_3
REMARK    3  A    between atoms: C_3  and  C_4
REMARK    4  A    between atoms: C_4  and  C_5
REMARK    5  A    between atoms: C_5  and  C_6
REMARK    6  A    between atoms: C_6  and  C_7
REMARK    7  A    between atoms: C_7  and  C_13
REMARK    8  A    between atoms: N_8  and  N_9
REMARK    9  A    between atoms: N_9  and  C_10
REMARK   10  A    between atoms: C_10  and  N_11
REMARK                            x       y       z     vdW  Elec       q    Type
REMARK                         _______ _______ _______ _____ _____    ______ ____
ROOT
ATOM      1  C   UNL     1       6.580   4.413  16.037  0.00  0.00    +0.000 C 
ATOM      2  N   UNL     1       7.703   4.465  16.721  0.00  0.00    +0.000 NA
ENDROOT
BRANCH   1   3
ATOM      3  C   UNL     1       6.700   4.391  14.535  0.00  0.00    +0.000 A 
ATOM      4  C   UNL     1       5.881   3.513  13.818  0.00  0.00    +0.000 A 
ATOM      5  C   UNL     1       6.005   3.422  12.433  0.00  0.00    +0.000 A 
ATOM      6  C   UNL     1       6.934   4.213  11.759  0.00  0.00    +0.000 A 
ATOM      7  C   UNL     1       7.734   5.106  12.465  0.00  0.00    +0.000 A 
ATOM      8  C   UNL     1       7.608   5.197  13.849  0.00  0.00    +0.000 A 
ENDBRANCH   1   3
BRANCH   2   9
ATOM      9  N   UNL     1       7.714   4.473  18.082  0.00  0.00    +0.000 N 
ATOM     10  H   UNL     1       7.533   3.627  18.607  0.00  0.00    +0.000 HD
BRANCH   9  11
ATOM     11  C   UNL     1       7.860   5.583  18.839  0.00  0.00    +0.000 C 
ATOM     12  S   UNL     1       7.773   7.105  18.171  0.00  0.00    +0.000 S 
BRANCH  11  13
ATOM     13  N   UNL     1       8.078   5.429  20.173  0.00  0.00    +0.000 N 
ATOM     14  H   UNL     1       8.974   5.066  20.463  0.00  0.00    +0.000 HD
ATOM     15  H   UNL     1       7.502   5.934  20.838  0.00  0.00    +0.000 HD
ENDBRANCH  11  13
ENDBRANCH   9  11
ENDBRANCH   2   9
BRANCH   1  16
ATOM     16  C   UNL     1       5.138   4.332  16.569  0.00  0.00    +0.000 C 
BRANCH  16  17
ATOM     17  C   UNL     1       4.431   5.635  16.890  0.00  0.00    +0.000 C 
BRANCH  17  18
ATOM     18  C   UNL     1       3.875   5.840  18.296  0.00  0.00    +0.000 C 
BRANCH  18  19
ATOM     19  C   UNL     1       2.586   5.004  18.368  0.00  0.00    +0.000 C 
BRANCH  19  21
ATOM     20  C   UNL     1       1.121   4.125  20.199  0.00  0.00    +0.000 C 
ATOM     21  C   UNL     1       2.518   4.126  19.607  0.00  0.00    +0.000 C 
ENDBRANCH  19  21
ENDBRANCH  18  19
ENDBRANCH  17  18
ENDBRANCH  16  17
ENDBRANCH   1  16
TORSDOF 9
ENDMDL
MODEL 9
REMARK VINA RESULT:      -6.7      2.919      5.125
REMARK  Name = 
REMARK  10 active torsions:
REMARK  status: ('A' for Active; 'I' for Inactive)
REMARK    1  A    between atoms: C_1  and  C_2
REMARK    2  A    between atoms: C_2  and  C_3
REMARK    3  A    between atoms: C_3  and  C_4
REMARK    4  A    between atoms: C_4  and  C_5
REMARK    5  A    between atoms: C_5  and  C_6
REMARK    6  A    between atoms: C_6  and  C_7
REMARK    7  A    between atoms: C_7  and  C_13
REMARK    8  A    between atoms: N_8  and  N_9
REMARK    9  A    between atoms: N_9  and  C_10
REMARK   10  A    between atoms: C_10  and  N_11
REMARK                            x       y       z     vdW  Elec       q    Type
REMARK                         _______ _______ _______ _____ _____    ______ ____
ROOT
ATOM      1  C   UNL     1       3.816   6.278  17.888  0.00  0.00    +0.000 C 
ATOM      2  N   UNL     1       4.552   6.739  16.899  0.00  0.00    +0.000 NA
ENDROOT
BRANCH   1   3
ATOM      3  C   UNL     1       2.840   7.240  18.514  0.00  0.00    +0.000 A 
ATOM      4  C   UNL     1       2.426   8.347  17.766  0.00  0.00    +0.000 A 
ATOM      5  C   UNL     1       1.571   9.289  18.333  0.00  0.00    +0.000 A 
ATOM      6  C   UNL     1       1.116   9.126  19.640  0.00  0.00    +0.000 A 
ATOM      7  C   UNL     1       1.505   8.015  20.382  0.00  0.00    +0.000 A 
ATOM      8  C   UNL     1       2.359   7.072  19.813  0.00  0.00    +0.000 A 
ENDBRANCH   1   3
BRANCH   2   9
ATOM      9  N   UNL     1       5.453   5.954  16.250  0.00  0.00    +0.000 N 
ATOM     10  H   UNL     1       5.160   5.329  15.510  0.00  0.00    +0.000 HD
BRANCH   9  11
ATOM     11  C   UNL     1       6.761   5.857  16.581  0.00  0.00    +0.000 C 
ATOM     12  S   UNL     1       7.482   6.964  17.593  0.00  0.00    +0.000 S 
BRANCH  11  13
ATOM     13  N   UNL     1       7.480   4.823  16.068  0.00  0.00    +0.000 N 
ATOM     14  H   UNL     1       6.990   3.962  15.873  0.00  0.00    +0.000 HD
ATOM     15  H   UNL     1       8.373   5.004  15.622  0.00  0.00    +0.000 HD
ENDBRANCH  11  13
ENDBRANCH   9  11
ENDBRANCH   2   9
BRANCH   1  16
ATOM     16  C   UNL     1       3.789   4.857  18.479  0.00  0.00    +0.000 C 
BRANCH  16  17
ATOM     17  C   UNL     1       2.912   3.826  17.794  0.00  0.00    +0.000 C 
BRANCH  17  18
ATOM     18  C   UNL     1       1.400   3.918  17.971  0.00  0.00    +0.000 C 
BRANCH  18  19
ATOM     19  C   UNL     1       1.052   2.981  19.141  0.00  0.00    +0.000 C 
BRANCH  19  21
ATOM     20  C   UNL     1       1.914   3.111  21.488  0.00  0.00    +0.000 C 
ATOM     21  C   UNL     1       0.957   3.707  20.473  0.00  0.00    +0.000 C 
ENDBRANCH  19  21
ENDBRANCH  18  19
ENDBRANCH  17  18
ENDBRANCH  16  17
ENDBRANCH   1  16
TORSDOF 9
ENDMDL
