MODEL 1
REMARK VINA RESULT:      -7.4      0.000      0.000
REMARK  Name = 
REMARK  9 active torsions:
REMARK  status: ('A' for Active; 'I' for Inactive)
REMARK    1  A    between atoms: C_1  and  O_2
REMARK    2  A    between atoms: O_2  and  C_3
REMARK    3  A    between atoms: C_3  and  C_5
REMARK    4  A    between atoms: C_8  and  C_9
REMARK    5  A    between atoms: C_9  and  S_10
REMARK    6  A    between atoms: S_10  and  C_11
REMARK    7  A    between atoms: N_19  and  C_20
REMARK    8  A    between atoms: C_20  and  C_21
REMARK    9  A    between atoms: C_21  and  O_23
REMARK                            x       y       z     vdW  Elec       q    Type
REMARK                         _______ _______ _______ _____ _____    ______ ____
ROOT
ATOM      1  C   UNL     1       3.771   5.200  18.983  0.00  0.00    +0.000 A 
ATOM      2  N   UNL     1       5.038   5.307  19.269  0.00  0.00    +0.000 NA
ATOM      3  C   UNL     1       5.687   4.867  18.145  0.00  0.00    +0.000 A 
ATOM      4  C   UNL     1       7.066   4.827  17.891  0.00  0.00    +0.000 A 
ATOM      5  C   UNL     1       7.504   4.471  16.614  0.00  0.00    +0.000 A 
ATOM      6  C   UNL     1       6.585   4.163  15.611  0.00  0.00    +0.000 A 
ATOM      7  C   UNL     1       5.205   4.143  15.862  0.00  0.00    +0.000 A 
ATOM      8  C   UNL     1       4.776   4.463  17.162  0.00  0.00    +0.000 A 
ATOM      9  N   UNL     1       3.563   4.489  17.813  0.00  0.00    +0.000 N 
ENDROOT
BRANCH   1  10
ATOM     10  S   UNL     1       2.468   5.873  19.906  0.00  0.00    +0.000 S 
BRANCH  10  11
ATOM     11  C   UNL     1       2.203   7.470  19.065  0.00  0.00    +0.000 C 
BRANCH  11  15
ATOM     12  C   UNL     1       0.082  10.258  21.634  0.00  0.00    +0.000 A 
ATOM     13  C   UNL     1       0.516   9.020  22.126  0.00  0.00    +0.000 A 
ATOM     14  C   UNL     1       1.210   8.135  21.304  0.00  0.00    +0.000 A 
ATOM     15  C   UNL     1       1.476   8.453  19.960  0.00  0.00    +0.000 A 
ATOM     16  C   UNL     1       1.055   9.701  19.477  0.00  0.00    +0.000 A 
ATOM     17  C   UNL     1       0.366  10.598  20.305  0.00  0.00    +0.000 A 
BRANCH  12  18
ATOM     18  C   UNL     1      -0.665  11.155  22.556  0.00  0.00    +0.000 C 
ATOM     19  O   UNL     1      -1.516  10.755  23.339  0.00  0.00    +0.000 OA
BRANCH  18  21
ATOM     20  C   UNL     1      -1.074  13.381  23.130  0.00  0.00    +0.000 C 
ATOM     21  O   UNL     1      -0.286  12.446  22.392  0.00  0.00    +0.000 OA
ENDBRANCH  18  21
ENDBRANCH  12  18
ENDBRANCH  11  15
ENDBRANCH  10  11
ENDBRANCH   1  10
BRANCH   9  22
ATOM     22  C   UNL     1       2.277   3.863  17.506  0.00  0.00    +0.000 C 
BRANCH  22  23
ATOM     23  C   UNL     1       1.859   2.571  18.139  0.00  0.00    +0.000 C 
ATOM     24  O   UNL     1       0.745   2.426  18.629  0.00  0.00    +0.000 OA
BRANCH  23  25
ATOM     25  O   UNL     1       2.805   1.617  18.286  0.00  0.00    +0.000 OA
ATOM     26  H   UNL     1       2.534   0.704  18.084  0.00  0.00    +0.000 HD
ENDBRANCH  23  25
ENDBRANCH  22  23
ENDBRANCH   9  22
TORSDOF 8
ENDMDL
MODEL 2
REMARK VINA RESULT:      -7.4      3.194      8.566
REMARK  Name = 
REMARK  9 active torsions:
REMARK  status: ('A' for Active; 'I' for Inactive)
REMARK    1  A    between atoms: C_1  and  O_2
REMARK    2  A    between atoms: O_2  and  C_3
REMARK    3  A    between atoms: C_3  and  C_5
REMARK    4  A    between atoms: C_8  and  C_9
REMARK    5  A    between atoms: C_9  and  S_10
REMARK    6  A    between atoms: S_10  and  C_11
REMARK    7  A    between atoms: N_19  and  C_20
REMARK    8  A    between atoms: C_20  and  C_21
REMARK    9  A    between atoms: C_21  and  O_23
REMARK                            x       y       z     vdW  Elec       q    Type
REMARK                         _______ _______ _______ _____ _____    ______ ____
ROOT
ATOM      1  C   UNL     1       3.394   5.658  19.052  0.00  0.00    +0.000 A 
ATOM      2  N   UNL     1       3.246   6.493  18.063  0.00  0.00    +0.000 NA
ATOM      3  C   UNL     1       2.425   7.474  18.556  0.00  0.00    +0.000 A 
ATOM      4  C   UNL     1       1.993   8.650  17.927  0.00  0.00    +0.000 A 
ATOM      5  C   UNL     1       1.269   9.584  18.672  0.00  0.00    +0.000 A 
ATOM      6  C   UNL     1       0.985   9.349  20.016  0.00  0.00    +0.000 A 
ATOM      7  C   UNL     1       1.361   8.154  20.647  0.00  0.00    +0.000 A 
ATOM      8  C   UNL     1       2.052   7.202  19.878  0.00  0.00    +0.000 A 
ATOM      9  N   UNL     1       2.518   5.924  20.091  0.00  0.00    +0.000 N 
ENDROOT
BRANCH   1  10
ATOM     10  S   UNL     1       4.552   4.370  19.119  0.00  0.00    +0.000 S 
BRANCH  10  11
ATOM     11  C   UNL     1       6.007   5.138  18.331  0.00  0.00    +0.000 C 
BRANCH  11  15
ATOM     12  C   UNL     1       6.290   4.097  14.123  0.00  0.00    +0.000 A 
ATOM     13  C   UNL     1       7.251   4.921  14.721  0.00  0.00    +0.000 A 
ATOM     14  C   UNL     1       7.167   5.240  16.075  0.00  0.00    +0.000 A 
ATOM     15  C   UNL     1       6.108   4.759  16.867  0.00  0.00    +0.000 A 
ATOM     16  C   UNL     1       5.158   3.920  16.267  0.00  0.00    +0.000 A 
ATOM     17  C   UNL     1       5.248   3.588  14.908  0.00  0.00    +0.000 A 
BRANCH  12  18
ATOM     18  C   UNL     1       6.427   3.803  12.671  0.00  0.00    +0.000 C 
ATOM     19  O   UNL     1       7.196   4.404  11.934  0.00  0.00    +0.000 OA
BRANCH  18  21
ATOM     20  C   UNL     1       4.479   3.254  11.507  0.00  0.00    +0.000 C 
ATOM     21  O   UNL     1       5.585   2.810  12.295  0.00  0.00    +0.000 OA
ENDBRANCH  18  21
ENDBRANCH  12  18
ENDBRANCH  11  15
ENDBRANCH  10  11
ENDBRANCH   1  10
BRANCH   9  22
ATOM     22  C   UNL     1       2.176   4.915  21.093  0.00  0.00    +0.000 C 
BRANCH  22  23
ATOM     23  C   UNL     1       1.452   3.655  20.727  0.00  0.00    +0.000 C 
ATOM     24  O   UNL     1       0.434   3.674  20.044  0.00  0.00    +0.000 OA
BRANCH  23  25
ATOM     25  O   UNL     1       1.875   2.507  21.299  0.00  0.00    +0.000 OA
ATOM     26  H   UNL     1       2.178   1.807  20.693  0.00  0.00    +0.000 HD
ENDBRANCH  23  25
ENDBRANCH  22  23
ENDBRANCH   9  22
TORSDOF 8
ENDMDL
MODEL 3
REMARK VINA RESULT:      -7.4      0.378      1.032
REMARK  Name = 
REMARK  9 active torsions:
REMARK  status: ('A' for Active; 'I' for Inactive)
REMARK    1  A    between atoms: C_1  and  O_2
REMARK    2  A    between atoms: O_2  and  C_3
REMARK    3  A    between atoms: C_3  and  C_5
REMARK    4  A    between atoms: C_8  and  C_9
REMARK    5  A    between atoms: C_9  and  S_10
REMARK    6  A    between atoms: S_10  and  C_11
REMARK    7  A    between atoms: N_19  and  C_20
REMARK    8  A    between atoms: C_20  and  C_21
REMARK    9  A    between atoms: C_21  and  O_23
REMARK                            x       y       z     vdW  Elec       q    Type
REMARK                         _______ _______ _______ _____ _____    ______ ____
ROOT
ATOM      1  C   UNL     1       3.545   5.305  19.140  0.00  0.00    +0.000 A 
ATOM      2  N   UNL     1       4.812   5.397  19.430  0.00  0.00    +0.000 NA
ATOM      3  C   UNL     1       5.458   4.924  18.318  0.00  0.00    +0.000 A 
ATOM      4  C   UNL     1       6.837   4.857  18.070  0.00  0.00    +0.000 A 
ATOM      5  C   UNL     1       7.274   4.468  16.803  0.00  0.00    +0.000 A 
ATOM      6  C   UNL     1       6.355   4.156  15.802  0.00  0.00    +0.000 A 
ATOM      7  C   UNL     1       4.973   4.164  16.047  0.00  0.00    +0.000 A 
ATOM      8  C   UNL     1       4.544   4.516  17.338  0.00  0.00    +0.000 A 
ATOM      9  N   UNL     1       3.329   4.576  17.984  0.00  0.00    +0.000 N 
ENDROOT
BRANCH   1  10
ATOM     10  S   UNL     1       2.249   6.018  20.044  0.00  0.00    +0.000 S 
BRANCH  10  11
ATOM     11  C   UNL     1       2.168   7.691  19.322  0.00  0.00    +0.000 C 
BRANCH  11  15
ATOM     12  C   UNL     1      -0.215  10.391  21.752  0.00  0.00    +0.000 A 
ATOM     13  C   UNL     1      -0.036  10.630  20.383  0.00  0.00    +0.000 A 
ATOM     14  C   UNL     1       0.716   9.754  19.603  0.00  0.00    +0.000 A 
ATOM     15  C   UNL     1       1.326   8.621  20.172  0.00  0.00    +0.000 A 
ATOM     16  C   UNL     1       1.129   8.376  21.539  0.00  0.00    +0.000 A 
ATOM     17  C   UNL     1       0.363   9.250  22.323  0.00  0.00    +0.000 A 
BRANCH  12  18
ATOM     18  C   UNL     1      -1.018  11.369  22.534  0.00  0.00    +0.000 C 
ATOM     19  O   UNL     1      -1.830  11.041  23.388  0.00  0.00    +0.000 OA
BRANCH  18  21
ATOM     20  C   UNL     1      -1.074  13.625  23.134  0.00  0.00    +0.000 C 
ATOM     21  O   UNL     1      -0.736  12.640  22.156  0.00  0.00    +0.000 OA
ENDBRANCH  18  21
ENDBRANCH  12  18
ENDBRANCH  11  15
ENDBRANCH  10  11
ENDBRANCH   1  10
BRANCH   9  22
ATOM     22  C   UNL     1       2.034   3.965  17.683  0.00  0.00    +0.000 C 
BRANCH  22  23
ATOM     23  C   UNL     1       1.602   2.680  18.322  0.00  0.00    +0.000 C 
ATOM     24  O   UNL     1       0.810   2.662  19.258  0.00  0.00    +0.000 OA
BRANCH  23  25
ATOM     25  O   UNL     1       2.231   1.550  17.931  0.00  0.00    +0.000 OA
ATOM     26  H   UNL     1       1.666   0.839  17.581  0.00  0.00    +0.000 HD
ENDBRANCH  23  25
ENDBRANCH  22  23
ENDBRANCH   9  22
TORSDOF 8
ENDMDL
MODEL 4
REMARK VINA RESULT:      -7.2      2.939      4.351
REMARK  Name = 
REMARK  9 active torsions:
REMARK  status: ('A' for Active; 'I' for Inactive)
REMARK    1  A    between atoms: C_1  and  O_2
REMARK    2  A    between atoms: O_2  and  C_3
REMARK    3  A    between atoms: C_3  and  C_5
REMARK    4  A    between atoms: C_8  and  C_9
REMARK    5  A    between atoms: C_9  and  S_10
REMARK    6  A    between atoms: S_10  and  C_11
REMARK    7  A    between atoms: N_19  and  C_20
REMARK    8  A    between atoms: C_20  and  C_21
REMARK    9  A    between atoms: C_21  and  O_23
REMARK                            x       y       z     vdW  Elec       q    Type
REMARK                         _______ _______ _______ _____ _____    ______ ____
ROOT
ATOM      1  C   UNL     1       5.319   4.068  17.920  0.00  0.00    +0.000 A 
ATOM      2  N   UNL     1       6.104   4.272  18.940  0.00  0.00    +0.000 NA
ATOM      3  C   UNL     1       6.836   5.380  18.599  0.00  0.00    +0.000 A 
ATOM      4  C   UNL     1       7.790   6.067  19.364  0.00  0.00    +0.000 A 
ATOM      5  C   UNL     1       8.314   7.262  18.870  0.00  0.00    +0.000 A 
ATOM      6  C   UNL     1       7.893   7.763  17.638  0.00  0.00    +0.000 A 
ATOM      7  C   UNL     1       6.982   7.062  16.834  0.00  0.00    +0.000 A 
ATOM      8  C   UNL     1       6.492   5.839  17.322  0.00  0.00    +0.000 A 
ATOM      9  N   UNL     1       5.670   4.849  16.831  0.00  0.00    +0.000 N 
ENDROOT
BRANCH   1  10
ATOM     10  S   UNL     1       3.968   2.984  17.889  0.00  0.00    +0.000 S 
BRANCH  10  11
ATOM     11  C   UNL     1       2.963   3.601  19.281  0.00  0.00    +0.000 C 
BRANCH  11  15
ATOM     12  C   UNL     1       1.956   7.790  18.728  0.00  0.00    +0.000 A 
ATOM     13  C   UNL     1       2.058   6.928  17.628  0.00  0.00    +0.000 A 
ATOM     14  C   UNL     1       2.366   5.581  17.810  0.00  0.00    +0.000 A 
ATOM     15  C   UNL     1       2.598   5.060  19.096  0.00  0.00    +0.000 A 
ATOM     16  C   UNL     1       2.478   5.923  20.195  0.00  0.00    +0.000 A 
ATOM     17  C   UNL     1       2.157   7.276  20.015  0.00  0.00    +0.000 A 
BRANCH  12  18
ATOM     18  C   UNL     1       1.637   9.220  18.468  0.00  0.00    +0.000 C 
ATOM     19  O   UNL     1       2.236   9.904  17.649  0.00  0.00    +0.000 OA
BRANCH  18  21
ATOM     20  C   UNL     1       0.911  10.853  19.971  0.00  0.00    +0.000 C 
ATOM     21  O   UNL     1       0.626   9.645  19.265  0.00  0.00    +0.000 OA
ENDBRANCH  18  21
ENDBRANCH  12  18
ENDBRANCH  11  15
ENDBRANCH  10  11
ENDBRANCH   1  10
BRANCH   9  22
ATOM     22  C   UNL     1       5.254   4.512  15.470  0.00  0.00    +0.000 C 
BRANCH  22  23
ATOM     23  C   UNL     1       6.251   4.320  14.367  0.00  0.00    +0.000 C 
ATOM     24  O   UNL     1       6.933   5.249  13.950  0.00  0.00    +0.000 OA
BRANCH  23  25
ATOM     25  O   UNL     1       6.266   3.121  13.745  0.00  0.00    +0.000 OA
ATOM     26  H   UNL     1       5.466   2.884  13.243  0.00  0.00    +0.000 HD
ENDBRANCH  23  25
ENDBRANCH  22  23
ENDBRANCH   9  22
TORSDOF 8
ENDMDL
MODEL 5
REMARK VINA RESULT:      -7.2      3.227      9.395
REMARK  Name = 
REMARK  9 active torsions:
REMARK  status: ('A' for Active; 'I' for Inactive)
REMARK    1  A    between atoms: C_1  and  O_2
REMARK    2  A    between atoms: O_2  and  C_3
REMARK    3  A    between atoms: C_3  and  C_5
REMARK    4  A    between atoms: C_8  and  C_9
REMARK    5  A    between atoms: C_9  and  S_10
REMARK    6  A    between atoms: S_10  and  C_11
REMARK    7  A    between atoms: N_19  and  C_20
REMARK    8  A    between atoms: C_20  and  C_21
REMARK    9  A    between atoms: C_21  and  O_23
REMARK                            x       y       z     vdW  Elec       q    Type
REMARK                         _______ _______ _______ _____ _____    ______ ____
ROOT
ATOM      1  C   UNL     1       1.238   9.215  19.531  0.00  0.00    +0.000 A 
ATOM      2  N   UNL     1       1.253   8.667  20.713  0.00  0.00    +0.000 NA
ATOM      3  C   UNL     1       0.470   9.485  21.486  0.00  0.00    +0.000 A 
ATOM      4  C   UNL     1       0.099   9.327  22.829  0.00  0.00    +0.000 A 
ATOM      5  C   UNL     1      -0.828  10.213  23.380  0.00  0.00    +0.000 A 
ATOM      6  C   UNL     1      -1.376  11.235  22.605  0.00  0.00    +0.000 A 
ATOM      7  C   UNL     1      -0.976  11.443  21.277  0.00  0.00    +0.000 A 
ATOM      8  C   UNL     1      -0.011  10.571  20.744  0.00  0.00    +0.000 A 
ATOM      9  N   UNL     1       0.675  10.480  19.553  0.00  0.00    +0.000 N 
ENDROOT
BRANCH   1  10
ATOM     10  S   UNL     1       1.813   8.480  18.071  0.00  0.00    +0.000 S 
BRANCH  10  11
ATOM     11  C   UNL     1       2.571   6.945  18.702  0.00  0.00    +0.000 C 
BRANCH  11  15
ATOM     12  C   UNL     1       5.518   5.334  15.947  0.00  0.00    +0.000 A 
ATOM     13  C   UNL     1       4.615   4.488  16.602  0.00  0.00    +0.000 A 
ATOM     14  C   UNL     1       3.660   5.009  17.474  0.00  0.00    +0.000 A 
ATOM     15  C   UNL     1       3.592   6.391  17.728  0.00  0.00    +0.000 A 
ATOM     16  C   UNL     1       4.487   7.236  17.056  0.00  0.00    +0.000 A 
ATOM     17  C   UNL     1       5.441   6.714  16.171  0.00  0.00    +0.000 A 
BRANCH  12  18
ATOM     18  C   UNL     1       6.522   4.716  15.038  0.00  0.00    +0.000 C 
ATOM     19  O   UNL     1       7.660   5.143  14.906  0.00  0.00    +0.000 OA
BRANCH  18  21
ATOM     20  C   UNL     1       6.278   3.632  12.985  0.00  0.00    +0.000 C 
ATOM     21  O   UNL     1       5.995   3.652  14.385  0.00  0.00    +0.000 OA
ENDBRANCH  18  21
ENDBRANCH  12  18
ENDBRANCH  11  15
ENDBRANCH  10  11
ENDBRANCH   1  10
BRANCH   9  22
ATOM     22  C   UNL     1       0.925  11.458  18.495  0.00  0.00    +0.000 C 
BRANCH  22  23
ATOM     23  C   UNL     1       2.129  12.351  18.517  0.00  0.00    +0.000 C 
ATOM     24  O   UNL     1       2.387  13.058  19.485  0.00  0.00    +0.000 OA
BRANCH  23  25
ATOM     25  O   UNL     1       2.839  12.464  17.373  0.00  0.00    +0.000 OA
ATOM     26  H   UNL     1       3.495  13.183  17.340  0.00  0.00    +0.000 HD
ENDBRANCH  23  25
ENDBRANCH  22  23
ENDBRANCH   9  22
TORSDOF 8
ENDMDL
MODEL 6
REMARK VINA RESULT:      -7.2      2.789      4.127
REMARK  Name = 
REMARK  9 active torsions:
REMARK  status: ('A' for Active; 'I' for Inactive)
REMARK    1  A    between atoms: C_1  and  O_2
REMARK    2  A    between atoms: O_2  and  C_3
REMARK    3  A    between atoms: C_3  and  C_5
REMARK    4  A    between atoms: C_8  and  C_9
REMARK    5  A    between atoms: C_9  and  S_10
REMARK    6  A    between atoms: S_10  and  C_11
REMARK    7  A    between atoms: N_19  and  C_20
REMARK    8  A    between atoms: C_20  and  C_21
REMARK    9  A    between atoms: C_21  and  O_23
REMARK                            x       y       z     vdW  Elec       q    Type
REMARK                         _______ _______ _______ _____ _____    ______ ____
ROOT
ATOM      1  C   UNL     1       5.084   4.123  17.584  0.00  0.00    +0.000 A 
ATOM      2  N   UNL     1       5.757   4.142  18.699  0.00  0.00    +0.000 NA
ATOM      3  C   UNL     1       6.635   5.185  18.557  0.00  0.00    +0.000 A 
ATOM      4  C   UNL     1       7.556   5.686  19.489  0.00  0.00    +0.000 A 
ATOM      5  C   UNL     1       8.256   6.854  19.182  0.00  0.00    +0.000 A 
ATOM      6  C   UNL     1       8.041   7.509  17.970  0.00  0.00    +0.000 A 
ATOM      7  C   UNL     1       7.166   6.993  17.003  0.00  0.00    +0.000 A 
ATOM      8  C   UNL     1       6.497   5.795  17.305  0.00  0.00    +0.000 A 
ATOM      9  N   UNL     1       5.642   4.953  16.627  0.00  0.00    +0.000 N 
ENDROOT
BRANCH   1  10
ATOM     10  S   UNL     1       3.642   3.207  17.292  0.00  0.00    +0.000 S 
BRANCH  10  11
ATOM     11  C   UNL     1       2.827   3.268  18.923  0.00  0.00    +0.000 C 
BRANCH  11  15
ATOM     12  C   UNL     1       1.751   7.328  20.033  0.00  0.00    +0.000 A 
ATOM     13  C   UNL     1       1.598   6.274  20.942  0.00  0.00    +0.000 A 
ATOM     14  C   UNL     1       1.959   4.975  20.589  0.00  0.00    +0.000 A 
ATOM     15  C   UNL     1       2.467   4.689  19.309  0.00  0.00    +0.000 A 
ATOM     16  C   UNL     1       2.635   5.751  18.408  0.00  0.00    +0.000 A 
ATOM     17  C   UNL     1       2.283   7.060  18.766  0.00  0.00    +0.000 A 
BRANCH  12  18
ATOM     18  C   UNL     1       1.335   8.690  20.465  0.00  0.00    +0.000 C 
ATOM     19  O   UNL     1       0.892   9.532  19.696  0.00  0.00    +0.000 OA
BRANCH  18  21
ATOM     20  C   UNL     1       0.449   9.499  22.467  0.00  0.00    +0.000 C 
ATOM     21  O   UNL     1       1.534   8.859  21.795  0.00  0.00    +0.000 OA
ENDBRANCH  18  21
ENDBRANCH  12  18
ENDBRANCH  11  15
ENDBRANCH  10  11
ENDBRANCH   1  10
BRANCH   9  22
ATOM     22  C   UNL     1       5.361   4.791  15.201  0.00  0.00    +0.000 C 
BRANCH  22  23
ATOM     23  C   UNL     1       6.446   4.472  14.216  0.00  0.00    +0.000 C 
ATOM     24  O   UNL     1       7.308   5.293  13.922  0.00  0.00    +0.000 OA
BRANCH  23  25
ATOM     25  O   UNL     1       6.354   3.301  13.550  0.00  0.00    +0.000 OA
ATOM     26  H   UNL     1       5.504   2.830  13.617  0.00  0.00    +0.000 HD
ENDBRANCH  23  25
ENDBRANCH  22  23
ENDBRANCH   9  22
TORSDOF 8
ENDMDL
MODEL 7
REMARK VINA RESULT:      -7.2      3.838      8.778
REMARK  Name = 
REMARK  9 active torsions:
REMARK  status: ('A' for Active; 'I' for Inactive)
REMARK    1  A    between atoms: C_1  and  O_2
REMARK    2  A    between atoms: O_2  and  C_3
REMARK    3  A    between atoms: C_3  and  C_5
REMARK    4  A    between atoms: C_8  and  C_9
REMARK    5  A    between atoms: C_9  and  S_10
REMARK    6  A    between atoms: S_10  and  C_11
REMARK    7  A    between atoms: N_19  and  C_20
REMARK    8  A    between atoms: C_20  and  C_21
REMARK    9  A    between atoms: C_21  and  O_23
REMARK                            x       y       z     vdW  Elec       q    Type
REMARK                         _______ _______ _______ _____ _____    ______ ____
ROOT
ATOM      1  C   UNL     1       4.984   5.266  18.751  0.00  0.00    +0.000 A 
ATOM      2  N   UNL     1       4.850   4.235  19.537  0.00  0.00    +0.000 NA
ATOM      3  C   UNL     1       3.582   3.774  19.291  0.00  0.00    +0.000 A 
ATOM      4  C   UNL     1       2.944   2.646  19.826  0.00  0.00    +0.000 A 
ATOM      5  C   UNL     1       1.692   2.281  19.326  0.00  0.00    +0.000 A 
ATOM      6  C   UNL     1       1.092   3.026  18.311  0.00  0.00    +0.000 A 
ATOM      7  C   UNL     1       1.690   4.189  17.803  0.00  0.00    +0.000 A 
ATOM      8  C   UNL     1       2.930   4.571  18.343  0.00  0.00    +0.000 A 
ATOM      9  N   UNL     1       3.781   5.641  18.177  0.00  0.00    +0.000 N 
ENDROOT
BRANCH   1  10
ATOM     10  S   UNL     1       6.472   6.085  18.409  0.00  0.00    +0.000 S 
BRANCH  10  11
ATOM     11  C   UNL     1       7.462   4.756  17.646  0.00  0.00    +0.000 C 
BRANCH  11  15
ATOM     12  C   UNL     1       6.081   3.793  13.641  0.00  0.00    +0.000 A 
ATOM     13  C   UNL     1       5.527   3.158  14.760  0.00  0.00    +0.000 A 
ATOM     14  C   UNL     1       5.961   3.480  16.045  0.00  0.00    +0.000 A 
ATOM     15  C   UNL     1       6.974   4.435  16.247  0.00  0.00    +0.000 A 
ATOM     16  C   UNL     1       7.513   5.081  15.125  0.00  0.00    +0.000 A 
ATOM     17  C   UNL     1       7.069   4.766  13.833  0.00  0.00    +0.000 A 
BRANCH  12  18
ATOM     18  C   UNL     1       5.584   3.397  12.296  0.00  0.00    +0.000 C 
ATOM     19  O   UNL     1       4.485   3.717  11.864  0.00  0.00    +0.000 OA
BRANCH  18  21
ATOM     20  C   UNL     1       6.004   1.360  11.234  0.00  0.00    +0.000 C 
ATOM     21  O   UNL     1       6.498   2.635  11.646  0.00  0.00    +0.000 OA
ENDBRANCH  18  21
ENDBRANCH  12  18
ENDBRANCH  11  15
ENDBRANCH  10  11
ENDBRANCH   1  10
BRANCH   9  22
ATOM     22  C   UNL     1       3.569   6.980  17.627  0.00  0.00    +0.000 C 
BRANCH  22  23
ATOM     23  C   UNL     1       2.488   7.881  18.143  0.00  0.00    +0.000 C 
ATOM     24  O   UNL     1       2.056   8.814  17.475  0.00  0.00    +0.000 OA
BRANCH  23  25
ATOM     25  O   UNL     1       2.108   7.722  19.429  0.00  0.00    +0.000 OA
ATOM     26  H   UNL     1       2.785   7.903  20.106  0.00  0.00    +0.000 HD
ENDBRANCH  23  25
ENDBRANCH  22  23
ENDBRANCH   9  22
TORSDOF 8
ENDMDL
MODEL 8
REMARK VINA RESULT:      -7.2      3.197      9.344
REMARK  Name = 
REMARK  9 active torsions:
REMARK  status: ('A' for Active; 'I' for Inactive)
REMARK    1  A    between atoms: C_1  and  O_2
REMARK    2  A    between atoms: O_2  and  C_3
REMARK    3  A    between atoms: C_3  and  C_5
REMARK    4  A    between atoms: C_8  and  C_9
REMARK    5  A    between atoms: C_9  and  S_10
REMARK    6  A    between atoms: S_10  and  C_11
REMARK    7  A    between atoms: N_19  and  C_20
REMARK    8  A    between atoms: C_20  and  C_21
REMARK    9  A    between atoms: C_21  and  O_23
REMARK                            x       y       z     vdW  Elec       q    Type
REMARK                         _______ _______ _______ _____ _____    ______ ____
ROOT
ATOM      1  C   UNL     1       1.327   9.336  19.431  0.00  0.00    +0.000 A 
ATOM      2  N   UNL     1       1.239   8.728  20.581  0.00  0.00    +0.000 NA
ATOM      3  C   UNL     1       0.479   9.563  21.358  0.00  0.00    +0.000 A 
ATOM      4  C   UNL     1       0.028   9.365  22.671  0.00  0.00    +0.000 A 
ATOM      5  C   UNL     1      -0.859  10.291  23.224  0.00  0.00    +0.000 A 
ATOM      6  C   UNL     1      -1.287  11.391  22.482  0.00  0.00    +0.000 A 
ATOM      7  C   UNL     1      -0.803  11.636  21.188  0.00  0.00    +0.000 A 
ATOM      8  C   UNL     1       0.121  10.720  20.656  0.00  0.00    +0.000 A 
ATOM      9  N   UNL     1       0.860  10.638  19.496  0.00  0.00    +0.000 N 
ENDROOT
BRANCH   1  10
ATOM     10  S   UNL     1       1.923   8.635  17.963  0.00  0.00    +0.000 S 
BRANCH  10  11
ATOM     11  C   UNL     1       2.187   6.899  18.461  0.00  0.00    +0.000 C 
BRANCH  11  15
ATOM     12  C   UNL     1       5.790   5.290  16.644  0.00  0.00    +0.000 A 
ATOM     13  C   UNL     1       5.595   6.674  16.742  0.00  0.00    +0.000 A 
ATOM     14  C   UNL     1       4.446   7.187  17.340  0.00  0.00    +0.000 A 
ATOM     15  C   UNL     1       3.448   6.332  17.841  0.00  0.00    +0.000 A 
ATOM     16  C   UNL     1       3.655   4.947  17.756  0.00  0.00    +0.000 A 
ATOM     17  C   UNL     1       4.816   4.429  17.166  0.00  0.00    +0.000 A 
BRANCH  12  18
ATOM     18  C   UNL     1       7.031   4.803  15.984  0.00  0.00    +0.000 C 
ATOM     19  O   UNL     1       7.920   4.211  16.580  0.00  0.00    +0.000 OA
BRANCH  18  21
ATOM     20  C   UNL     1       6.441   4.130  13.827  0.00  0.00    +0.000 C 
ATOM     21  O   UNL     1       7.037   5.121  14.666  0.00  0.00    +0.000 OA
ENDBRANCH  18  21
ENDBRANCH  12  18
ENDBRANCH  11  15
ENDBRANCH  10  11
ENDBRANCH   1  10
BRANCH   9  22
ATOM     22  C   UNL     1       1.239  11.647  18.507  0.00  0.00    +0.000 C 
BRANCH  22  23
ATOM     23  C   UNL     1       2.298  12.669  18.791  0.00  0.00    +0.000 C 
ATOM     24  O   UNL     1       2.432  13.163  19.905  0.00  0.00    +0.000 OA
BRANCH  23  25
ATOM     25  O   UNL     1       3.005  13.138  17.740  0.00  0.00    +0.000 OA
ATOM     26  H   UNL     1       3.953  12.916  17.721  0.00  0.00    +0.000 HD
ENDBRANCH  23  25
ENDBRANCH  22  23
ENDBRANCH   9  22
TORSDOF 8
ENDMDL
MODEL 9
REMARK VINA RESULT:      -7.1      1.956      3.459
REMARK  Name = 
REMARK  9 active torsions:
REMARK  status: ('A' for Active; 'I' for Inactive)
REMARK    1  A    between atoms: C_1  and  O_2
REMARK    2  A    between atoms: O_2  and  C_3
REMARK    3  A    between atoms: C_3  and  C_5
REMARK    4  A    between atoms: C_8  and  C_9
REMARK    5  A    between atoms: C_9  and  S_10
REMARK    6  A    between atoms: S_10  and  C_11
REMARK    7  A    between atoms: N_19  and  C_20
REMARK    8  A    between atoms: C_20  and  C_21
REMARK    9  A    between atoms: C_21  and  O_23
REMARK                            x       y       z     vdW  Elec       q    Type
REMARK                         _______ _______ _______ _____ _____    ______ ____
ROOT
ATOM      1  C   UNL     1       3.341   5.948  17.934  0.00  0.00    +0.000 A 
ATOM      2  N   UNL     1       2.164   5.404  17.809  0.00  0.00    +0.000 NA
ATOM      3  C   UNL     1       2.330   4.112  18.235  0.00  0.00    +0.000 A 
ATOM      4  C   UNL     1       1.365   3.103  18.364  0.00  0.00    +0.000 A 
ATOM      5  C   UNL     1       1.732   1.893  18.956  0.00  0.00    +0.000 A 
ATOM      6  C   UNL     1       3.035   1.695  19.411  0.00  0.00    +0.000 A 
ATOM      7  C   UNL     1       4.028   2.672  19.240  0.00  0.00    +0.000 A 
ATOM      8  C   UNL     1       3.658   3.870  18.605  0.00  0.00    +0.000 A 
ATOM      9  N   UNL     1       4.321   5.007  18.198  0.00  0.00    +0.000 N 
ENDROOT
BRANCH   1  10
ATOM     10  S   UNL     1       3.687   7.643  17.822  0.00  0.00    +0.000 S 
BRANCH  10  11
ATOM     11  C   UNL     1       2.014   8.353  17.659  0.00  0.00    +0.000 C 
BRANCH  11  15
ATOM     12  C   UNL     1       0.504   9.777  21.475  0.00  0.00    +0.000 A 
ATOM     13  C   UNL     1       1.254   8.596  21.399  0.00  0.00    +0.000 A 
ATOM     14  C   UNL     1       1.750   8.150  20.176  0.00  0.00    +0.000 A 
ATOM     15  C   UNL     1       1.497   8.863  18.990  0.00  0.00    +0.000 A 
ATOM     16  C   UNL     1       0.761  10.054  19.074  0.00  0.00    +0.000 A 
ATOM     17  C   UNL     1       0.271  10.510  20.305  0.00  0.00    +0.000 A 
BRANCH  12  18
ATOM     18  C   UNL     1      -0.009  10.195  22.808  0.00  0.00    +0.000 C 
ATOM     19  O   UNL     1      -0.066   9.443  23.771  0.00  0.00    +0.000 OA
BRANCH  18  21
ATOM     20  C   UNL     1      -1.772  11.682  23.170  0.00  0.00    +0.000 C 
ATOM     21  O   UNL     1      -0.408  11.490  22.790  0.00  0.00    +0.000 OA
ENDBRANCH  18  21
ENDBRANCH  12  18
ENDBRANCH  11  15
ENDBRANCH  10  11
ENDBRANCH   1  10
BRANCH   9  22
ATOM     22  C   UNL     1       5.739   5.274  17.953  0.00  0.00    +0.000 C 
BRANCH  22  23
ATOM     23  C   UNL     1       6.569   4.382  17.080  0.00  0.00    +0.000 C 
ATOM     24  O   UNL     1       7.790   4.483  17.035  0.00  0.00    +0.000 OA
BRANCH  23  25
ATOM     25  O   UNL     1       5.914   3.561  16.231  0.00  0.00    +0.000 OA
ATOM     26  H   UNL     1       5.869   3.847  15.301  0.00  0.00    +0.000 HD
ENDBRANCH  23  25
ENDBRANCH  22  23
ENDBRANCH   9  22
TORSDOF 8
ENDMDL
