MODEL 1
REMARK VINA RESULT:      -9.5      0.000      0.000
REMARK  Name = 
REMARK  4 active torsions:
REMARK  status: ('A' for Active; 'I' for Inactive)
REMARK    1  A    between atoms: C_2  and  C_5
REMARK    2  A    between atoms: C_8  and  N_9
REMARK    3  A    between atoms: N_19  and  C_20
REMARK    4  A    between atoms: C_23  and  C_24
REMARK                            x       y       z     vdW  Elec       q    Type
REMARK                         _______ _______ _______ _____ _____    ______ ____
ROOT
ATOM      1  N   UNL     1       2.124   7.490  19.188  0.00  0.00    +0.000 N 
ATOM      2  C   UNL     1       2.554   6.200  19.630  0.00  0.00    +0.000 A 
ATOM      3  N   UNL     1       1.930   5.664  20.716  0.00  0.00    +0.000 NA
ATOM      4  C   UNL     1       2.379   4.415  20.998  0.00  0.00    +0.000 A 
ATOM      5  N   UNL     1       1.947   3.626  21.981  0.00  0.00    +0.000 NA
ATOM      6  O   UNL     1       2.702   2.460  21.848  0.00  0.00    +0.000 OA
ATOM      7  N   UNL     1       3.600   2.533  20.784  0.00  0.00    +0.000 NA
ATOM      8  C   UNL     1       3.398   3.741  20.253  0.00  0.00    +0.000 A 
ATOM      9  N   UNL     1       4.032   4.272  19.177  0.00  0.00    +0.000 NA
ATOM     10  C   UNL     1       3.587   5.525  18.883  0.00  0.00    +0.000 A 
ATOM     11  N   UNL     1       4.151   6.190  17.761  0.00  0.00    +0.000 N 
ATOM     12  H   UNL     1       1.732   7.396  18.254  0.00  0.00    +0.000 HD
ATOM     13  H   UNL     1       4.468   7.126  17.993  0.00  0.00    +0.000 HD
ENDROOT
BRANCH   1  17
ATOM     14  C   UNL     1      -0.109  10.209  21.576  0.00  0.00    +0.000 A 
ATOM     15  C   UNL     1       0.016  10.402  20.197  0.00  0.00    +0.000 A 
ATOM     16  C   UNL     1       0.755   9.506  19.423  0.00  0.00    +0.000 A 
ATOM     17  C   UNL     1       1.406   8.405  19.997  0.00  0.00    +0.000 A 
ATOM     18  C   UNL     1       1.268   8.202  21.375  0.00  0.00    +0.000 A 
ATOM     19  C   UNL     1       0.527   9.101  22.158  0.00  0.00    +0.000 A 
BRANCH  14  21
ATOM     20  F   UNL     1      -2.097  11.536  21.843  0.00  0.00    +0.000 F 
ATOM     21  C   UNL     1      -0.920  11.161  22.421  0.00  0.00    +0.000 C 
ATOM     22  F   UNL     1      -0.255  12.318  22.694  0.00  0.00    +0.000 F 
ATOM     23  F   UNL     1      -1.254  10.626  23.629  0.00  0.00    +0.000 F 
ENDBRANCH  14  21
ENDBRANCH   1  17
BRANCH  11  24
ATOM     24  C   UNL     1       4.763   5.593  16.640  0.00  0.00    +0.000 A 
ATOM     25  C   UNL     1       4.859   4.199  16.530  0.00  0.00    +0.000 A 
ATOM     26  C   UNL     1       5.322   3.594  15.361  0.00  0.00    +0.000 A 
ATOM     27  C   UNL     1       5.726   4.371  14.276  0.00  0.00    +0.000 A 
ATOM     28  C   UNL     1       5.731   5.767  14.412  0.00  0.00    +0.000 A 
ATOM     29  C   UNL     1       5.249   6.371  15.583  0.00  0.00    +0.000 A 
BRANCH  27  30
ATOM     30  C   UNL     1       6.106   3.721  12.965  0.00  0.00    +0.000 C 
ATOM     31  F   UNL     1       6.463   2.411  13.089  0.00  0.00    +0.000 F 
ATOM     32  F   UNL     1       5.077   3.736  12.071  0.00  0.00    +0.000 F 
ATOM     33  F   UNL     1       7.148   4.336  12.344  0.00  0.00    +0.000 F 
ENDBRANCH  27  30
ENDBRANCH  11  24
TORSDOF 4
ENDMDL
MODEL 2
REMARK VINA RESULT:      -9.4      0.148      1.090
REMARK  Name = 
REMARK  4 active torsions:
REMARK  status: ('A' for Active; 'I' for Inactive)
REMARK    1  A    between atoms: C_2  and  C_5
REMARK    2  A    between atoms: C_8  and  N_9
REMARK    3  A    between atoms: N_19  and  C_20
REMARK    4  A    between atoms: C_23  and  C_24
REMARK                            x       y       z     vdW  Elec       q    Type
REMARK                         _______ _______ _______ _____ _____    ______ ____
ROOT
ATOM      1  N   UNL     1       2.117   7.441  19.106  0.00  0.00    +0.000 N 
ATOM      2  C   UNL     1       2.565   6.164  19.571  0.00  0.00    +0.000 A 
ATOM      3  N   UNL     1       1.948   5.639  20.665  0.00  0.00    +0.000 NA
ATOM      4  C   UNL     1       2.415   4.402  20.970  0.00  0.00    +0.000 A 
ATOM      5  N   UNL     1       1.994   3.623  21.966  0.00  0.00    +0.000 NA
ATOM      6  O   UNL     1       2.765   2.466  21.854  0.00  0.00    +0.000 OA
ATOM      7  N   UNL     1       3.662   2.533  20.788  0.00  0.00    +0.000 NA
ATOM      8  C   UNL     1       3.443   3.729  20.237  0.00  0.00    +0.000 A 
ATOM      9  N   UNL     1       4.071   4.250  19.152  0.00  0.00    +0.000 NA
ATOM     10  C   UNL     1       3.608   5.491  18.836  0.00  0.00    +0.000 A 
ATOM     11  N   UNL     1       4.163   6.145  17.703  0.00  0.00    +0.000 N 
ATOM     12  H   UNL     1       1.727   7.325  18.174  0.00  0.00    +0.000 HD
ATOM     13  H   UNL     1       4.466   7.089  17.918  0.00  0.00    +0.000 HD
ENDROOT
BRANCH   1  17
ATOM     14  C   UNL     1       0.002  10.228  21.522  0.00  0.00    +0.000 A 
ATOM     15  C   UNL     1       0.653   9.132  22.096  0.00  0.00    +0.000 A 
ATOM     16  C   UNL     1       1.341   8.220  21.293  0.00  0.00    +0.000 A 
ATOM     17  C   UNL     1       1.386   8.359  19.899  0.00  0.00    +0.000 A 
ATOM     18  C   UNL     1       0.747   9.466  19.326  0.00  0.00    +0.000 A 
ATOM     19  C   UNL     1       0.054  10.384  20.128  0.00  0.00    +0.000 A 
BRANCH  14  21
ATOM     20  F   UNL     1      -0.087  12.426  22.494  0.00  0.00    +0.000 F 
ATOM     21  C   UNL     1      -0.730  11.229  22.382  0.00  0.00    +0.000 C 
ATOM     22  F   UNL     1      -0.920  10.789  23.657  0.00  0.00    +0.000 F 
ATOM     23  F   UNL     1      -1.970  11.520  21.897  0.00  0.00    +0.000 F 
ENDBRANCH  14  21
ENDBRANCH   1  17
BRANCH  11  24
ATOM     24  C   UNL     1       4.785   5.537  16.592  0.00  0.00    +0.000 A 
ATOM     25  C   UNL     1       4.691   4.155  16.384  0.00  0.00    +0.000 A 
ATOM     26  C   UNL     1       5.169   3.564  15.212  0.00  0.00    +0.000 A 
ATOM     27  C   UNL     1       5.776   4.342  14.228  0.00  0.00    +0.000 A 
ATOM     28  C   UNL     1       5.967   5.709  14.471  0.00  0.00    +0.000 A 
ATOM     29  C   UNL     1       5.470   6.301  15.641  0.00  0.00    +0.000 A 
BRANCH  27  30
ATOM     30  C   UNL     1       6.179   3.729  12.905  0.00  0.00    +0.000 C 
ATOM     31  F   UNL     1       6.540   2.416  13.000  0.00  0.00    +0.000 F 
ATOM     32  F   UNL     1       5.163   3.763  11.996  0.00  0.00    +0.000 F 
ATOM     33  F   UNL     1       7.228   4.363  12.317  0.00  0.00    +0.000 F 
ENDBRANCH  27  30
ENDBRANCH  11  24
TORSDOF 4
ENDMDL
MODEL 3
REMARK VINA RESULT:      -9.2      0.899      1.144
REMARK  Name = 
REMARK  4 active torsions:
REMARK  status: ('A' for Active; 'I' for Inactive)
REMARK    1  A    between atoms: C_2  and  C_5
REMARK    2  A    between atoms: C_8  and  N_9
REMARK    3  A    between atoms: N_19  and  C_20
REMARK    4  A    between atoms: C_23  and  C_24
REMARK                            x       y       z     vdW  Elec       q    Type
REMARK                         _______ _______ _______ _____ _____    ______ ____
ROOT
ATOM      1  N   UNL     1       2.635   7.223  18.622  0.00  0.00    +0.000 N 
ATOM      2  C   UNL     1       3.076   5.945  19.091  0.00  0.00    +0.000 A 
ATOM      3  N   UNL     1       2.476   5.439  20.203  0.00  0.00    +0.000 NA
ATOM      4  C   UNL     1       2.931   4.199  20.510  0.00  0.00    +0.000 A 
ATOM      5  N   UNL     1       2.522   3.436  21.524  0.00  0.00    +0.000 NA
ATOM      6  O   UNL     1       3.275   2.268  21.407  0.00  0.00    +0.000 OA
ATOM      7  N   UNL     1       4.149   2.312  20.322  0.00  0.00    +0.000 NA
ATOM      8  C   UNL     1       3.935   3.505  19.762  0.00  0.00    +0.000 A 
ATOM      9  N   UNL     1       4.546   4.006  18.659  0.00  0.00    +0.000 NA
ATOM     10  C   UNL     1       4.093   5.250  18.340  0.00  0.00    +0.000 A 
ATOM     11  N   UNL     1       4.632   5.885  17.189  0.00  0.00    +0.000 N 
ATOM     12  H   UNL     1       2.224   7.103  17.700  0.00  0.00    +0.000 HD
ATOM     13  H   UNL     1       4.953   6.827  17.388  0.00  0.00    +0.000 HD
ENDROOT
BRANCH   1  17
ATOM     14  C   UNL     1       0.453  10.016  20.971  0.00  0.00    +0.000 A 
ATOM     15  C   UNL     1       0.723  10.270  19.623  0.00  0.00    +0.000 A 
ATOM     16  C   UNL     1       1.444   9.348  18.862  0.00  0.00    +0.000 A 
ATOM     17  C   UNL     1       1.934   8.160  19.421  0.00  0.00    +0.000 A 
ATOM     18  C   UNL     1       1.650   7.898  20.766  0.00  0.00    +0.000 A 
ATOM     19  C   UNL     1       0.926   8.822  21.536  0.00  0.00    +0.000 A 
BRANCH  14  21
ATOM     20  F   UNL     1       0.294  12.189  21.991  0.00  0.00    +0.000 F 
ATOM     21  C   UNL     1      -0.340  10.998  21.799  0.00  0.00    +0.000 C 
ATOM     22  F   UNL     1      -0.628  10.524  23.043  0.00  0.00    +0.000 F 
ATOM     23  F   UNL     1      -1.539  11.305  21.228  0.00  0.00    +0.000 F 
ENDBRANCH  14  21
ENDBRANCH   1  17
BRANCH  11  24
ATOM     24  C   UNL     1       5.222   5.257  16.071  0.00  0.00    +0.000 A 
ATOM     25  C   UNL     1       4.510   4.314  15.319  0.00  0.00    +0.000 A 
ATOM     26  C   UNL     1       5.023   3.801  14.126  0.00  0.00    +0.000 A 
ATOM     27  C   UNL     1       6.276   4.203  13.667  0.00  0.00    +0.000 A 
ATOM     28  C   UNL     1       7.040   5.068  14.464  0.00  0.00    +0.000 A 
ATOM     29  C   UNL     1       6.513   5.594  15.652  0.00  0.00    +0.000 A 
BRANCH  27  30
ATOM     30  C   UNL     1       6.780   3.751  12.315  0.00  0.00    +0.000 C 
ATOM     31  F   UNL     1       7.387   2.529  12.340  0.00  0.00    +0.000 F 
ATOM     32  F   UNL     1       5.770   3.638  11.406  0.00  0.00    +0.000 F 
ATOM     33  F   UNL     1       7.683   4.606  11.766  0.00  0.00    +0.000 F 
ENDBRANCH  27  30
ENDBRANCH  11  24
TORSDOF 4
ENDMDL
MODEL 4
REMARK VINA RESULT:      -9.1      0.863      1.384
REMARK  Name = 
REMARK  4 active torsions:
REMARK  status: ('A' for Active; 'I' for Inactive)
REMARK    1  A    between atoms: C_2  and  C_5
REMARK    2  A    between atoms: C_8  and  N_9
REMARK    3  A    between atoms: N_19  and  C_20
REMARK    4  A    between atoms: C_23  and  C_24
REMARK                            x       y       z     vdW  Elec       q    Type
REMARK                         _______ _______ _______ _____ _____    ______ ____
ROOT
ATOM      1  N   UNL     1       2.517   7.273  18.603  0.00  0.00    +0.000 N 
ATOM      2  C   UNL     1       2.949   5.995  19.081  0.00  0.00    +0.000 A 
ATOM      3  N   UNL     1       2.322   5.487  20.177  0.00  0.00    +0.000 NA
ATOM      4  C   UNL     1       2.772   4.247  20.494  0.00  0.00    +0.000 A 
ATOM      5  N   UNL     1       2.339   3.483  21.496  0.00  0.00    +0.000 NA
ATOM      6  O   UNL     1       3.097   2.315  21.397  0.00  0.00    +0.000 OA
ATOM      7  N   UNL     1       3.999   2.362  20.335  0.00  0.00    +0.000 NA
ATOM      8  C   UNL     1       3.796   3.556  19.771  0.00  0.00    +0.000 A 
ATOM      9  N   UNL     1       4.433   4.060  18.684  0.00  0.00    +0.000 NA
ATOM     10  C   UNL     1       3.986   5.303  18.355  0.00  0.00    +0.000 A 
ATOM     11  N   UNL     1       4.553   5.940  17.218  0.00  0.00    +0.000 N 
ATOM     12  H   UNL     1       2.129   7.153  17.670  0.00  0.00    +0.000 HD
ATOM     13  H   UNL     1       4.866   6.882  17.426  0.00  0.00    +0.000 HD
ENDROOT
BRANCH   1  17
ATOM     14  C   UNL     1       0.425  10.097  20.995  0.00  0.00    +0.000 A 
ATOM     15  C   UNL     1       0.911   8.909  21.549  0.00  0.00    +0.000 A 
ATOM     16  C   UNL     1       1.592   7.986  20.753  0.00  0.00    +0.000 A 
ATOM     17  C   UNL     1       1.794   8.207  19.384  0.00  0.00    +0.000 A 
ATOM     18  C   UNL     1       1.322   9.404  18.833  0.00  0.00    +0.000 A 
ATOM     19  C   UNL     1       0.635  10.334  19.628  0.00  0.00    +0.000 A 
BRANCH  14  21
ATOM     20  F   UNL     1      -1.576  11.354  21.443  0.00  0.00    +0.000 F 
ATOM     21  C   UNL     1      -0.298  11.109  21.850  0.00  0.00    +0.000 C 
ATOM     22  F   UNL     1       0.324  12.320  21.870  0.00  0.00    +0.000 F 
ATOM     23  F   UNL     1      -0.393  10.715  23.151  0.00  0.00    +0.000 F 
ENDBRANCH  14  21
ENDBRANCH   1  17
BRANCH  11  24
ATOM     24  C   UNL     1       5.171   5.315  16.115  0.00  0.00    +0.000 A 
ATOM     25  C   UNL     1       4.493   4.343  15.368  0.00  0.00    +0.000 A 
ATOM     26  C   UNL     1       5.034   3.829  14.187  0.00  0.00    +0.000 A 
ATOM     27  C   UNL     1       6.281   4.260  13.736  0.00  0.00    +0.000 A 
ATOM     28  C   UNL     1       7.011   5.155  14.530  0.00  0.00    +0.000 A 
ATOM     29  C   UNL     1       6.458   5.681  15.706  0.00  0.00    +0.000 A 
BRANCH  27  30
ATOM     30  C   UNL     1       6.811   3.804  12.395  0.00  0.00    +0.000 C 
ATOM     31  F   UNL     1       5.842   3.659  11.446  0.00  0.00    +0.000 F 
ATOM     32  F   UNL     1       7.704   4.691  11.872  0.00  0.00    +0.000 F 
ATOM     33  F   UNL     1       7.460   2.611  12.453  0.00  0.00    +0.000 F 
ENDBRANCH  27  30
ENDBRANCH  11  24
TORSDOF 4
ENDMDL
MODEL 5
REMARK VINA RESULT:      -9.1      5.197     11.824
REMARK  Name = 
REMARK  4 active torsions:
REMARK  status: ('A' for Active; 'I' for Inactive)
REMARK    1  A    between atoms: C_2  and  C_5
REMARK    2  A    between atoms: C_8  and  N_9
REMARK    3  A    between atoms: N_19  and  C_20
REMARK    4  A    between atoms: C_23  and  C_24
REMARK                            x       y       z     vdW  Elec       q    Type
REMARK                         _______ _______ _______ _____ _____    ______ ____
ROOT
ATOM      1  N   UNL     1      -0.050  10.378  20.310  0.00  0.00    +0.000 N 
ATOM      2  C   UNL     1       0.357  11.659  20.799  0.00  0.00    +0.000 A 
ATOM      3  N   UNL     1       1.542  12.159  20.350  0.00  0.00    +0.000 NA
ATOM      4  C   UNL     1       1.787  13.403  20.831  0.00  0.00    +0.000 A 
ATOM      5  N   UNL     1       2.848  14.161  20.555  0.00  0.00    +0.000 NA
ATOM      6  O   UNL     1       2.633  15.337  21.275  0.00  0.00    +0.000 OA
ATOM      7  N   UNL     1       1.440  15.302  21.995  0.00  0.00    +0.000 NA
ATOM      8  C   UNL     1       0.912  14.108  21.718  0.00  0.00    +0.000 A 
ATOM      9  N   UNL     1      -0.264  13.613  22.179  0.00  0.00    +0.000 NA
ATOM     10  C   UNL     1      -0.522  12.365  21.699  0.00  0.00    +0.000 A 
ATOM     11  N   UNL     1      -1.737  11.737  22.084  0.00  0.00    +0.000 N 
ATOM     12  H   UNL     1      -0.908  10.495  19.777  0.00  0.00    +0.000 HD
ATOM     13  H   UNL     1      -1.585  10.797  22.437  0.00  0.00    +0.000 HD
ENDROOT
BRANCH   1  17
ATOM     14  C   UNL     1       2.538   7.480  18.585  0.00  0.00    +0.000 A 
ATOM     15  C   UNL     1       2.200   7.422  19.940  0.00  0.00    +0.000 A 
ATOM     16  C   UNL     1       1.353   8.382  20.498  0.00  0.00    +0.000 A 
ATOM     17  C   UNL     1       0.834   9.434  19.732  0.00  0.00    +0.000 A 
ATOM     18  C   UNL     1       1.160   9.483  18.372  0.00  0.00    +0.000 A 
ATOM     19  C   UNL     1       2.012   8.522  17.806  0.00  0.00    +0.000 A 
BRANCH  14  21
ATOM     20  F   UNL     1       4.168   6.901  16.913  0.00  0.00    +0.000 F 
ATOM     21  C   UNL     1       3.440   6.438  17.968  0.00  0.00    +0.000 C 
ATOM     22  F   UNL     1       2.753   5.359  17.501  0.00  0.00    +0.000 F 
ATOM     23  F   UNL     1       4.348   5.947  18.858  0.00  0.00    +0.000 F 
ENDBRANCH  14  21
ENDBRANCH   1  17
BRANCH  11  24
ATOM     24  C   UNL     1      -2.922  12.371  22.511  0.00  0.00    +0.000 A 
ATOM     25  C   UNL     1      -3.768  13.006  21.592  0.00  0.00    +0.000 A 
ATOM     26  C   UNL     1      -5.015  13.502  21.978  0.00  0.00    +0.000 A 
ATOM     27  C   UNL     1      -5.438  13.395  23.302  0.00  0.00    +0.000 A 
ATOM     28  C   UNL     1      -4.558  12.853  24.249  0.00  0.00    +0.000 A 
ATOM     29  C   UNL     1      -3.313  12.341  23.854  0.00  0.00    +0.000 A 
BRANCH  27  30
ATOM     30  C   UNL     1      -6.837  13.814  23.697  0.00  0.00    +0.000 C 
ATOM     31  F   UNL     1      -6.890  15.036  24.299  0.00  0.00    +0.000 F 
ATOM     32  F   UNL     1      -7.667  13.901  22.619  0.00  0.00    +0.000 F 
ATOM     33  F   UNL     1      -7.432  12.946  24.558  0.00  0.00    +0.000 F 
ENDBRANCH  27  30
ENDBRANCH  11  24
TORSDOF 4
ENDMDL
MODEL 6
REMARK VINA RESULT:      -9.0      4.258     11.239
REMARK  Name = 
REMARK  4 active torsions:
REMARK  status: ('A' for Active; 'I' for Inactive)
REMARK    1  A    between atoms: C_2  and  C_5
REMARK    2  A    between atoms: C_8  and  N_9
REMARK    3  A    between atoms: N_19  and  C_20
REMARK    4  A    between atoms: C_23  and  C_24
REMARK                            x       y       z     vdW  Elec       q    Type
REMARK                         _______ _______ _______ _____ _____    ______ ____
ROOT
ATOM      1  N   UNL     1       0.925   9.401  19.860  0.00  0.00    +0.000 N 
ATOM      2  C   UNL     1      -0.166  10.054  19.205  0.00  0.00    +0.000 A 
ATOM      3  N   UNL     1      -0.617   9.513  18.039  0.00  0.00    +0.000 NA
ATOM      4  C   UNL     1      -1.692  10.180  17.548  0.00  0.00    +0.000 A 
ATOM      5  N   UNL     1      -2.370   9.878  16.441  0.00  0.00    +0.000 NA
ATOM      6  O   UNL     1      -3.377  10.841  16.377  0.00  0.00    +0.000 OA
ATOM      7  N   UNL     1      -3.319  11.737  17.443  0.00  0.00    +0.000 NA
ATOM      8  C   UNL     1      -2.279  11.326  18.173  0.00  0.00    +0.000 A 
ATOM      9  N   UNL     1      -1.829  11.878  19.329  0.00  0.00    +0.000 NA
ATOM     10  C   UNL     1      -0.752  11.214  19.832  0.00  0.00    +0.000 A 
ATOM     11  N   UNL     1      -0.193  11.673  21.055  0.00  0.00    +0.000 N 
ATOM     12  H   UNL     1       0.601   9.059  20.761  0.00  0.00    +0.000 HD
ATOM     13  H   UNL     1       0.811  11.803  20.990  0.00  0.00    +0.000 HD
ENDROOT
BRANCH   1  17
ATOM     14  C   UNL     1       3.518   6.652  17.912  0.00  0.00    +0.000 A 
ATOM     15  C   UNL     1       2.943   6.342  19.148  0.00  0.00    +0.000 A 
ATOM     16  C   UNL     1       2.097   7.254  19.782  0.00  0.00    +0.000 A 
ATOM     17  C   UNL     1       1.813   8.505  19.216  0.00  0.00    +0.000 A 
ATOM     18  C   UNL     1       2.375   8.808  17.970  0.00  0.00    +0.000 A 
ATOM     19  C   UNL     1       3.227   7.896  17.330  0.00  0.00    +0.000 A 
BRANCH  14  21
ATOM     20  F   UNL     1       3.808   4.487  16.904  0.00  0.00    +0.000 F 
ATOM     21  C   UNL     1       4.420   5.666  17.210  0.00  0.00    +0.000 C 
ATOM     22  F   UNL     1       5.515   5.336  17.950  0.00  0.00    +0.000 F 
ATOM     23  F   UNL     1       4.899   6.152  16.030  0.00  0.00    +0.000 F 
ENDBRANCH  14  21
ENDBRANCH   1  17
BRANCH  11  24
ATOM     24  C   UNL     1      -0.846  12.415  22.060  0.00  0.00    +0.000 A 
ATOM     25  C   UNL     1      -0.405  13.699  22.406  0.00  0.00    +0.000 A 
ATOM     26  C   UNL     1      -1.132  14.502  23.287  0.00  0.00    +0.000 A 
ATOM     27  C   UNL     1      -2.309  14.030  23.865  0.00  0.00    +0.000 A 
ATOM     28  C   UNL     1      -2.704  12.710  23.606  0.00  0.00    +0.000 A 
ATOM     29  C   UNL     1      -1.981  11.913  22.707  0.00  0.00    +0.000 A 
BRANCH  27  30
ATOM     30  C   UNL     1      -3.166  14.940  24.717  0.00  0.00    +0.000 C 
ATOM     31  F   UNL     1      -4.504  14.788  24.501  0.00  0.00    +0.000 F 
ATOM     32  F   UNL     1      -2.982  14.713  26.049  0.00  0.00    +0.000 F 
ATOM     33  F   UNL     1      -2.903  16.260  24.523  0.00  0.00    +0.000 F 
ENDBRANCH  27  30
ENDBRANCH  11  24
TORSDOF 4
ENDMDL
MODEL 7
REMARK VINA RESULT:      -9.0      4.543     11.388
REMARK  Name = 
REMARK  4 active torsions:
REMARK  status: ('A' for Active; 'I' for Inactive)
REMARK    1  A    between atoms: C_2  and  C_5
REMARK    2  A    between atoms: C_8  and  N_9
REMARK    3  A    between atoms: N_19  and  C_20
REMARK    4  A    between atoms: C_23  and  C_24
REMARK                            x       y       z     vdW  Elec       q    Type
REMARK                         _______ _______ _______ _____ _____    ______ ____
ROOT
ATOM      1  N   UNL     1       0.552   9.779  19.949  0.00  0.00    +0.000 N 
ATOM      2  C   UNL     1      -0.589  10.329  19.284  0.00  0.00    +0.000 A 
ATOM      3  N   UNL     1      -1.063   9.668  18.193  0.00  0.00    +0.000 NA
ATOM      4  C   UNL     1      -2.182  10.247  17.690  0.00  0.00    +0.000 A 
ATOM      5  N   UNL     1      -2.890   9.821  16.644  0.00  0.00    +0.000 NA
ATOM      6  O   UNL     1      -3.937  10.737  16.536  0.00  0.00    +0.000 OA
ATOM      7  N   UNL     1      -3.873  11.728  17.514  0.00  0.00    +0.000 NA
ATOM      8  C   UNL     1      -2.790  11.424  18.233  0.00  0.00    +0.000 A 
ATOM      9  N   UNL     1      -2.317  12.095  19.314  0.00  0.00    +0.000 NA
ATOM     10  C   UNL     1      -1.196  11.520  19.828  0.00  0.00    +0.000 A 
ATOM     11  N   UNL     1      -0.608  12.109  20.980  0.00  0.00    +0.000 N 
ATOM     12  H   UNL     1       0.278   9.510  20.890  0.00  0.00    +0.000 HD
ATOM     13  H   UNL     1       0.387  12.269  20.862  0.00  0.00    +0.000 HD
ENDROOT
BRANCH   1  17
ATOM     14  C   UNL     1       3.174   6.959  18.146  0.00  0.00    +0.000 A 
ATOM     15  C   UNL     1       2.637   6.729  19.416  0.00  0.00    +0.000 A 
ATOM     16  C   UNL     1       1.781   7.664  20.001  0.00  0.00    +0.000 A 
ATOM     17  C   UNL     1       1.449   8.860  19.351  0.00  0.00    +0.000 A 
ATOM     18  C   UNL     1       1.973   9.083  18.073  0.00  0.00    +0.000 A 
ATOM     19  C   UNL     1       2.835   8.148  17.481  0.00  0.00    +0.000 A 
BRANCH  14  21
ATOM     20  F   UNL     1       4.626   6.374  16.320  0.00  0.00    +0.000 F 
ATOM     21  C   UNL     1       4.087   5.947  17.497  0.00  0.00    +0.000 C 
ATOM     22  F   UNL     1       3.456   4.774  17.214  0.00  0.00    +0.000 F 
ATOM     23  F   UNL     1       5.145   5.621  18.291  0.00  0.00    +0.000 F 
ENDBRANCH  14  21
ENDBRANCH   1  17
BRANCH  11  24
ATOM     24  C   UNL     1      -1.251  12.916  21.942  0.00  0.00    +0.000 A 
ATOM     25  C   UNL     1      -2.267  12.396  22.754  0.00  0.00    +0.000 A 
ATOM     26  C   UNL     1      -2.803  13.137  23.809  0.00  0.00    +0.000 A 
ATOM     27  C   UNL     1      -2.350  14.430  24.064  0.00  0.00    +0.000 A 
ATOM     28  C   UNL     1      -1.407  14.997  23.195  0.00  0.00    +0.000 A 
ATOM     29  C   UNL     1      -0.860  14.244  22.147  0.00  0.00    +0.000 A 
BRANCH  27  30
ATOM     30  C   UNL     1      -2.834  15.187  25.281  0.00  0.00    +0.000 C 
ATOM     31  F   UNL     1      -4.010  15.847  25.080  0.00  0.00    +0.000 F 
ATOM     32  F   UNL     1      -3.056  14.359  26.341  0.00  0.00    +0.000 F 
ATOM     33  F   UNL     1      -1.949  16.123  25.717  0.00  0.00    +0.000 F 
ENDBRANCH  27  30
ENDBRANCH  11  24
TORSDOF 4
ENDMDL
MODEL 8
REMARK VINA RESULT:      -9.0      5.217      7.592
REMARK  Name = 
REMARK  4 active torsions:
REMARK  status: ('A' for Active; 'I' for Inactive)
REMARK    1  A    between atoms: C_2  and  C_5
REMARK    2  A    between atoms: C_8  and  N_9
REMARK    3  A    between atoms: N_19  and  C_20
REMARK    4  A    between atoms: C_23  and  C_24
REMARK                            x       y       z     vdW  Elec       q    Type
REMARK                         _______ _______ _______ _____ _____    ______ ____
ROOT
ATOM      1  N   UNL     1      -1.796  11.795  21.659  0.00  0.00    +0.000 N 
ATOM      2  C   UNL     1      -0.560  12.475  21.418  0.00  0.00    +0.000 A 
ATOM      3  N   UNL     1      -0.357  13.660  22.056  0.00  0.00    +0.000 NA
ATOM      4  C   UNL     1       0.871  14.175  21.800  0.00  0.00    +0.000 A 
ATOM      5  N   UNL     1       1.372  15.306  22.295  0.00  0.00    +0.000 NA
ATOM      6  O   UNL     1       2.653  15.390  21.747  0.00  0.00    +0.000 OA
ATOM      7  N   UNL     1       2.940  14.310  20.913  0.00  0.00    +0.000 NA
ATOM      8  C   UNL     1       1.840  13.554  20.948  0.00  0.00    +0.000 A 
ATOM      9  N   UNL     1       1.641  12.379  20.299  0.00  0.00    +0.000 NA
ATOM     10  C   UNL     1       0.411  11.852  20.552  0.00  0.00    +0.000 A 
ATOM     11  N   UNL     1       0.080  10.606  19.954  0.00  0.00    +0.000 N 
ATOM     12  H   UNL     1      -1.592  10.909  22.114  0.00  0.00    +0.000 HD
ATOM     13  H   UNL     1      -0.816  10.639  19.478  0.00  0.00    +0.000 HD
ENDROOT
BRANCH   1  17
ATOM     14  C   UNL     1      -5.335  13.615  23.156  0.00  0.00    +0.000 A 
ATOM     15  C   UNL     1      -5.039  13.640  21.789  0.00  0.00    +0.000 A 
ATOM     16  C   UNL     1      -3.872  13.044  21.309  0.00  0.00    +0.000 A 
ATOM     17  C   UNL     1      -2.958  12.423  22.171  0.00  0.00    +0.000 A 
ATOM     18  C   UNL     1      -3.262  12.384  23.537  0.00  0.00    +0.000 A 
ATOM     19  C   UNL     1      -4.433  12.983  24.025  0.00  0.00    +0.000 A 
BRANCH  14  21
ATOM     20  F   UNL     1      -7.535  14.483  22.719  0.00  0.00    +0.000 F 
ATOM     21  C   UNL     1      -6.602  14.242  23.684  0.00  0.00    +0.000 C 
ATOM     22  F   UNL     1      -6.382  15.438  24.296  0.00  0.00    +0.000 F 
ATOM     23  F   UNL     1      -7.222  13.456  24.609  0.00  0.00    +0.000 F 
ENDBRANCH  14  21
ENDBRANCH   1  17
BRANCH  11  24
ATOM     24  C   UNL     1       0.977   9.612  19.512  0.00  0.00    +0.000 A 
ATOM     25  C   UNL     1       1.340   8.548  20.349  0.00  0.00    +0.000 A 
ATOM     26  C   UNL     1       2.102   7.480  19.874  0.00  0.00    +0.000 A 
ATOM     27  C   UNL     1       2.542   7.460  18.551  0.00  0.00    +0.000 A 
ATOM     28  C   UNL     1       2.271   8.567  17.735  0.00  0.00    +0.000 A 
ATOM     29  C   UNL     1       1.491   9.630  18.211  0.00  0.00    +0.000 A 
BRANCH  27  30
ATOM     30  C   UNL     1       3.257   6.247  17.998  0.00  0.00    +0.000 C 
ATOM     31  F   UNL     1       4.102   5.658  18.892  0.00  0.00    +0.000 F 
ATOM     32  F   UNL     1       2.385   5.269  17.621  0.00  0.00    +0.000 F 
ATOM     33  F   UNL     1       4.008   6.523  16.899  0.00  0.00    +0.000 F 
ENDBRANCH  27  30
ENDBRANCH  11  24
TORSDOF 4
ENDMDL
MODEL 9
REMARK VINA RESULT:      -8.9      4.261     11.202
REMARK  Name = 
REMARK  4 active torsions:
REMARK  status: ('A' for Active; 'I' for Inactive)
REMARK    1  A    between atoms: C_2  and  C_5
REMARK    2  A    between atoms: C_8  and  N_9
REMARK    3  A    between atoms: N_19  and  C_20
REMARK    4  A    between atoms: C_23  and  C_24
REMARK                            x       y       z     vdW  Elec       q    Type
REMARK                         _______ _______ _______ _____ _____    ______ ____
ROOT
ATOM      1  N   UNL     1       0.899   9.365  19.856  0.00  0.00    +0.000 N 
ATOM      2  C   UNL     1      -0.193  10.028  19.212  0.00  0.00    +0.000 A 
ATOM      3  N   UNL     1      -0.665   9.489  18.054  0.00  0.00    +0.000 NA
ATOM      4  C   UNL     1      -1.738  10.166  17.574  0.00  0.00    +0.000 A 
ATOM      5  N   UNL     1      -2.432   9.869  16.477  0.00  0.00    +0.000 NA
ATOM      6  O   UNL     1      -3.429  10.844  16.421  0.00  0.00    +0.000 OA
ATOM      7  N   UNL     1      -3.347  11.742  17.484  0.00  0.00    +0.000 NA
ATOM      8  C   UNL     1      -2.303  11.322  18.202  0.00  0.00    +0.000 A 
ATOM      9  N   UNL     1      -1.832  11.872  19.350  0.00  0.00    +0.000 NA
ATOM     10  C   UNL     1      -0.757  11.197  19.842  0.00  0.00    +0.000 A 
ATOM     11  N   UNL     1      -0.178  11.653  21.056  0.00  0.00    +0.000 N 
ATOM     12  H   UNL     1       0.582   9.030  20.762  0.00  0.00    +0.000 HD
ATOM     13  H   UNL     1       0.827  11.771  20.979  0.00  0.00    +0.000 HD
ENDROOT
BRANCH   1  17
ATOM     14  C   UNL     1       3.576   6.692  17.916  0.00  0.00    +0.000 A 
ATOM     15  C   UNL     1       3.249   7.923  17.339  0.00  0.00    +0.000 A 
ATOM     16  C   UNL     1       2.365   8.791  17.982  0.00  0.00    +0.000 A 
ATOM     17  C   UNL     1       1.767   8.455  19.204  0.00  0.00    +0.000 A 
ATOM     18  C   UNL     1       2.107   7.230  19.790  0.00  0.00    +0.000 A 
ATOM     19  C   UNL     1       2.994   6.353  19.147  0.00  0.00    +0.000 A 
BRANCH  14  21
ATOM     20  F   UNL     1       5.635   5.451  17.997  0.00  0.00    +0.000 F 
ATOM     21  C   UNL     1       4.544   5.753  17.237  0.00  0.00    +0.000 C 
ATOM     22  F   UNL     1       5.032   6.255  16.069  0.00  0.00    +0.000 F 
ATOM     23  F   UNL     1       3.970   4.558  16.922  0.00  0.00    +0.000 F 
ENDBRANCH  14  21
ENDBRANCH   1  17
BRANCH  11  24
ATOM     24  C   UNL     1      -0.810  12.407  22.067  0.00  0.00    +0.000 A 
ATOM     25  C   UNL     1      -0.386  13.709  22.363  0.00  0.00    +0.000 A 
ATOM     26  C   UNL     1      -1.097  14.519  23.251  0.00  0.00    +0.000 A 
ATOM     27  C   UNL     1      -2.240  14.035  23.885  0.00  0.00    +0.000 A 
ATOM     28  C   UNL     1      -2.615  12.701  23.674  0.00  0.00    +0.000 A 
ATOM     29  C   UNL     1      -1.907  11.897  22.769  0.00  0.00    +0.000 A 
BRANCH  27  30
ATOM     30  C   UNL     1      -3.085  14.948  24.746  0.00  0.00    +0.000 C 
ATOM     31  F   UNL     1      -2.783  16.270  24.598  0.00  0.00    +0.000 F 
ATOM     32  F   UNL     1      -4.412  14.841  24.454  0.00  0.00    +0.000 F 
ATOM     33  F   UNL     1      -2.972  14.686  26.076  0.00  0.00    +0.000 F 
ENDBRANCH  27  30
ENDBRANCH  11  24
TORSDOF 4
ENDMDL
