MODEL 1
REMARK VINA RESULT:      -6.7      0.000      0.000
REMARK  Name = 
REMARK  8 active torsions:
REMARK  status: ('A' for Active; 'I' for Inactive)
REMARK    1  A    between atoms: C_1  and  C_2
REMARK    2  A    between atoms: C_2  and  O_3
REMARK    3  A    between atoms: O_3  and  C_4
REMARK    4  A    between atoms: C_4  and  C_6
REMARK    5  A    between atoms: C_6  and  C_7
REMARK    6  A    between atoms: C_17  and  N_18
REMARK    7  A    between atoms: N_18  and  C_19
REMARK    8  A    between atoms: N_18  and  C_20
REMARK                            x       y       z     vdW  Elec       q    Type
REMARK                         _______ _______ _______ _____ _____    ______ ____
ROOT
ATOM      1  C   UNL     1       3.981   4.754  18.405  0.00  0.00    +0.000 C 
ATOM      2  C   UNL     1       3.242   6.113  18.648  0.00  0.00    +0.000 C 
ATOM      3  C   UNL     1       2.638   6.291  20.038  0.00  0.00    +0.000 C 
ATOM      4  C   UNL     1       2.296   5.017  20.745  0.00  0.00    +0.000 C 
ATOM      5  C   UNL     1       2.439   3.801  20.186  0.00  0.00    +0.000 C 
ATOM      6  C   UNL     1       2.953   3.564  18.764  0.00  0.00    +0.000 C 
ENDROOT
BRANCH   1   7
ATOM      7  C   UNL     1       4.647   4.894  17.011  0.00  0.00    +0.000 A 
ATOM      8  C   UNL     1       4.787   6.092  16.303  0.00  0.00    +0.000 A 
ATOM      9  C   UNL     1       5.460   6.107  15.068  0.00  0.00    +0.000 A 
ATOM     10  C   UNL     1       6.004   4.941  14.523  0.00  0.00    +0.000 A 
ATOM     11  C   UNL     1       5.854   3.739  15.194  0.00  0.00    +0.000 A 
ATOM     12  C   UNL     1       5.177   3.718  16.411  0.00  0.00    +0.000 A 
ENDBRANCH   1   7
BRANCH   6  13
ATOM     13  N   UNL     1       1.808   3.156  17.880  0.00  0.00    +0.000 NA
ATOM     14  C   UNL     1       1.052   4.245  17.265  0.00  0.00    +0.000 C 
ATOM     15  C   UNL     1       0.864   2.278  18.603  0.00  0.00    +0.000 C 
ENDBRANCH   6  13
BRANCH   1  16
ATOM     16  C   UNL     1       5.159   4.469  19.392  0.00  0.00    +0.000 C 
ATOM     17  O   UNL     1       5.384   3.368  19.890  0.00  0.00    +0.000 OA
BRANCH  16  18
ATOM     18  O   UNL     1       5.883   5.581  19.700  0.00  0.00    +0.000 OA
BRANCH  18  20
ATOM     19  C   UNL     1       7.722   6.543  18.402  0.00  0.00    +0.000 C 
ATOM     20  C   UNL     1       7.286   5.495  19.405  0.00  0.00    +0.000 C 
ENDBRANCH  18  20
ENDBRANCH  16  18
ENDBRANCH   1  16
TORSDOF 5
ENDMDL
MODEL 2
REMARK VINA RESULT:      -6.6      2.130      5.274
REMARK  Name = 
REMARK  8 active torsions:
REMARK  status: ('A' for Active; 'I' for Inactive)
REMARK    1  A    between atoms: C_1  and  C_2
REMARK    2  A    between atoms: C_2  and  O_3
REMARK    3  A    between atoms: O_3  and  C_4
REMARK    4  A    between atoms: C_4  and  C_6
REMARK    5  A    between atoms: C_6  and  C_7
REMARK    6  A    between atoms: C_17  and  N_18
REMARK    7  A    between atoms: N_18  and  C_19
REMARK    8  A    between atoms: N_18  and  C_20
REMARK                            x       y       z     vdW  Elec       q    Type
REMARK                         _______ _______ _______ _____ _____    ______ ____
ROOT
ATOM      1  C   UNL     1       4.704   5.518  17.463  0.00  0.00    +0.000 C 
ATOM      2  C   UNL     1       4.894   6.120  16.031  0.00  0.00    +0.000 C 
ATOM      3  C   UNL     1       5.772   5.304  15.086  0.00  0.00    +0.000 C 
ATOM      4  C   UNL     1       6.777   4.424  15.763  0.00  0.00    +0.000 C 
ATOM      5  C   UNL     1       6.955   4.396  17.097  0.00  0.00    +0.000 C 
ATOM      6  C   UNL     1       6.168   5.258  18.087  0.00  0.00    +0.000 C 
ENDROOT
BRANCH   1   7
ATOM      7  C   UNL     1       3.648   6.422  18.151  0.00  0.00    +0.000 A 
ATOM      8  C   UNL     1       3.064   6.173  19.397  0.00  0.00    +0.000 A 
ATOM      9  C   UNL     1       2.156   7.096  19.947  0.00  0.00    +0.000 A 
ATOM     10  C   UNL     1       1.820   8.273  19.274  0.00  0.00    +0.000 A 
ATOM     11  C   UNL     1       2.365   8.527  18.027  0.00  0.00    +0.000 A 
ATOM     12  C   UNL     1       3.255   7.610  17.473  0.00  0.00    +0.000 A 
ENDBRANCH   1   7
BRANCH   6  13
ATOM     13  N   UNL     1       7.057   6.351  18.611  0.00  0.00    +0.000 NA
ATOM     14  C   UNL     1       7.620   7.256  17.611  0.00  0.00    +0.000 C 
ATOM     15  C   UNL     1       8.163   5.797  19.419  0.00  0.00    +0.000 C 
ENDBRANCH   6  13
BRANCH   1  16
ATOM     16  C   UNL     1       4.087   4.081  17.486  0.00  0.00    +0.000 C 
ATOM     17  O   UNL     1       3.260   3.678  16.671  0.00  0.00    +0.000 OA
BRANCH  16  18
ATOM     18  O   UNL     1       4.509   3.332  18.543  0.00  0.00    +0.000 OA
BRANCH  18  20
ATOM     19  C   UNL     1       2.680   2.563  19.975  0.00  0.00    +0.000 C 
ATOM     20  C   UNL     1       3.664   2.220  18.877  0.00  0.00    +0.000 C 
ENDBRANCH  18  20
ENDBRANCH  16  18
ENDBRANCH   1  16
TORSDOF 5
ENDMDL
MODEL 3
REMARK VINA RESULT:      -6.6      0.113      1.081
REMARK  Name = 
REMARK  8 active torsions:
REMARK  status: ('A' for Active; 'I' for Inactive)
REMARK    1  A    between atoms: C_1  and  C_2
REMARK    2  A    between atoms: C_2  and  O_3
REMARK    3  A    between atoms: O_3  and  C_4
REMARK    4  A    between atoms: C_4  and  C_6
REMARK    5  A    between atoms: C_6  and  C_7
REMARK    6  A    between atoms: C_17  and  N_18
REMARK    7  A    between atoms: N_18  and  C_19
REMARK    8  A    between atoms: N_18  and  C_20
REMARK                            x       y       z     vdW  Elec       q    Type
REMARK                         _______ _______ _______ _____ _____    ______ ____
ROOT
ATOM      1  C   UNL     1       4.030   4.713  18.375  0.00  0.00    +0.000 C 
ATOM      2  C   UNL     1       3.335   6.109  18.512  0.00  0.00    +0.000 C 
ATOM      3  C   UNL     1       2.695   6.393  19.868  0.00  0.00    +0.000 C 
ATOM      4  C   UNL     1       2.285   5.177  20.639  0.00  0.00    +0.000 C 
ATOM      5  C   UNL     1       2.400   3.925  20.159  0.00  0.00    +0.000 C 
ATOM      6  C   UNL     1       2.949   3.583  18.772  0.00  0.00    +0.000 C 
ENDROOT
BRANCH   1   7
ATOM      7  C   UNL     1       4.743   4.744  16.998  0.00  0.00    +0.000 A 
ATOM      8  C   UNL     1       5.285   3.631  16.346  0.00  0.00    +0.000 A 
ATOM      9  C   UNL     1       5.860   3.772  15.071  0.00  0.00    +0.000 A 
ATOM     10  C   UNL     1       5.904   5.011  14.426  0.00  0.00    +0.000 A 
ATOM     11  C   UNL     1       5.399   6.131  15.064  0.00  0.00    +0.000 A 
ATOM     12  C   UNL     1       4.839   5.998  16.333  0.00  0.00    +0.000 A 
ENDBRANCH   1   7
BRANCH   6  13
ATOM     13  N   UNL     1       1.817   3.163  17.877  0.00  0.00    +0.000 NA
ATOM     14  C   UNL     1       1.065   4.243  17.241  0.00  0.00    +0.000 C 
ATOM     15  C   UNL     1       0.866   2.289  18.596  0.00  0.00    +0.000 C 
ENDBRANCH   6  13
BRANCH   1  16
ATOM     16  C   UNL     1       5.166   4.448  19.416  0.00  0.00    +0.000 C 
ATOM     17  O   UNL     1       5.370   3.358  19.945  0.00  0.00    +0.000 OA
BRANCH  16  18
ATOM     18  O   UNL     1       5.877   5.567  19.732  0.00  0.00    +0.000 OA
BRANCH  18  20
ATOM     19  C   UNL     1       7.724   6.508  18.431  0.00  0.00    +0.000 C 
ATOM     20  C   UNL     1       7.285   5.489  19.462  0.00  0.00    +0.000 C 
ENDBRANCH  18  20
ENDBRANCH  16  18
ENDBRANCH   1  16
TORSDOF 5
ENDMDL
MODEL 4
REMARK VINA RESULT:      -6.5      2.121      5.367
REMARK  Name = 
REMARK  8 active torsions:
REMARK  status: ('A' for Active; 'I' for Inactive)
REMARK    1  A    between atoms: C_1  and  C_2
REMARK    2  A    between atoms: C_2  and  O_3
REMARK    3  A    between atoms: O_3  and  C_4
REMARK    4  A    between atoms: C_4  and  C_6
REMARK    5  A    between atoms: C_6  and  C_7
REMARK    6  A    between atoms: C_17  and  N_18
REMARK    7  A    between atoms: N_18  and  C_19
REMARK    8  A    between atoms: N_18  and  C_20
REMARK                            x       y       z     vdW  Elec       q    Type
REMARK                         _______ _______ _______ _____ _____    ______ ____
ROOT
ATOM      1  C   UNL     1       4.761   5.451  17.616  0.00  0.00    +0.000 C 
ATOM      2  C   UNL     1       4.823   5.866  16.107  0.00  0.00    +0.000 C 
ATOM      3  C   UNL     1       5.704   4.988  15.221  0.00  0.00    +0.000 C 
ATOM      4  C   UNL     1       6.809   4.277  15.938  0.00  0.00    +0.000 C 
ATOM      5  C   UNL     1       7.065   4.442  17.250  0.00  0.00    +0.000 C 
ATOM      6  C   UNL     1       6.275   5.376  18.168  0.00  0.00    +0.000 C 
ENDROOT
BRANCH   1   7
ATOM      7  C   UNL     1       3.682   6.369  18.248  0.00  0.00    +0.000 A 
ATOM      8  C   UNL     1       3.066   6.153  19.485  0.00  0.00    +0.000 A 
ATOM      9  C   UNL     1       2.139   7.085  19.983  0.00  0.00    +0.000 A 
ATOM     10  C   UNL     1       1.814   8.240  19.268  0.00  0.00    +0.000 A 
ATOM     11  C   UNL     1       2.390   8.461  18.029  0.00  0.00    +0.000 A 
ATOM     12  C   UNL     1       3.300   7.533  17.526  0.00  0.00    +0.000 A 
ENDBRANCH   1   7
BRANCH   6  13
ATOM     13  N   UNL     1       7.108   6.587  18.484  0.00  0.00    +0.000 NA
ATOM     14  C   UNL     1       7.562   7.370  17.337  0.00  0.00    +0.000 C 
ATOM     15  C   UNL     1       8.284   6.225  19.303  0.00  0.00    +0.000 C 
ENDBRANCH   6  13
BRANCH   1  16
ATOM     16  C   UNL     1       4.255   3.994  17.869  0.00  0.00    +0.000 C 
ATOM     17  O   UNL     1       4.741   3.236  18.705  0.00  0.00    +0.000 OA
BRANCH  16  18
ATOM     18  O   UNL     1       3.256   3.618  17.023  0.00  0.00    +0.000 OA
BRANCH  18  20
ATOM     19  C   UNL     1       1.255   3.216  18.373  0.00  0.00    +0.000 C 
ATOM     20  C   UNL     1       2.367   2.616  17.539  0.00  0.00    +0.000 C 
ENDBRANCH  18  20
ENDBRANCH  16  18
ENDBRANCH   1  16
TORSDOF 5
ENDMDL
MODEL 5
REMARK VINA RESULT:      -6.4      2.116      5.217
REMARK  Name = 
REMARK  8 active torsions:
REMARK  status: ('A' for Active; 'I' for Inactive)
REMARK    1  A    between atoms: C_1  and  C_2
REMARK    2  A    between atoms: C_2  and  O_3
REMARK    3  A    between atoms: O_3  and  C_4
REMARK    4  A    between atoms: C_4  and  C_6
REMARK    5  A    between atoms: C_6  and  C_7
REMARK    6  A    between atoms: C_17  and  N_18
REMARK    7  A    between atoms: N_18  and  C_19
REMARK    8  A    between atoms: N_18  and  C_20
REMARK                            x       y       z     vdW  Elec       q    Type
REMARK                         _______ _______ _______ _____ _____    ______ ____
ROOT
ATOM      1  C   UNL     1       4.704   5.572  17.448  0.00  0.00    +0.000 C 
ATOM      2  C   UNL     1       4.915   6.152  16.009  0.00  0.00    +0.000 C 
ATOM      3  C   UNL     1       5.771   5.299  15.077  0.00  0.00    +0.000 C 
ATOM      4  C   UNL     1       6.750   4.400  15.767  0.00  0.00    +0.000 C 
ATOM      5  C   UNL     1       6.924   4.384  17.101  0.00  0.00    +0.000 C 
ATOM      6  C   UNL     1       6.159   5.280  18.079  0.00  0.00    +0.000 C 
ENDROOT
BRANCH   1   7
ATOM      7  C   UNL     1       3.672   6.514  18.121  0.00  0.00    +0.000 A 
ATOM      8  C   UNL     1       3.178   7.698  17.563  0.00  0.00    +0.000 A 
ATOM      9  C   UNL     1       2.201   8.444  18.244  0.00  0.00    +0.000 A 
ATOM     10  C   UNL     1       1.699   8.029  19.480  0.00  0.00    +0.000 A 
ATOM     11  C   UNL     1       2.193   6.875  20.065  0.00  0.00    +0.000 A 
ATOM     12  C   UNL     1       3.171   6.139  19.399  0.00  0.00    +0.000 A 
ENDBRANCH   1   7
BRANCH   6  13
ATOM     13  N   UNL     1       7.077   6.354  18.592  0.00  0.00    +0.000 NA
ATOM     14  C   UNL     1       7.642   7.251  17.585  0.00  0.00    +0.000 C 
ATOM     15  C   UNL     1       8.184   5.776  19.381  0.00  0.00    +0.000 C 
ENDBRANCH   6  13
BRANCH   1  16
ATOM     16  C   UNL     1       4.047   4.154  17.487  0.00  0.00    +0.000 C 
ATOM     17  O   UNL     1       3.158   3.790  16.720  0.00  0.00    +0.000 OA
BRANCH  16  18
ATOM     18  O   UNL     1       4.514   3.374  18.501  0.00  0.00    +0.000 OA
BRANCH  18  20
ATOM     19  C   UNL     1       2.806   2.585  20.067  0.00  0.00    +0.000 C 
ATOM     20  C   UNL     1       3.666   2.272  18.861  0.00  0.00    +0.000 C 
ENDBRANCH  18  20
ENDBRANCH  16  18
ENDBRANCH   1  16
TORSDOF 5
ENDMDL
MODEL 6
REMARK VINA RESULT:      -6.4      1.860      2.752
REMARK  Name = 
REMARK  8 active torsions:
REMARK  status: ('A' for Active; 'I' for Inactive)
REMARK    1  A    between atoms: C_1  and  C_2
REMARK    2  A    between atoms: C_2  and  O_3
REMARK    3  A    between atoms: O_3  and  C_4
REMARK    4  A    between atoms: C_4  and  C_6
REMARK    5  A    between atoms: C_6  and  C_7
REMARK    6  A    between atoms: C_17  and  N_18
REMARK    7  A    between atoms: N_18  and  C_19
REMARK    8  A    between atoms: N_18  and  C_20
REMARK                            x       y       z     vdW  Elec       q    Type
REMARK                         _______ _______ _______ _____ _____    ______ ____
ROOT
ATOM      1  C   UNL     1       5.710   4.909  16.533  0.00  0.00    +0.000 C 
ATOM      2  C   UNL     1       4.794   6.174  16.426  0.00  0.00    +0.000 C 
ATOM      3  C   UNL     1       4.443   6.845  17.752  0.00  0.00    +0.000 C 
ATOM      4  C   UNL     1       4.485   5.942  18.945  0.00  0.00    +0.000 C 
ATOM      5  C   UNL     1       4.739   4.622  18.865  0.00  0.00    +0.000 C 
ATOM      6  C   UNL     1       5.008   3.878  17.555  0.00  0.00    +0.000 C 
ENDROOT
BRANCH   1   7
ATOM      7  C   UNL     1       6.060   4.533  15.070  0.00  0.00    +0.000 A 
ATOM      8  C   UNL     1       5.293   3.701  14.247  0.00  0.00    +0.000 A 
ATOM      9  C   UNL     1       5.682   3.475  12.915  0.00  0.00    +0.000 A 
ATOM     10  C   UNL     1       6.829   4.068  12.382  0.00  0.00    +0.000 A 
ATOM     11  C   UNL     1       7.618   4.873  13.185  0.00  0.00    +0.000 A 
ATOM     12  C   UNL     1       7.243   5.090  14.510  0.00  0.00    +0.000 A 
ENDBRANCH   1   7
BRANCH   6  13
ATOM     13  N   UNL     1       3.809   3.041  17.203  0.00  0.00    +0.000 NA
ATOM     14  C   UNL     1       2.517   3.722  17.243  0.00  0.00    +0.000 C 
ATOM     15  C   UNL     1       3.733   1.835  18.054  0.00  0.00    +0.000 C 
ENDBRANCH   6  13
BRANCH   1  16
ATOM     16  C   UNL     1       7.087   5.162  17.229  0.00  0.00    +0.000 C 
ATOM     17  O   UNL     1       7.646   4.345  17.958  0.00  0.00    +0.000 OA
BRANCH  16  18
ATOM     18  O   UNL     1       7.584   6.409  17.000  0.00  0.00    +0.000 OA
BRANCH  18  20
ATOM     19  C   UNL     1       8.039   8.629  17.923  0.00  0.00    +0.000 C 
ATOM     20  C   UNL     1       7.967   7.138  18.176  0.00  0.00    +0.000 C 
ENDBRANCH  18  20
ENDBRANCH  16  18
ENDBRANCH   1  16
TORSDOF 5
ENDMDL
MODEL 7
REMARK VINA RESULT:      -6.4      1.491      4.454
REMARK  Name = 
REMARK  8 active torsions:
REMARK  status: ('A' for Active; 'I' for Inactive)
REMARK    1  A    between atoms: C_1  and  C_2
REMARK    2  A    between atoms: C_2  and  O_3
REMARK    3  A    between atoms: O_3  and  C_4
REMARK    4  A    between atoms: C_4  and  C_6
REMARK    5  A    between atoms: C_6  and  C_7
REMARK    6  A    between atoms: C_17  and  N_18
REMARK    7  A    between atoms: N_18  and  C_19
REMARK    8  A    between atoms: N_18  and  C_20
REMARK                            x       y       z     vdW  Elec       q    Type
REMARK                         _______ _______ _______ _____ _____    ______ ____
ROOT
ATOM      1  C   UNL     1       3.883   4.832  18.502  0.00  0.00    +0.000 C 
ATOM      2  C   UNL     1       3.552   4.231  17.094  0.00  0.00    +0.000 C 
ATOM      3  C   UNL     1       4.452   4.698  15.953  0.00  0.00    +0.000 C 
ATOM      4  C   UNL     1       5.090   6.036  16.161  0.00  0.00    +0.000 C 
ATOM      5  C   UNL     1       4.845   6.813  17.233  0.00  0.00    +0.000 C 
ATOM      6  C   UNL     1       3.883   6.439  18.363  0.00  0.00    +0.000 C 
ENDROOT
BRANCH   1   7
ATOM      7  C   UNL     1       2.963   4.077  19.496  0.00  0.00    +0.000 A 
ATOM      8  C   UNL     1       3.037   4.168  20.890  0.00  0.00    +0.000 A 
ATOM      9  C   UNL     1       2.111   3.477  21.692  0.00  0.00    +0.000 A 
ATOM     10  C   UNL     1       1.102   2.694  21.126  0.00  0.00    +0.000 A 
ATOM     11  C   UNL     1       1.026   2.568  19.750  0.00  0.00    +0.000 A 
ATOM     12  C   UNL     1       1.949   3.240  18.952  0.00  0.00    +0.000 A 
ENDBRANCH   1   7
BRANCH   6  13
ATOM     13  N   UNL     1       2.633   7.266  18.249  0.00  0.00    +0.000 NA
ATOM     14  C   UNL     1       2.764   8.531  17.528  0.00  0.00    +0.000 C 
ATOM     15  C   UNL     1       2.054   7.542  19.580  0.00  0.00    +0.000 C 
ENDBRANCH   6  13
BRANCH   1  16
ATOM     16  C   UNL     1       5.338   4.553  19.001  0.00  0.00    +0.000 C 
ATOM     17  O   UNL     1       5.897   3.463  18.907  0.00  0.00    +0.000 OA
BRANCH  16  18
ATOM     18  O   UNL     1       5.911   5.627  19.613  0.00  0.00    +0.000 OA
BRANCH  18  20
ATOM     19  C   UNL     1       7.950   6.556  18.628  0.00  0.00    +0.000 C 
ATOM     20  C   UNL     1       7.346   5.614  19.648  0.00  0.00    +0.000 C 
ENDBRANCH  18  20
ENDBRANCH  16  18
ENDBRANCH   1  16
TORSDOF 5
ENDMDL
MODEL 8
REMARK VINA RESULT:      -6.3      2.117      5.330
REMARK  Name = 
REMARK  8 active torsions:
REMARK  status: ('A' for Active; 'I' for Inactive)
REMARK    1  A    between atoms: C_1  and  C_2
REMARK    2  A    between atoms: C_2  and  O_3
REMARK    3  A    between atoms: O_3  and  C_4
REMARK    4  A    between atoms: C_4  and  C_6
REMARK    5  A    between atoms: C_6  and  C_7
REMARK    6  A    between atoms: C_17  and  N_18
REMARK    7  A    between atoms: N_18  and  C_19
REMARK    8  A    between atoms: N_18  and  C_20
REMARK                            x       y       z     vdW  Elec       q    Type
REMARK                         _______ _______ _______ _____ _____    ______ ____
ROOT
ATOM      1  C   UNL     1       4.788   5.518  17.589  0.00  0.00    +0.000 C 
ATOM      2  C   UNL     1       4.875   5.933  16.081  0.00  0.00    +0.000 C 
ATOM      3  C   UNL     1       5.742   5.037  15.202  0.00  0.00    +0.000 C 
ATOM      4  C   UNL     1       6.823   4.298  15.929  0.00  0.00    +0.000 C 
ATOM      5  C   UNL     1       7.071   4.455  17.242  0.00  0.00    +0.000 C 
ATOM      6  C   UNL     1       6.294   5.406  18.155  0.00  0.00    +0.000 C 
ENDROOT
BRANCH   1   7
ATOM      7  C   UNL     1       3.725   6.459  18.212  0.00  0.00    +0.000 A 
ATOM      8  C   UNL     1       3.223   7.618  17.610  0.00  0.00    +0.000 A 
ATOM      9  C   UNL     1       2.218   8.365  18.248  0.00  0.00    +0.000 A 
ATOM     10  C   UNL     1       1.696   7.975  19.484  0.00  0.00    +0.000 A 
ATOM     11  C   UNL     1       2.196   6.847  20.111  0.00  0.00    +0.000 A 
ATOM     12  C   UNL     1       3.202   6.111  19.488  0.00  0.00    +0.000 A 
ENDBRANCH   1   7
BRANCH   6  13
ATOM     13  N   UNL     1       7.152   6.596  18.481  0.00  0.00    +0.000 NA
ATOM     14  C   UNL     1       7.626   7.378  17.341  0.00  0.00    +0.000 C 
ATOM     15  C   UNL     1       8.319   6.203  19.299  0.00  0.00    +0.000 C 
ENDBRANCH   6  13
BRANCH   1  16
ATOM     16  C   UNL     1       4.246   4.072  17.834  0.00  0.00    +0.000 C 
ATOM     17  O   UNL     1       4.726   3.290  18.650  0.00  0.00    +0.000 OA
BRANCH  16  18
ATOM     18  O   UNL     1       3.218   3.736  17.005  0.00  0.00    +0.000 OA
BRANCH  18  20
ATOM     19  C   UNL     1       1.228   3.281  18.354  0.00  0.00    +0.000 C 
ATOM     20  C   UNL     1       2.344   2.712  17.504  0.00  0.00    +0.000 C 
ENDBRANCH  18  20
ENDBRANCH  16  18
ENDBRANCH   1  16
TORSDOF 5
ENDMDL
MODEL 9
REMARK VINA RESULT:      -6.3      1.999      3.100
REMARK  Name = 
REMARK  8 active torsions:
REMARK  status: ('A' for Active; 'I' for Inactive)
REMARK    1  A    between atoms: C_1  and  C_2
REMARK    2  A    between atoms: C_2  and  O_3
REMARK    3  A    between atoms: O_3  and  C_4
REMARK    4  A    between atoms: C_4  and  C_6
REMARK    5  A    between atoms: C_6  and  C_7
REMARK    6  A    between atoms: C_17  and  N_18
REMARK    7  A    between atoms: N_18  and  C_19
REMARK    8  A    between atoms: N_18  and  C_20
REMARK                            x       y       z     vdW  Elec       q    Type
REMARK                         _______ _______ _______ _____ _____    ______ ____
ROOT
ATOM      1  C   UNL     1       3.509   4.523  18.219  0.00  0.00    +0.000 C 
ATOM      2  C   UNL     1       2.410   3.874  17.311  0.00  0.00    +0.000 C 
ATOM      3  C   UNL     1       1.065   3.620  17.988  0.00  0.00    +0.000 C 
ATOM      4  C   UNL     1       1.131   3.448  19.474  0.00  0.00    +0.000 C 
ATOM      5  C   UNL     1       2.285   3.443  20.167  0.00  0.00    +0.000 C 
ATOM      6  C   UNL     1       3.668   3.602  19.533  0.00  0.00    +0.000 C 
ENDROOT
BRANCH   1   7
ATOM      7  C   UNL     1       4.692   4.838  17.267  0.00  0.00    +0.000 A 
ATOM      8  C   UNL     1       5.721   5.747  17.534  0.00  0.00    +0.000 A 
ATOM      9  C   UNL     1       6.774   5.910  16.617  0.00  0.00    +0.000 A 
ATOM     10  C   UNL     1       6.824   5.175  15.430  0.00  0.00    +0.000 A 
ATOM     11  C   UNL     1       5.802   4.290  15.131  0.00  0.00    +0.000 A 
ATOM     12  C   UNL     1       4.750   4.135  16.032  0.00  0.00    +0.000 A 
ENDBRANCH   1   7
BRANCH   6  13
ATOM     13  N   UNL     1       4.375   2.275  19.540  0.00  0.00    +0.000 NA
ATOM     14  C   UNL     1       3.794   1.233  18.696  0.00  0.00    +0.000 C 
ATOM     15  C   UNL     1       4.504   1.749  20.915  0.00  0.00    +0.000 C 
ENDBRANCH   6  13
BRANCH   1  16
ATOM     16  C   UNL     1       3.108   5.901  18.840  0.00  0.00    +0.000 C 
ATOM     17  O   UNL     1       3.393   6.245  19.985  0.00  0.00    +0.000 OA
BRANCH  16  18
ATOM     18  O   UNL     1       2.352   6.667  18.005  0.00  0.00    +0.000 OA
BRANCH  18  20
ATOM     19  C   UNL     1       1.672   9.013  17.856  0.00  0.00    +0.000 C 
ATOM     20  C   UNL     1       2.811   8.016  17.834  0.00  0.00    +0.000 C 
ENDBRANCH  18  20
ENDBRANCH  16  18
ENDBRANCH   1  16
TORSDOF 5
ENDMDL
