MODEL 1
REMARK VINA RESULT:      -7.3      0.000      0.000
REMARK  Name = 
REMARK  8 active torsions:
REMARK  status: ('A' for Active; 'I' for Inactive)
REMARK    1  A    between atoms: C_1  and  O_2
REMARK    2  A    between atoms: O_2  and  C_3
REMARK    3  A    between atoms: C_3  and  C_4
REMARK    4  A    between atoms: C_4  and  N_5
REMARK    5  A    between atoms: C_6  and  C_8
REMARK    6  A    between atoms: C_8  and  N_9
REMARK    7  A    between atoms: N_12  and  C_13
REMARK    8  A    between atoms: C_13  and  C_14
REMARK                            x       y       z     vdW  Elec       q    Type
REMARK                         _______ _______ _______ _____ _____    ______ ____
ROOT
ATOM      1  N   UNL     1       6.648   5.150  17.831  0.00  0.00    +0.000 N 
ATOM      2  C   UNL     1       5.730   4.897  18.844  0.00  0.00    +0.000 A 
ATOM      3  O   UNL     1       5.993   5.195  20.012  0.00  0.00    +0.000 OA
ATOM      4  N   UNL     1       4.516   4.340  18.475  0.00  0.00    +0.000 N 
ATOM      5  C   UNL     1       4.189   3.946  17.186  0.00  0.00    +0.000 A 
ATOM      6  O   UNL     1       3.098   3.474  16.870  0.00  0.00    +0.000 OA
ATOM      7  C   UNL     1       5.210   4.156  16.146  0.00  0.00    +0.000 A 
ATOM      8  C   UNL     1       4.915   3.812  14.815  0.00  0.00    +0.000 A 
ATOM      9  C   UNL     1       5.843   4.060  13.809  0.00  0.00    +0.000 A 
ATOM     10  C   UNL     1       7.074   4.620  14.137  0.00  0.00    +0.000 A 
ATOM     11  C   UNL     1       7.367   4.951  15.466  0.00  0.00    +0.000 A 
ATOM     12  C   UNL     1       6.424   4.750  16.487  0.00  0.00    +0.000 A 
ENDROOT
BRANCH   1  13
ATOM     13  C   UNL     1       7.842   5.926  18.190  0.00  0.00    +0.000 C 
BRANCH  13  15
ATOM     14  N   UNL     1       8.588   8.231  18.536  0.00  0.00    +0.000 N 
ATOM     15  C   UNL     1       7.716   7.412  17.856  0.00  0.00    +0.000 C 
ATOM     16  O   UNL     1       6.854   7.832  17.086  0.00  0.00    +0.000 OA
ATOM     17  H   UNL     1       9.105   7.835  19.323  0.00  0.00    +0.000 HD
BRANCH  14  18
ATOM     18  C   UNL     1       8.549   9.676  18.421  0.00  0.00    +0.000 C 
BRANCH  18  19
ATOM     19  C   UNL     1       9.333  10.386  19.527  0.00  0.00    +0.000 C 
BRANCH  19  21
ATOM     20  C   UNL     1      10.240  11.855  17.919  0.00  0.00    +0.000 C 
ATOM     21  O   UNL     1      10.529  10.950  18.976  0.00  0.00    +0.000 OA
ENDBRANCH  19  21
ENDBRANCH  18  19
ENDBRANCH  14  18
ENDBRANCH  13  15
ENDBRANCH   1  13
BRANCH   4  22
ATOM     22  C   UNL     1       3.453   4.317  19.469  0.00  0.00    +0.000 C 
BRANCH  22  23
ATOM     23  C   UNL     1       2.745   5.619  19.597  0.00  0.00    +0.000 A 
ATOM     24  C   UNL     1       2.768   6.788  18.861  0.00  0.00    +0.000 A 
ATOM     25  C   UNL     1       2.019   7.740  19.595  0.00  0.00    +0.000 A 
ATOM     26  C   UNL     1       1.563   7.087  20.715  0.00  0.00    +0.000 A 
ATOM     27  O   UNL     1       1.993   5.800  20.723  0.00  0.00    +0.000 OA
ENDBRANCH  22  23
ENDBRANCH   4  22
TORSDOF 7
ENDMDL
MODEL 2
REMARK VINA RESULT:      -7.2      3.093      5.937
REMARK  Name = 
REMARK  8 active torsions:
REMARK  status: ('A' for Active; 'I' for Inactive)
REMARK    1  A    between atoms: C_1  and  O_2
REMARK    2  A    between atoms: O_2  and  C_3
REMARK    3  A    between atoms: C_3  and  C_4
REMARK    4  A    between atoms: C_4  and  N_5
REMARK    5  A    between atoms: C_6  and  C_8
REMARK    6  A    between atoms: C_8  and  N_9
REMARK    7  A    between atoms: N_12  and  C_13
REMARK    8  A    between atoms: C_13  and  C_14
REMARK                            x       y       z     vdW  Elec       q    Type
REMARK                         _______ _______ _______ _____ _____    ______ ____
ROOT
ATOM      1  N   UNL     1       5.248   5.329  16.559  0.00  0.00    +0.000 N 
ATOM      2  C   UNL     1       4.341   4.318  16.859  0.00  0.00    +0.000 A 
ATOM      3  O   UNL     1       3.476   3.994  16.041  0.00  0.00    +0.000 OA
ATOM      4  N   UNL     1       4.482   3.684  18.083  0.00  0.00    +0.000 N 
ATOM      5  C   UNL     1       5.406   4.039  19.054  0.00  0.00    +0.000 A 
ATOM      6  O   UNL     1       5.534   3.451  20.126  0.00  0.00    +0.000 OA
ATOM      7  C   UNL     1       6.303   5.164  18.739  0.00  0.00    +0.000 A 
ATOM      8  C   UNL     1       7.286   5.539  19.671  0.00  0.00    +0.000 A 
ATOM      9  C   UNL     1       8.183   6.557  19.367  0.00  0.00    +0.000 A 
ATOM     10  C   UNL     1       8.078   7.220  18.147  0.00  0.00    +0.000 A 
ATOM     11  C   UNL     1       7.091   6.849  17.227  0.00  0.00    +0.000 A 
ATOM     12  C   UNL     1       6.207   5.792  17.499  0.00  0.00    +0.000 A 
ENDROOT
BRANCH   1  13
ATOM     13  C   UNL     1       5.231   5.857  15.188  0.00  0.00    +0.000 C 
BRANCH  13  15
ATOM     14  N   UNL     1       5.460   4.057  13.546  0.00  0.00    +0.000 N 
ATOM     15  C   UNL     1       6.111   5.060  14.227  0.00  0.00    +0.000 C 
ATOM     16  O   UNL     1       7.319   5.270  14.129  0.00  0.00    +0.000 OA
ATOM     17  H   UNL     1       4.523   3.797  13.855  0.00  0.00    +0.000 HD
BRANCH  14  18
ATOM     18  C   UNL     1       6.154   3.137  12.665  0.00  0.00    +0.000 C 
BRANCH  18  19
ATOM     19  C   UNL     1       5.281   2.647  11.506  0.00  0.00    +0.000 C 
BRANCH  19  21
ATOM     20  C   UNL     1       3.212   3.040  10.441  0.00  0.00    +0.000 C 
ATOM     21  O   UNL     1       4.225   3.587  11.275  0.00  0.00    +0.000 OA
ENDBRANCH  19  21
ENDBRANCH  18  19
ENDBRANCH  14  18
ENDBRANCH  13  15
ENDBRANCH   1  13
BRANCH   4  22
ATOM     22  C   UNL     1       3.724   2.460  18.300  0.00  0.00    +0.000 C 
BRANCH  22  23
ATOM     23  C   UNL     1       2.473   2.677  19.075  0.00  0.00    +0.000 A 
ATOM     24  C   UNL     1       1.256   3.253  18.770  0.00  0.00    +0.000 A 
ATOM     25  C   UNL     1       0.534   3.336  19.986  0.00  0.00    +0.000 A 
ATOM     26  C   UNL     1       1.342   2.780  20.949  0.00  0.00    +0.000 A 
ATOM     27  O   UNL     1       2.518   2.373  20.406  0.00  0.00    +0.000 OA
ENDBRANCH  22  23
ENDBRANCH   4  22
TORSDOF 7
ENDMDL
MODEL 3
REMARK VINA RESULT:      -7.1      3.202      7.084
REMARK  Name = 
REMARK  8 active torsions:
REMARK  status: ('A' for Active; 'I' for Inactive)
REMARK    1  A    between atoms: C_1  and  O_2
REMARK    2  A    between atoms: O_2  and  C_3
REMARK    3  A    between atoms: C_3  and  C_4
REMARK    4  A    between atoms: C_4  and  N_5
REMARK    5  A    between atoms: C_6  and  C_8
REMARK    6  A    between atoms: C_8  and  N_9
REMARK    7  A    between atoms: N_12  and  C_13
REMARK    8  A    between atoms: C_13  and  C_14
REMARK                            x       y       z     vdW  Elec       q    Type
REMARK                         _______ _______ _______ _____ _____    ______ ____
ROOT
ATOM      1  N   UNL     1       5.650   4.945  18.586  0.00  0.00    +0.000 N 
ATOM      2  C   UNL     1       6.650   4.908  17.621  0.00  0.00    +0.000 A 
ATOM      3  O   UNL     1       7.632   4.175  17.768  0.00  0.00    +0.000 OA
ATOM      4  N   UNL     1       6.471   5.691  16.492  0.00  0.00    +0.000 N 
ATOM      5  C   UNL     1       5.410   6.564  16.298  0.00  0.00    +0.000 A 
ATOM      6  O   UNL     1       5.253   7.235  15.280  0.00  0.00    +0.000 OA
ATOM      7  C   UNL     1       4.405   6.639  17.372  0.00  0.00    +0.000 A 
ATOM      8  C   UNL     1       3.288   7.477  17.209  0.00  0.00    +0.000 A 
ATOM      9  C   UNL     1       2.297   7.515  18.184  0.00  0.00    +0.000 A 
ATOM     10  C   UNL     1       2.437   6.742  19.333  0.00  0.00    +0.000 A 
ATOM     11  C   UNL     1       3.557   5.917  19.495  0.00  0.00    +0.000 A 
ATOM     12  C   UNL     1       4.544   5.832  18.500  0.00  0.00    +0.000 A 
ENDROOT
BRANCH   1  13
ATOM     13  C   UNL     1       5.738   3.965  19.677  0.00  0.00    +0.000 C 
BRANCH  13  15
ATOM     14  N   UNL     1       4.223   2.568  18.356  0.00  0.00    +0.000 N 
ATOM     15  C   UNL     1       4.636   2.907  19.625  0.00  0.00    +0.000 C 
ATOM     16  O   UNL     1       4.125   2.452  20.646  0.00  0.00    +0.000 OA
ATOM     17  H   UNL     1       4.528   3.155  17.579  0.00  0.00    +0.000 HD
BRANCH  14  18
ATOM     18  C   UNL     1       3.123   1.654  18.114  0.00  0.00    +0.000 C 
BRANCH  18  19
ATOM     19  C   UNL     1       1.765   2.357  18.054  0.00  0.00    +0.000 C 
BRANCH  19  21
ATOM     20  C   UNL     1       0.869   3.372  19.988  0.00  0.00    +0.000 C 
ATOM     21  O   UNL     1       1.067   2.150  19.288  0.00  0.00    +0.000 OA
ENDBRANCH  19  21
ENDBRANCH  18  19
ENDBRANCH  14  18
ENDBRANCH  13  15
ENDBRANCH   1  13
BRANCH   4  22
ATOM     22  C   UNL     1       7.362   5.464  15.364  0.00  0.00    +0.000 C 
BRANCH  22  23
ATOM     23  C   UNL     1       6.711   4.733  14.244  0.00  0.00    +0.000 A 
ATOM     24  C   UNL     1       5.617   3.894  14.167  0.00  0.00    +0.000 A 
ATOM     25  C   UNL     1       5.612   3.358  12.856  0.00  0.00    +0.000 A 
ATOM     26  C   UNL     1       6.684   3.924  12.207  0.00  0.00    +0.000 A 
ATOM     27  O   UNL     1       7.354   4.763  13.038  0.00  0.00    +0.000 OA
ENDBRANCH  22  23
ENDBRANCH   4  22
TORSDOF 7
ENDMDL
MODEL 4
REMARK VINA RESULT:      -7.0      3.080      6.855
REMARK  Name = 
REMARK  8 active torsions:
REMARK  status: ('A' for Active; 'I' for Inactive)
REMARK    1  A    between atoms: C_1  and  O_2
REMARK    2  A    between atoms: O_2  and  C_3
REMARK    3  A    between atoms: C_3  and  C_4
REMARK    4  A    between atoms: C_4  and  N_5
REMARK    5  A    between atoms: C_6  and  C_8
REMARK    6  A    between atoms: C_8  and  N_9
REMARK    7  A    between atoms: N_12  and  C_13
REMARK    8  A    between atoms: C_13  and  C_14
REMARK                            x       y       z     vdW  Elec       q    Type
REMARK                         _______ _______ _______ _____ _____    ______ ____
ROOT
ATOM      1  N   UNL     1       2.486   6.039  18.807  0.00  0.00    +0.000 N 
ATOM      2  C   UNL     1       3.592   6.335  18.019  0.00  0.00    +0.000 A 
ATOM      3  O   UNL     1       3.575   7.310  17.262  0.00  0.00    +0.000 OA
ATOM      4  N   UNL     1       4.704   5.519  18.153  0.00  0.00    +0.000 N 
ATOM      5  C   UNL     1       4.758   4.387  18.954  0.00  0.00    +0.000 A 
ATOM      6  O   UNL     1       5.760   3.686  19.081  0.00  0.00    +0.000 OA
ATOM      7  C   UNL     1       3.545   4.054  19.719  0.00  0.00    +0.000 A 
ATOM      8  C   UNL     1       3.561   2.941  20.578  0.00  0.00    +0.000 A 
ATOM      9  C   UNL     1       2.446   2.646  21.356  0.00  0.00    +0.000 A 
ATOM     10  C   UNL     1       1.309   3.442  21.253  0.00  0.00    +0.000 A 
ATOM     11  C   UNL     1       1.296   4.543  20.388  0.00  0.00    +0.000 A 
ATOM     12  C   UNL     1       2.428   4.882  19.630  0.00  0.00    +0.000 A 
ENDROOT
BRANCH   1  13
ATOM     13  C   UNL     1       1.391   7.018  18.819  0.00  0.00    +0.000 C 
BRANCH  13  15
ATOM     14  N   UNL     1       1.445   7.950  21.081  0.00  0.00    +0.000 N 
ATOM     15  C   UNL     1       1.656   8.204  19.745  0.00  0.00    +0.000 C 
ATOM     16  O   UNL     1       1.970   9.310  19.309  0.00  0.00    +0.000 OA
ATOM     17  H   UNL     1       0.964   7.086  21.336  0.00  0.00    +0.000 HD
BRANCH  14  18
ATOM     18  C   UNL     1       1.553   8.980  22.097  0.00  0.00    +0.000 C 
BRANCH  18  19
ATOM     19  C   UNL     1       0.216   9.293  22.774  0.00  0.00    +0.000 C 
BRANCH  19  21
ATOM     20  C   UNL     1      -1.076  11.263  22.908  0.00  0.00    +0.000 C 
ATOM     21  O   UNL     1      -0.461  10.319  22.040  0.00  0.00    +0.000 OA
ENDBRANCH  19  21
ENDBRANCH  18  19
ENDBRANCH  14  18
ENDBRANCH  13  15
ENDBRANCH   1  13
BRANCH   4  22
ATOM     22  C   UNL     1       5.948   5.967  17.545  0.00  0.00    +0.000 C 
BRANCH  22  23
ATOM     23  C   UNL     1       6.152   5.434  16.172  0.00  0.00    +0.000 A 
ATOM     24  C   UNL     1       5.430   4.569  15.373  0.00  0.00    +0.000 A 
ATOM     25  C   UNL     1       6.237   4.298  14.241  0.00  0.00    +0.000 A 
ATOM     26  C   UNL     1       7.386   5.036  14.405  0.00  0.00    +0.000 A 
ATOM     27  O   UNL     1       7.342   5.732  15.569  0.00  0.00    +0.000 OA
ENDBRANCH  22  23
ENDBRANCH   4  22
TORSDOF 7
ENDMDL
MODEL 5
REMARK VINA RESULT:      -6.9      1.137      1.813
REMARK  Name = 
REMARK  8 active torsions:
REMARK  status: ('A' for Active; 'I' for Inactive)
REMARK    1  A    between atoms: C_1  and  O_2
REMARK    2  A    between atoms: O_2  and  C_3
REMARK    3  A    between atoms: C_3  and  C_4
REMARK    4  A    between atoms: C_4  and  N_5
REMARK    5  A    between atoms: C_6  and  C_8
REMARK    6  A    between atoms: C_8  and  N_9
REMARK    7  A    between atoms: N_12  and  C_13
REMARK    8  A    between atoms: C_13  and  C_14
REMARK                            x       y       z     vdW  Elec       q    Type
REMARK                         _______ _______ _______ _____ _____    ______ ____
ROOT
ATOM      1  N   UNL     1       6.387   5.332  17.830  0.00  0.00    +0.000 N 
ATOM      2  C   UNL     1       5.400   5.340  18.810  0.00  0.00    +0.000 A 
ATOM      3  O   UNL     1       5.659   5.730  19.951  0.00  0.00    +0.000 OA
ATOM      4  N   UNL     1       4.131   4.931  18.435  0.00  0.00    +0.000 N 
ATOM      5  C   UNL     1       3.798   4.441  17.180  0.00  0.00    +0.000 A 
ATOM      6  O   UNL     1       2.661   4.104  16.856  0.00  0.00    +0.000 OA
ATOM      7  C   UNL     1       4.881   4.373  16.185  0.00  0.00    +0.000 A 
ATOM      8  C   UNL     1       4.590   3.923  14.885  0.00  0.00    +0.000 A 
ATOM      9  C   UNL     1       5.585   3.909  13.913  0.00  0.00    +0.000 A 
ATOM     10  C   UNL     1       6.874   4.313  14.247  0.00  0.00    +0.000 A 
ATOM     11  C   UNL     1       7.161   4.751  15.546  0.00  0.00    +0.000 A 
ATOM     12  C   UNL     1       6.158   4.815  16.527  0.00  0.00    +0.000 A 
ENDROOT
BRANCH   1  13
ATOM     13  C   UNL     1       7.672   5.957  18.170  0.00  0.00    +0.000 C 
BRANCH  13  15
ATOM     14  N   UNL     1       8.545   8.202  18.601  0.00  0.00    +0.000 N 
ATOM     15  C   UNL     1       7.739   7.436  17.791  0.00  0.00    +0.000 C 
ATOM     16  O   UNL     1       7.068   7.901  16.871  0.00  0.00    +0.000 OA
ATOM     17  H   UNL     1       8.877   7.792  19.475  0.00  0.00    +0.000 HD
BRANCH  14  18
ATOM     18  C   UNL     1       8.655   9.641  18.453  0.00  0.00    +0.000 C 
BRANCH  18  19
ATOM     19  C   UNL     1       9.358  10.311  19.637  0.00  0.00    +0.000 C 
BRANCH  19  21
ATOM     20  C   UNL     1      11.113  11.609  18.738  0.00  0.00    +0.000 C 
ATOM     21  O   UNL     1       9.788  11.623  19.254  0.00  0.00    +0.000 OA
ENDBRANCH  19  21
ENDBRANCH  18  19
ENDBRANCH  14  18
ENDBRANCH  13  15
ENDBRANCH   1  13
BRANCH   4  22
ATOM     22  C   UNL     1       3.038   5.185  19.363  0.00  0.00    +0.000 C 
BRANCH  22  23
ATOM     23  C   UNL     1       2.791   4.054  20.298  0.00  0.00    +0.000 A 
ATOM     24  C   UNL     1       3.485   2.897  20.591  0.00  0.00    +0.000 A 
ATOM     25  C   UNL     1       2.643   2.124  21.428  0.00  0.00    +0.000 A 
ATOM     26  C   UNL     1       1.504   2.870  21.617  0.00  0.00    +0.000 A 
ATOM     27  O   UNL     1       1.585   4.043  20.940  0.00  0.00    +0.000 OA
ENDBRANCH  22  23
ENDBRANCH   4  22
TORSDOF 7
ENDMDL
MODEL 6
REMARK VINA RESULT:      -6.9      2.908      6.884
REMARK  Name = 
REMARK  8 active torsions:
REMARK  status: ('A' for Active; 'I' for Inactive)
REMARK    1  A    between atoms: C_1  and  O_2
REMARK    2  A    between atoms: O_2  and  C_3
REMARK    3  A    between atoms: C_3  and  C_4
REMARK    4  A    between atoms: C_4  and  N_5
REMARK    5  A    between atoms: C_6  and  C_8
REMARK    6  A    between atoms: C_8  and  N_9
REMARK    7  A    between atoms: N_12  and  C_13
REMARK    8  A    between atoms: C_13  and  C_14
REMARK                            x       y       z     vdW  Elec       q    Type
REMARK                         _______ _______ _______ _____ _____    ______ ____
ROOT
ATOM      1  N   UNL     1       2.447   6.429  19.559  0.00  0.00    +0.000 N 
ATOM      2  C   UNL     1       3.181   6.927  18.488  0.00  0.00    +0.000 A 
ATOM      3  O   UNL     1       3.442   8.131  18.418  0.00  0.00    +0.000 OA
ATOM      4  N   UNL     1       3.626   6.015  17.545  0.00  0.00    +0.000 N 
ATOM      5  C   UNL     1       3.322   4.661  17.553  0.00  0.00    +0.000 A 
ATOM      6  O   UNL     1       3.745   3.860  16.721  0.00  0.00    +0.000 OA
ATOM      7  C   UNL     1       2.480   4.175  18.658  0.00  0.00    +0.000 A 
ATOM      8  C   UNL     1       2.177   2.804  18.737  0.00  0.00    +0.000 A 
ATOM      9  C   UNL     1       1.434   2.315  19.807  0.00  0.00    +0.000 A 
ATOM     10  C   UNL     1       0.969   3.197  20.777  0.00  0.00    +0.000 A 
ATOM     11  C   UNL     1       1.266   4.563  20.688  0.00  0.00    +0.000 A 
ATOM     12  C   UNL     1       2.053   5.067  19.640  0.00  0.00    +0.000 A 
ENDROOT
BRANCH   1  13
ATOM     13  C   UNL     1       2.155   7.357  20.659  0.00  0.00    +0.000 C 
BRANCH  13  15
ATOM     14  N   UNL     1       1.005   9.260  19.636  0.00  0.00    +0.000 N 
ATOM     15  C   UNL     1       0.870   8.155  20.446  0.00  0.00    +0.000 C 
ATOM     16  O   UNL     1      -0.180   7.857  21.013  0.00  0.00    +0.000 OA
ATOM     17  H   UNL     1       1.948   9.568  19.398  0.00  0.00    +0.000 HD
BRANCH  14  18
ATOM     18  C   UNL     1      -0.083  10.189  19.399  0.00  0.00    +0.000 C 
BRANCH  18  19
ATOM     19  C   UNL     1      -0.624  10.123  17.969  0.00  0.00    +0.000 C 
BRANCH  19  21
ATOM     20  C   UNL     1      -2.618   9.970  16.715  0.00  0.00    +0.000 C 
ATOM     21  O   UNL     1      -2.029   9.847  18.004  0.00  0.00    +0.000 OA
ENDBRANCH  19  21
ENDBRANCH  18  19
ENDBRANCH  14  18
ENDBRANCH  13  15
ENDBRANCH   1  13
BRANCH   4  22
ATOM     22  C   UNL     1       4.610   6.472  16.574  0.00  0.00    +0.000 C 
BRANCH  22  23
ATOM     23  C   UNL     1       5.970   6.632  17.154  0.00  0.00    +0.000 A 
ATOM     24  C   UNL     1       6.708   5.898  18.061  0.00  0.00    +0.000 A 
ATOM     25  C   UNL     1       7.860   6.665  18.358  0.00  0.00    +0.000 A 
ATOM     26  C   UNL     1       7.769   7.804  17.593  0.00  0.00    +0.000 A 
ATOM     27  O   UNL     1       6.629   7.792  16.856  0.00  0.00    +0.000 OA
ENDBRANCH  22  23
ENDBRANCH   4  22
TORSDOF 7
ENDMDL
MODEL 7
REMARK VINA RESULT:      -6.8      3.126      5.988
REMARK  Name = 
REMARK  8 active torsions:
REMARK  status: ('A' for Active; 'I' for Inactive)
REMARK    1  A    between atoms: C_1  and  O_2
REMARK    2  A    between atoms: O_2  and  C_3
REMARK    3  A    between atoms: C_3  and  C_4
REMARK    4  A    between atoms: C_4  and  N_5
REMARK    5  A    between atoms: C_6  and  C_8
REMARK    6  A    between atoms: C_8  and  N_9
REMARK    7  A    between atoms: N_12  and  C_13
REMARK    8  A    between atoms: C_13  and  C_14
REMARK                            x       y       z     vdW  Elec       q    Type
REMARK                         _______ _______ _______ _____ _____    ______ ____
ROOT
ATOM      1  N   UNL     1       5.389   5.387  16.538  0.00  0.00    +0.000 N 
ATOM      2  C   UNL     1       4.478   4.371  16.805  0.00  0.00    +0.000 A 
ATOM      3  O   UNL     1       3.635   4.054  15.963  0.00  0.00    +0.000 OA
ATOM      4  N   UNL     1       4.589   3.725  18.026  0.00  0.00    +0.000 N 
ATOM      5  C   UNL     1       5.488   4.072  19.024  0.00  0.00    +0.000 A 
ATOM      6  O   UNL     1       5.590   3.473  20.093  0.00  0.00    +0.000 OA
ATOM      7  C   UNL     1       6.390   5.201  18.743  0.00  0.00    +0.000 A 
ATOM      8  C   UNL     1       7.348   5.569  19.703  0.00  0.00    +0.000 A 
ATOM      9  C   UNL     1       8.250   6.593  19.432  0.00  0.00    +0.000 A 
ATOM     10  C   UNL     1       8.175   7.267  18.217  0.00  0.00    +0.000 A 
ATOM     11  C   UNL     1       7.212   6.904  17.268  0.00  0.00    +0.000 A 
ATOM     12  C   UNL     1       6.323   5.843  17.507  0.00  0.00    +0.000 A 
ENDROOT
BRANCH   1  13
ATOM     13  C   UNL     1       5.406   5.929  15.173  0.00  0.00    +0.000 C 
BRANCH  13  15
ATOM     14  N   UNL     1       5.581   4.223  13.427  0.00  0.00    +0.000 N 
ATOM     15  C   UNL     1       6.273   5.114  14.214  0.00  0.00    +0.000 C 
ATOM     16  O   UNL     1       7.499   5.214  14.205  0.00  0.00    +0.000 OA
ATOM     17  H   UNL     1       4.605   4.034  13.659  0.00  0.00    +0.000 HD
BRANCH  14  18
ATOM     18  C   UNL     1       6.246   3.298  12.528  0.00  0.00    +0.000 C 
BRANCH  18  19
ATOM     19  C   UNL     1       5.267   2.437  11.726  0.00  0.00    +0.000 C 
BRANCH  19  21
ATOM     20  C   UNL     1       7.369   1.656  10.993  0.00  0.00    +0.000 C 
ATOM     21  O   UNL     1       5.980   1.368  11.094  0.00  0.00    +0.000 OA
ENDBRANCH  19  21
ENDBRANCH  18  19
ENDBRANCH  14  18
ENDBRANCH  13  15
ENDBRANCH   1  13
BRANCH   4  22
ATOM     22  C   UNL     1       3.829   2.497  18.211  0.00  0.00    +0.000 C 
BRANCH  22  23
ATOM     23  C   UNL     1       2.521   2.717  18.885  0.00  0.00    +0.000 A 
ATOM     24  C   UNL     1       2.157   2.960  20.195  0.00  0.00    +0.000 A 
ATOM     25  C   UNL     1       0.743   2.886  20.241  0.00  0.00    +0.000 A 
ATOM     26  C   UNL     1       0.332   2.633  18.954  0.00  0.00    +0.000 A 
ATOM     27  O   UNL     1       1.401   2.533  18.123  0.00  0.00    +0.000 OA
ENDBRANCH  22  23
ENDBRANCH   4  22
TORSDOF 7
ENDMDL
MODEL 8
REMARK VINA RESULT:      -6.8      2.931      6.643
REMARK  Name = 
REMARK  8 active torsions:
REMARK  status: ('A' for Active; 'I' for Inactive)
REMARK    1  A    between atoms: C_1  and  O_2
REMARK    2  A    between atoms: O_2  and  C_3
REMARK    3  A    between atoms: C_3  and  C_4
REMARK    4  A    between atoms: C_4  and  N_5
REMARK    5  A    between atoms: C_6  and  C_8
REMARK    6  A    between atoms: C_8  and  N_9
REMARK    7  A    between atoms: N_12  and  C_13
REMARK    8  A    between atoms: C_13  and  C_14
REMARK                            x       y       z     vdW  Elec       q    Type
REMARK                         _______ _______ _______ _____ _____    ______ ____
ROOT
ATOM      1  N   UNL     1       2.710   6.438  18.851  0.00  0.00    +0.000 N 
ATOM      2  C   UNL     1       3.650   6.718  17.866  0.00  0.00    +0.000 A 
ATOM      3  O   UNL     1       3.967   7.884  17.620  0.00  0.00    +0.000 OA
ATOM      4  N   UNL     1       4.225   5.639  17.214  0.00  0.00    +0.000 N 
ATOM      5  C   UNL     1       3.872   4.313  17.420  0.00  0.00    +0.000 A 
ATOM      6  O   UNL     1       4.409   3.365  16.850  0.00  0.00    +0.000 OA
ATOM      7  C   UNL     1       2.820   4.052  18.416  0.00  0.00    +0.000 A 
ATOM      8  C   UNL     1       2.453   2.723  18.693  0.00  0.00    +0.000 A 
ATOM      9  C   UNL     1       1.505   2.453  19.675  0.00  0.00    +0.000 A 
ATOM     10  C   UNL     1       0.903   3.508  20.354  0.00  0.00    +0.000 A 
ATOM     11  C   UNL     1       1.265   4.829  20.067  0.00  0.00    +0.000 A 
ATOM     12  C   UNL     1       2.253   5.118  19.112  0.00  0.00    +0.000 A 
ENDROOT
BRANCH   1  13
ATOM     13  C   UNL     1       2.256   7.562  19.680  0.00  0.00    +0.000 C 
BRANCH  13  15
ATOM     14  N   UNL     1       1.166   9.752  19.602  0.00  0.00    +0.000 N 
ATOM     15  C   UNL     1       1.489   8.620  18.889  0.00  0.00    +0.000 C 
ATOM     16  O   UNL     1       1.139   8.432  17.725  0.00  0.00    +0.000 OA
ATOM     17  H   UNL     1       1.285   9.731  20.616  0.00  0.00    +0.000 HD
BRANCH  14  18
ATOM     18  C   UNL     1       0.358  10.820  19.045  0.00  0.00    +0.000 C 
BRANCH  18  19
ATOM     19  C   UNL     1      -1.139  10.498  19.044  0.00  0.00    +0.000 C 
BRANCH  19  21
ATOM     20  C   UNL     1      -2.103   9.893  16.977  0.00  0.00    +0.000 C 
ATOM     21  O   UNL     1      -1.727  10.970  17.827  0.00  0.00    +0.000 OA
ENDBRANCH  19  21
ENDBRANCH  18  19
ENDBRANCH  14  18
ENDBRANCH  13  15
ENDBRANCH   1  13
BRANCH   4  22
ATOM     22  C   UNL     1       5.390   5.897  16.380  0.00  0.00    +0.000 C 
BRANCH  22  23
ATOM     23  C   UNL     1       6.562   6.390  17.151  0.00  0.00    +0.000 A 
ATOM     24  C   UNL     1       7.263   5.895  18.233  0.00  0.00    +0.000 A 
ATOM     25  C   UNL     1       8.159   6.916  18.634  0.00  0.00    +0.000 A 
ATOM     26  C   UNL     1       7.970   7.957  17.756  0.00  0.00    +0.000 A 
ATOM     27  O   UNL     1       7.008   7.647  16.851  0.00  0.00    +0.000 OA
ENDBRANCH  22  23
ENDBRANCH   4  22
TORSDOF 7
ENDMDL
MODEL 9
REMARK VINA RESULT:      -6.7      3.141      6.597
REMARK  Name = 
REMARK  8 active torsions:
REMARK  status: ('A' for Active; 'I' for Inactive)
REMARK    1  A    between atoms: C_1  and  O_2
REMARK    2  A    between atoms: O_2  and  C_3
REMARK    3  A    between atoms: C_3  and  C_4
REMARK    4  A    between atoms: C_4  and  N_5
REMARK    5  A    between atoms: C_6  and  C_8
REMARK    6  A    between atoms: C_8  and  N_9
REMARK    7  A    between atoms: N_12  and  C_13
REMARK    8  A    between atoms: C_13  and  C_14
REMARK                            x       y       z     vdW  Elec       q    Type
REMARK                         _______ _______ _______ _____ _____    ______ ____
ROOT
ATOM      1  N   UNL     1       2.606   5.844  18.319  0.00  0.00    +0.000 N 
ATOM      2  C   UNL     1       3.777   6.027  17.593  0.00  0.00    +0.000 A 
ATOM      3  O   UNL     1       3.842   6.903  16.727  0.00  0.00    +0.000 OA
ATOM      4  N   UNL     1       4.855   5.216  17.912  0.00  0.00    +0.000 N 
ATOM      5  C   UNL     1       4.820   4.189  18.843  0.00  0.00    +0.000 A 
ATOM      6  O   UNL     1       5.792   3.493  19.132  0.00  0.00    +0.000 OA
ATOM      7  C   UNL     1       3.543   3.968  19.543  0.00  0.00    +0.000 A 
ATOM      8  C   UNL     1       3.464   2.966  20.526  0.00  0.00    +0.000 A 
ATOM      9  C   UNL     1       2.285   2.783  21.242  0.00  0.00    +0.000 A 
ATOM     10  C   UNL     1       1.179   3.577  20.954  0.00  0.00    +0.000 A 
ATOM     11  C   UNL     1       1.261   4.567  19.966  0.00  0.00    +0.000 A 
ATOM     12  C   UNL     1       2.456   4.796  19.266  0.00  0.00    +0.000 A 
ENDROOT
BRANCH   1  13
ATOM     13  C   UNL     1       1.537   6.833  18.126  0.00  0.00    +0.000 C 
BRANCH  13  15
ATOM     14  N   UNL     1       1.874   9.249  17.931  0.00  0.00    +0.000 N 
ATOM     15  C   UNL     1       1.836   8.176  18.791  0.00  0.00    +0.000 C 
ATOM     16  O   UNL     1       2.083   8.263  19.993  0.00  0.00    +0.000 OA
ATOM     17  H   UNL     1       1.892   9.061  16.928  0.00  0.00    +0.000 HD
BRANCH  14  18
ATOM     18  C   UNL     1       2.237  10.584  18.368  0.00  0.00    +0.000 C 
BRANCH  18  19
ATOM     19  C   UNL     1       1.023  11.453  18.707  0.00  0.00    +0.000 C 
BRANCH  19  21
ATOM     20  C   UNL     1      -1.145  10.901  19.456  0.00  0.00    +0.000 C 
ATOM     21  O   UNL     1      -0.177  10.722  18.430  0.00  0.00    +0.000 OA
ENDBRANCH  19  21
ENDBRANCH  18  19
ENDBRANCH  14  18
ENDBRANCH  13  15
ENDBRANCH   1  13
BRANCH   4  22
ATOM     22  C   UNL     1       6.153   5.570  17.357  0.00  0.00    +0.000 C 
BRANCH  22  23
ATOM     23  C   UNL     1       6.334   5.108  15.955  0.00  0.00    +0.000 A 
ATOM     24  C   UNL     1       5.764   4.096  15.208  0.00  0.00    +0.000 A 
ATOM     25  C   UNL     1       6.489   4.035  13.993  0.00  0.00    +0.000 A 
ATOM     26  C   UNL     1       7.435   5.030  14.062  0.00  0.00    +0.000 A 
ATOM     27  O   UNL     1       7.347   5.689  15.245  0.00  0.00    +0.000 OA
ENDBRANCH  22  23
ENDBRANCH   4  22
TORSDOF 7
ENDMDL
