MODEL 1
REMARK VINA RESULT:      -8.2      0.000      0.000
REMARK  Name = 
REMARK  9 active torsions:
REMARK  status: ('A' for Active; 'I' for Inactive)
REMARK    1  A    between atoms: C_1  and  C_2
REMARK    2  A    between atoms: C_2  and  C_3
REMARK    3  A    between atoms: C_9  and  O_10
REMARK    4  A    between atoms: O_10  and  C_11
REMARK    5  A    between atoms: C_11  and  C_12
REMARK    6  A    between atoms: C_11  and  C_13
REMARK    7  A    between atoms: C_14  and  O_15
REMARK    8  A    between atoms: O_15  and  C_16
REMARK    9  A    between atoms: C_23  and  C_24
REMARK                            x       y       z     vdW  Elec       q    Type
REMARK                         _______ _______ _______ _____ _____    ______ ____
ROOT
ATOM      1  C   UNL     1      -0.316  11.084  21.863  0.00  0.00    +0.000 A 
ATOM      2  C   UNL     1      -0.358   9.823  22.421  0.00  0.00    +0.000 A 
ATOM      3  N   UNL     1       0.212   8.735  21.863  0.00  0.00    +0.000 NA
ATOM      4  C   UNL     1       0.843   8.919  20.682  0.00  0.00    +0.000 A 
ATOM      5  N   UNL     1       1.565   7.813  20.094  0.00  0.00    +0.000 N 
ATOM      6  N   UNL     1       1.720   6.635  20.770  0.00  0.00    +0.000 NA
ATOM      7  C   UNL     1       2.447   5.876  19.953  0.00  0.00    +0.000 A 
ATOM      8  C   UNL     1       2.714   6.508  18.726  0.00  0.00    +0.000 A 
ATOM      9  C   UNL     1       2.209   7.783  18.854  0.00  0.00    +0.000 A 
ATOM     10  C   UNL     1       2.278   8.931  17.914  0.00  0.00    +0.000 C 
ATOM     11  N   UNL     1       0.883  10.103  20.032  0.00  0.00    +0.000 NA
ATOM     12  C   UNL     1       0.316  11.156  20.642  0.00  0.00    +0.000 A 
ENDROOT
BRANCH   1  14
ATOM     13  C   UNL     1      -2.236  12.068  23.100  0.00  0.00    +0.000 C 
ATOM     14  C   UNL     1      -0.835  12.306  22.550  0.00  0.00    +0.000 C 
ENDBRANCH   1  14
BRANCH   7  15
ATOM     15  O   UNL     1       2.778   4.610  20.301  0.00  0.00    +0.000 OA
BRANCH  15  16
ATOM     16  C   UNL     1       1.722   3.831  20.871  0.00  0.00    +0.000 C 
ATOM     17  C   UNL     1       0.875   3.190  19.773  0.00  0.00    +0.000 C 
ATOM     18  C   UNL     1       2.386   2.727  21.697  0.00  0.00    +0.000 C 
ENDBRANCH  15  16
ENDBRANCH   7  15
BRANCH   8  19
ATOM     19  O   UNL     1       3.365   6.093  17.610  0.00  0.00    +0.000 OA
BRANCH  19  20
ATOM     20  C   UNL     1       4.726   5.921  17.613  0.00  0.00    +0.000 A 
ATOM     21  C   UNL     1       5.318   4.673  17.838  0.00  0.00    +0.000 A 
ATOM     22  C   UNL     1       6.704   4.562  17.923  0.00  0.00    +0.000 A 
ATOM     23  C   UNL     1       7.498   5.687  17.717  0.00  0.00    +0.000 A 
ATOM     24  C   UNL     1       6.900   6.904  17.408  0.00  0.00    +0.000 A 
ATOM     25  F   UNL     1       7.672   7.976  17.184  0.00  0.00    +0.000 F 
ATOM     26  C   UNL     1       5.517   7.035  17.347  0.00  0.00    +0.000 A 
ENDBRANCH  19  20
ENDBRANCH   8  19
TORSDOF 5
ENDMDL
MODEL 2
REMARK VINA RESULT:      -8.0      1.006      1.133
REMARK  Name = 
REMARK  9 active torsions:
REMARK  status: ('A' for Active; 'I' for Inactive)
REMARK    1  A    between atoms: C_1  and  C_2
REMARK    2  A    between atoms: C_2  and  C_3
REMARK    3  A    between atoms: C_9  and  O_10
REMARK    4  A    between atoms: O_10  and  C_11
REMARK    5  A    between atoms: C_11  and  C_12
REMARK    6  A    between atoms: C_11  and  C_13
REMARK    7  A    between atoms: C_14  and  O_15
REMARK    8  A    between atoms: O_15  and  C_16
REMARK    9  A    between atoms: C_23  and  C_24
REMARK                            x       y       z     vdW  Elec       q    Type
REMARK                         _______ _______ _______ _____ _____    ______ ____
ROOT
ATOM      1  C   UNL     1      -0.053  11.192  21.467  0.00  0.00    +0.000 A 
ATOM      2  C   UNL     1      -0.245   9.981  22.099  0.00  0.00    +0.000 A 
ATOM      3  N   UNL     1       0.250   8.810  21.647  0.00  0.00    +0.000 NA
ATOM      4  C   UNL     1       0.959   8.855  20.497  0.00  0.00    +0.000 A 
ATOM      5  N   UNL     1       1.604   7.651  20.024  0.00  0.00    +0.000 N 
ATOM      6  N   UNL     1       1.610   6.512  20.781  0.00  0.00    +0.000 NA
ATOM      7  C   UNL     1       2.306   5.637  20.059  0.00  0.00    +0.000 A 
ATOM      8  C   UNL     1       2.698   6.157  18.814  0.00  0.00    +0.000 A 
ATOM      9  C   UNL     1       2.311   7.478  18.831  0.00  0.00    +0.000 A 
ATOM     10  C   UNL     1       2.539   8.549  17.827  0.00  0.00    +0.000 C 
ATOM     11  N   UNL     1       1.146   9.984  19.778  0.00  0.00    +0.000 NA
ATOM     12  C   UNL     1       0.649  11.124  20.285  0.00  0.00    +0.000 A 
ENDROOT
BRANCH   1  14
ATOM     13  C   UNL     1      -1.635  12.304  23.032  0.00  0.00    +0.000 C 
ATOM     14  C   UNL     1      -0.491  12.500  22.043  0.00  0.00    +0.000 C 
ENDBRANCH   1  14
BRANCH   7  15
ATOM     15  O   UNL     1       2.495   4.373  20.506  0.00  0.00    +0.000 OA
BRANCH  15  16
ATOM     16  C   UNL     1       1.307   3.593  20.674  0.00  0.00    +0.000 C 
ATOM     17  C   UNL     1       0.926   2.905  19.365  0.00  0.00    +0.000 C 
ATOM     18  C   UNL     1       1.627   2.526  21.724  0.00  0.00    +0.000 C 
ENDBRANCH  15  16
ENDBRANCH   7  15
BRANCH   8  19
ATOM     19  O   UNL     1       3.368   5.610  17.768  0.00  0.00    +0.000 OA
BRANCH  19  20
ATOM     20  C   UNL     1       4.739   5.628  17.723  0.00  0.00    +0.000 A 
ATOM     21  C   UNL     1       5.443   5.712  16.516  0.00  0.00    +0.000 A 
ATOM     22  C   UNL     1       6.834   5.635  16.511  0.00  0.00    +0.000 A 
ATOM     23  C   UNL     1       7.521   5.541  17.718  0.00  0.00    +0.000 A 
ATOM     24  C   UNL     1       6.814   5.545  18.916  0.00  0.00    +0.000 A 
ATOM     25  F   UNL     1       7.484   5.481  20.074  0.00  0.00    +0.000 F 
ATOM     26  C   UNL     1       5.425   5.594  18.934  0.00  0.00    +0.000 A 
ENDBRANCH  19  20
ENDBRANCH   8  19
TORSDOF 5
ENDMDL
MODEL 3
REMARK VINA RESULT:      -8.0      1.142      1.227
REMARK  Name = 
REMARK  9 active torsions:
REMARK  status: ('A' for Active; 'I' for Inactive)
REMARK    1  A    between atoms: C_1  and  C_2
REMARK    2  A    between atoms: C_2  and  C_3
REMARK    3  A    between atoms: C_9  and  O_10
REMARK    4  A    between atoms: O_10  and  C_11
REMARK    5  A    between atoms: C_11  and  C_12
REMARK    6  A    between atoms: C_11  and  C_13
REMARK    7  A    between atoms: C_14  and  O_15
REMARK    8  A    between atoms: O_15  and  C_16
REMARK    9  A    between atoms: C_23  and  C_24
REMARK                            x       y       z     vdW  Elec       q    Type
REMARK                         _______ _______ _______ _____ _____    ______ ____
ROOT
ATOM      1  C   UNL     1       0.083  11.178  21.451  0.00  0.00    +0.000 A 
ATOM      2  C   UNL     1      -0.094   9.966  22.087  0.00  0.00    +0.000 A 
ATOM      3  N   UNL     1       0.382   8.795  21.617  0.00  0.00    +0.000 NA
ATOM      4  C   UNL     1       1.055   8.840  20.445  0.00  0.00    +0.000 A 
ATOM      5  N   UNL     1       1.680   7.634  19.950  0.00  0.00    +0.000 N 
ATOM      6  N   UNL     1       1.705   6.494  20.704  0.00  0.00    +0.000 NA
ATOM      7  C   UNL     1       2.375   5.617  19.959  0.00  0.00    +0.000 A 
ATOM      8  C   UNL     1       2.730   6.138  18.703  0.00  0.00    +0.000 A 
ATOM      9  C   UNL     1       2.348   7.461  18.735  0.00  0.00    +0.000 A 
ATOM     10  C   UNL     1       2.549   8.533  17.726  0.00  0.00    +0.000 C 
ATOM     11  N   UNL     1       1.224   9.969  19.723  0.00  0.00    +0.000 NA
ATOM     12  C   UNL     1       0.747  11.110  20.247  0.00  0.00    +0.000 A 
ENDROOT
BRANCH   1  14
ATOM     13  C   UNL     1      -1.568  12.321  22.920  0.00  0.00    +0.000 C 
ATOM     14  C   UNL     1      -0.332  12.487  22.044  0.00  0.00    +0.000 C 
ENDBRANCH   1  14
BRANCH   7  15
ATOM     15  O   UNL     1       2.573   4.351  20.397  0.00  0.00    +0.000 OA
BRANCH  15  16
ATOM     16  C   UNL     1       1.415   3.511  20.400  0.00  0.00    +0.000 C 
ATOM     17  C   UNL     1       1.399   2.614  19.164  0.00  0.00    +0.000 C 
ATOM     18  C   UNL     1       1.512   2.634  21.651  0.00  0.00    +0.000 C 
ENDBRANCH  15  16
ENDBRANCH   7  15
BRANCH   8  19
ATOM     19  O   UNL     1       3.364   5.591  17.636  0.00  0.00    +0.000 OA
BRANCH  19  20
ATOM     20  C   UNL     1       4.711   5.333  17.674  0.00  0.00    +0.000 A 
ATOM     21  C   UNL     1       5.473   5.523  18.833  0.00  0.00    +0.000 A 
ATOM     22  C   UNL     1       6.852   5.336  18.801  0.00  0.00    +0.000 A 
ATOM     23  C   UNL     1       7.460   4.896  17.628  0.00  0.00    +0.000 A 
ATOM     24  C   UNL     1       6.680   4.628  16.507  0.00  0.00    +0.000 A 
ATOM     25  F   UNL     1       7.268   4.179  15.390  0.00  0.00    +0.000 F 
ATOM     26  C   UNL     1       5.305   4.837  16.518  0.00  0.00    +0.000 A 
ENDBRANCH  19  20
ENDBRANCH   8  19
TORSDOF 5
ENDMDL
MODEL 4
REMARK VINA RESULT:      -7.8      1.073      1.128
REMARK  Name = 
REMARK  9 active torsions:
REMARK  status: ('A' for Active; 'I' for Inactive)
REMARK    1  A    between atoms: C_1  and  C_2
REMARK    2  A    between atoms: C_2  and  C_3
REMARK    3  A    between atoms: C_9  and  O_10
REMARK    4  A    between atoms: O_10  and  C_11
REMARK    5  A    between atoms: C_11  and  C_12
REMARK    6  A    between atoms: C_11  and  C_13
REMARK    7  A    between atoms: C_14  and  O_15
REMARK    8  A    between atoms: O_15  and  C_16
REMARK    9  A    between atoms: C_23  and  C_24
REMARK                            x       y       z     vdW  Elec       q    Type
REMARK                         _______ _______ _______ _____ _____    ______ ____
ROOT
ATOM      1  C   UNL     1      -0.506  10.581  22.135  0.00  0.00    +0.000 A 
ATOM      2  C   UNL     1      -0.366   9.252  22.480  0.00  0.00    +0.000 A 
ATOM      3  N   UNL     1       0.318   8.353  21.744  0.00  0.00    +0.000 NA
ATOM      4  C   UNL     1       0.876   8.805  20.599  0.00  0.00    +0.000 A 
ATOM      5  N   UNL     1       1.712   7.912  19.827  0.00  0.00    +0.000 N 
ATOM      6  N   UNL     1       2.041   6.672  20.299  0.00  0.00    +0.000 NA
ATOM      7  C   UNL     1       2.829   6.156  19.359  0.00  0.00    +0.000 A 
ATOM      8  C   UNL     1       2.968   7.006  18.248  0.00  0.00    +0.000 A 
ATOM      9  C   UNL     1       2.309   8.166  18.590  0.00  0.00    +0.000 A 
ATOM     10  C   UNL     1       2.196   9.449  17.849  0.00  0.00    +0.000 C 
ATOM     11  N   UNL     1       0.741  10.072  20.150  0.00  0.00    +0.000 NA
ATOM     12  C   UNL     1       0.066  10.930  20.933  0.00  0.00    +0.000 A 
ENDROOT
BRANCH   1  14
ATOM     13  C   UNL     1      -0.904  13.009  22.499  0.00  0.00    +0.000 C 
ATOM     14  C   UNL     1      -1.152  11.598  23.020  0.00  0.00    +0.000 C 
ENDBRANCH   1  14
BRANCH   7  15
ATOM     15  O   UNL     1       3.331   4.906  19.491  0.00  0.00    +0.000 OA
BRANCH  15  16
ATOM     16  C   UNL     1       2.387   3.842  19.335  0.00  0.00    +0.000 C 
ATOM     17  C   UNL     1       1.679   3.946  17.987  0.00  0.00    +0.000 C 
ATOM     18  C   UNL     1       3.185   2.536  19.381  0.00  0.00    +0.000 C 
ENDBRANCH  15  16
ENDBRANCH   7  15
BRANCH   8  19
ATOM     19  O   UNL     1       3.626   6.864  17.069  0.00  0.00    +0.000 OA
BRANCH  19  20
ATOM     20  C   UNL     1       4.821   6.193  17.006  0.00  0.00    +0.000 A 
ATOM     21  C   UNL     1       4.947   4.959  16.358  0.00  0.00    +0.000 A 
ATOM     22  C   UNL     1       6.157   4.270  16.398  0.00  0.00    +0.000 A 
ATOM     23  C   UNL     1       7.256   4.846  17.029  0.00  0.00    +0.000 A 
ATOM     24  C   UNL     1       7.140   6.111  17.595  0.00  0.00    +0.000 A 
ATOM     25  F   UNL     1       8.210   6.671  18.177  0.00  0.00    +0.000 F 
ATOM     26  C   UNL     1       5.932   6.798  17.586  0.00  0.00    +0.000 A 
ENDBRANCH  19  20
ENDBRANCH   8  19
TORSDOF 5
ENDMDL
MODEL 5
REMARK VINA RESULT:      -7.5      1.137      1.218
REMARK  Name = 
REMARK  9 active torsions:
REMARK  status: ('A' for Active; 'I' for Inactive)
REMARK    1  A    between atoms: C_1  and  C_2
REMARK    2  A    between atoms: C_2  and  C_3
REMARK    3  A    between atoms: C_9  and  O_10
REMARK    4  A    between atoms: O_10  and  C_11
REMARK    5  A    between atoms: C_11  and  C_12
REMARK    6  A    between atoms: C_11  and  C_13
REMARK    7  A    between atoms: C_14  and  O_15
REMARK    8  A    between atoms: O_15  and  C_16
REMARK    9  A    between atoms: C_23  and  C_24
REMARK                            x       y       z     vdW  Elec       q    Type
REMARK                         _______ _______ _______ _____ _____    ______ ____
ROOT
ATOM      1  C   UNL     1      -0.375  11.693  20.061  0.00  0.00    +0.000 A 
ATOM      2  C   UNL     1      -0.648  10.604  20.864  0.00  0.00    +0.000 A 
ATOM      3  N   UNL     1      -0.048   9.403  20.728  0.00  0.00    +0.000 NA
ATOM      4  C   UNL     1       0.857   9.285  19.731  0.00  0.00    +0.000 A 
ATOM      5  N   UNL     1       1.609   8.056  19.609  0.00  0.00    +0.000 N 
ATOM      6  N   UNL     1       1.506   7.072  20.553  0.00  0.00    +0.000 NA
ATOM      7  C   UNL     1       2.345   6.125  20.138  0.00  0.00    +0.000 A 
ATOM      8  C   UNL     1       2.944   6.439  18.906  0.00  0.00    +0.000 A 
ATOM      9  C   UNL     1       2.525   7.717  18.611  0.00  0.00    +0.000 A 
ATOM     10  C   UNL     1       2.905   8.604  17.481  0.00  0.00    +0.000 C 
ATOM     11  N   UNL     1       1.143  10.278  18.860  0.00  0.00    +0.000 NA
ATOM     12  C   UNL     1       0.532  11.458  19.053  0.00  0.00    +0.000 A 
ENDROOT
BRANCH   1  14
ATOM     13  C   UNL     1      -2.415  12.969  20.692  0.00  0.00    +0.000 C 
ATOM     14  C   UNL     1      -0.945  13.055  20.301  0.00  0.00    +0.000 C 
ENDBRANCH   1  14
BRANCH   7  15
ATOM     15  O   UNL     1       2.482   4.973  20.836  0.00  0.00    +0.000 OA
BRANCH  15  16
ATOM     16  C   UNL     1       1.377   4.069  20.759  0.00  0.00    +0.000 C 
ATOM     17  C   UNL     1       1.159   3.609  19.319  0.00  0.00    +0.000 C 
ATOM     18  C   UNL     1       1.740   2.856  21.620  0.00  0.00    +0.000 C 
ENDBRANCH  15  16
ENDBRANCH   7  15
BRANCH   8  19
ATOM     19  O   UNL     1       3.807   5.755  18.112  0.00  0.00    +0.000 OA
BRANCH  19  20
ATOM     20  C   UNL     1       5.162   5.845  18.306  0.00  0.00    +0.000 A 
ATOM     21  C   UNL     1       5.820   5.120  19.307  0.00  0.00    +0.000 A 
ATOM     22  C   UNL     1       7.182   5.311  19.527  0.00  0.00    +0.000 A 
ATOM     23  C   UNL     1       7.897   6.176  18.703  0.00  0.00    +0.000 A 
ATOM     24  C   UNL     1       7.248   6.825  17.657  0.00  0.00    +0.000 A 
ATOM     25  F   UNL     1       7.948   7.636  16.852  0.00  0.00    +0.000 F 
ATOM     26  C   UNL     1       5.884   6.664  17.444  0.00  0.00    +0.000 A 
ENDBRANCH  19  20
ENDBRANCH   8  19
TORSDOF 5
ENDMDL
MODEL 6
REMARK VINA RESULT:      -7.4      2.506      4.587
REMARK  Name = 
REMARK  9 active torsions:
REMARK  status: ('A' for Active; 'I' for Inactive)
REMARK    1  A    between atoms: C_1  and  C_2
REMARK    2  A    between atoms: C_2  and  C_3
REMARK    3  A    between atoms: C_9  and  O_10
REMARK    4  A    between atoms: O_10  and  C_11
REMARK    5  A    between atoms: C_11  and  C_12
REMARK    6  A    between atoms: C_11  and  C_13
REMARK    7  A    between atoms: C_14  and  O_15
REMARK    8  A    between atoms: O_15  and  C_16
REMARK    9  A    between atoms: C_23  and  C_24
REMARK                            x       y       z     vdW  Elec       q    Type
REMARK                         _______ _______ _______ _____ _____    ______ ____
ROOT
ATOM      1  C   UNL     1      -0.808  12.148  19.827  0.00  0.00    +0.000 A 
ATOM      2  C   UNL     1       0.067  12.132  18.760  0.00  0.00    +0.000 A 
ATOM      3  N   UNL     1       0.923  11.121  18.506  0.00  0.00    +0.000 NA
ATOM      4  C   UNL     1       0.912  10.083  19.373  0.00  0.00    +0.000 A 
ATOM      5  N   UNL     1       1.729   8.925  19.090  0.00  0.00    +0.000 N 
ATOM      6  N   UNL     1       2.409   8.815  17.909  0.00  0.00    +0.000 NA
ATOM      7  C   UNL     1       3.014   7.632  17.983  0.00  0.00    +0.000 A 
ATOM      8  C   UNL     1       2.801   6.994  19.217  0.00  0.00    +0.000 A 
ATOM      9  C   UNL     1       1.910   7.797  19.894  0.00  0.00    +0.000 A 
ATOM     10  C   UNL     1       1.251   7.587  21.209  0.00  0.00    +0.000 C 
ATOM     11  N   UNL     1       0.134  10.041  20.478  0.00  0.00    +0.000 NA
ATOM     12  C   UNL     1      -0.713  11.064  20.671  0.00  0.00    +0.000 A 
ENDROOT
BRANCH   1  14
ATOM     13  C   UNL     1      -3.246  12.611  19.998  0.00  0.00    +0.000 C 
ATOM     14  C   UNL     1      -1.844  13.208  20.026  0.00  0.00    +0.000 C 
ENDBRANCH   1  14
BRANCH   7  15
ATOM     15  O   UNL     1       3.806   7.200  16.973  0.00  0.00    +0.000 OA
BRANCH  15  16
ATOM     16  C   UNL     1       4.866   6.319  17.354  0.00  0.00    +0.000 C 
ATOM     17  C   UNL     1       4.891   5.087  16.453  0.00  0.00    +0.000 C 
ATOM     18  C   UNL     1       6.172   7.097  17.172  0.00  0.00    +0.000 C 
ENDBRANCH  15  16
ENDBRANCH   7  15
BRANCH   8  19
ATOM     19  O   UNL     1       3.256   5.822  19.728  0.00  0.00    +0.000 OA
BRANCH  19  20
ATOM     20  C   UNL     1       2.475   4.695  19.706  0.00  0.00    +0.000 A 
ATOM     21  C   UNL     1       1.992   4.147  18.512  0.00  0.00    +0.000 A 
ATOM     22  C   UNL     1       1.127   3.055  18.544  0.00  0.00    +0.000 A 
ATOM     23  C   UNL     1       0.800   2.472  19.765  0.00  0.00    +0.000 A 
ATOM     24  C   UNL     1       1.356   2.973  20.938  0.00  0.00    +0.000 A 
ATOM     25  F   UNL     1       1.058   2.389  22.107  0.00  0.00    +0.000 F 
ATOM     26  C   UNL     1       2.199   4.079  20.923  0.00  0.00    +0.000 A 
ENDBRANCH  19  20
ENDBRANCH   8  19
TORSDOF 5
ENDMDL
MODEL 7
REMARK VINA RESULT:      -7.3      1.796      2.085
REMARK  Name = 
REMARK  9 active torsions:
REMARK  status: ('A' for Active; 'I' for Inactive)
REMARK    1  A    between atoms: C_1  and  C_2
REMARK    2  A    between atoms: C_2  and  C_3
REMARK    3  A    between atoms: C_9  and  O_10
REMARK    4  A    between atoms: O_10  and  C_11
REMARK    5  A    between atoms: C_11  and  C_12
REMARK    6  A    between atoms: C_11  and  C_13
REMARK    7  A    between atoms: C_14  and  O_15
REMARK    8  A    between atoms: O_15  and  C_16
REMARK    9  A    between atoms: C_23  and  C_24
REMARK                            x       y       z     vdW  Elec       q    Type
REMARK                         _______ _______ _______ _____ _____    ______ ____
ROOT
ATOM      1  C   UNL     1       0.895  11.434  19.624  0.00  0.00    +0.000 A 
ATOM      2  C   UNL     1       0.560  10.490  20.573  0.00  0.00    +0.000 A 
ATOM      3  N   UNL     1       0.898   9.187  20.487  0.00  0.00    +0.000 NA
ATOM      4  C   UNL     1       1.592   8.811  19.389  0.00  0.00    +0.000 A 
ATOM      5  N   UNL     1       2.074   7.451  19.297  0.00  0.00    +0.000 N 
ATOM      6  N   UNL     1       1.947   6.587  20.349  0.00  0.00    +0.000 NA
ATOM      7  C   UNL     1       2.518   5.461  19.925  0.00  0.00    +0.000 A 
ATOM      8  C   UNL     1       2.956   5.548  18.593  0.00  0.00    +0.000 A 
ATOM      9  C   UNL     1       2.737   6.856  18.221  0.00  0.00    +0.000 A 
ATOM     10  C   UNL     1       3.085   7.555  16.957  0.00  0.00    +0.000 C 
ATOM     11  N   UNL     1       1.910   9.652  18.381  0.00  0.00    +0.000 NA
ATOM     12  C   UNL     1       1.566  10.942  18.528  0.00  0.00    +0.000 A 
ENDROOT
BRANCH   1  14
ATOM     13  C   UNL     1      -0.276  13.417  18.681  0.00  0.00    +0.000 C 
ATOM     14  C   UNL     1       0.632  12.897  19.790  0.00  0.00    +0.000 C 
ENDBRANCH   1  14
BRANCH   7  15
ATOM     15  O   UNL     1       2.553   4.366  20.721  0.00  0.00    +0.000 OA
BRANCH  15  16
ATOM     16  C   UNL     1       1.309   3.678  20.879  0.00  0.00    +0.000 C 
ATOM     17  C   UNL     1       0.893   3.010  19.570  0.00  0.00    +0.000 C 
ATOM     18  C   UNL     1       1.535   2.598  21.940  0.00  0.00    +0.000 C 
ENDBRANCH  15  16
ENDBRANCH   7  15
BRANCH   8  19
ATOM     19  O   UNL     1       3.538   4.645  17.764  0.00  0.00    +0.000 OA
BRANCH  19  20
ATOM     20  C   UNL     1       4.895   4.640  17.570  0.00  0.00    +0.000 A 
ATOM     21  C   UNL     1       5.798   4.852  18.619  0.00  0.00    +0.000 A 
ATOM     22  C   UNL     1       7.164   4.930  18.360  0.00  0.00    +0.000 A 
ATOM     23  C   UNL     1       7.631   4.731  17.063  0.00  0.00    +0.000 A 
ATOM     24  C   UNL     1       6.731   4.435  16.045  0.00  0.00    +0.000 A 
ATOM     25  F   UNL     1       7.190   4.217  14.805  0.00  0.00    +0.000 F 
ATOM     26  C   UNL     1       5.362   4.381  16.285  0.00  0.00    +0.000 A 
ENDBRANCH  19  20
ENDBRANCH   8  19
TORSDOF 5
ENDMDL
MODEL 8
REMARK VINA RESULT:      -7.2      1.379      1.824
REMARK  Name = 
REMARK  9 active torsions:
REMARK  status: ('A' for Active; 'I' for Inactive)
REMARK    1  A    between atoms: C_1  and  C_2
REMARK    2  A    between atoms: C_2  and  C_3
REMARK    3  A    between atoms: C_9  and  O_10
REMARK    4  A    between atoms: O_10  and  C_11
REMARK    5  A    between atoms: C_11  and  C_12
REMARK    6  A    between atoms: C_11  and  C_13
REMARK    7  A    between atoms: C_14  and  O_15
REMARK    8  A    between atoms: O_15  and  C_16
REMARK    9  A    between atoms: C_23  and  C_24
REMARK                            x       y       z     vdW  Elec       q    Type
REMARK                         _______ _______ _______ _____ _____    ______ ____
ROOT
ATOM      1  C   UNL     1       0.306  11.863  20.103  0.00  0.00    +0.000 A 
ATOM      2  C   UNL     1      -0.036  10.879  21.008  0.00  0.00    +0.000 A 
ATOM      3  N   UNL     1       0.367   9.595  20.910  0.00  0.00    +0.000 NA
ATOM      4  C   UNL     1       1.138   9.281  19.845  0.00  0.00    +0.000 A 
ATOM      5  N   UNL     1       1.688   7.947  19.748  0.00  0.00    +0.000 N 
ATOM      6  N   UNL     1       1.542   7.050  20.770  0.00  0.00    +0.000 NA
ATOM      7  C   UNL     1       2.188   5.964  20.352  0.00  0.00    +0.000 A 
ATOM      8  C   UNL     1       2.696   6.106  19.050  0.00  0.00    +0.000 A 
ATOM      9  C   UNL     1       2.438   7.412  18.698  0.00  0.00    +0.000 A 
ATOM     10  C   UNL     1       2.823   8.161  17.473  0.00  0.00    +0.000 C 
ATOM     11  N   UNL     1       1.472  10.163  18.878  0.00  0.00    +0.000 NA
ATOM     12  C   UNL     1       1.061  11.431  19.036  0.00  0.00    +0.000 A 
ENDROOT
BRANCH   1  14
ATOM     13  C   UNL     1      -0.189  14.008  18.944  0.00  0.00    +0.000 C 
ATOM     14  C   UNL     1      -0.033  13.307  20.289  0.00  0.00    +0.000 C 
ENDBRANCH   1  14
BRANCH   7  15
ATOM     15  O   UNL     1       2.230   4.850  21.121  0.00  0.00    +0.000 OA
BRANCH  15  16
ATOM     16  C   UNL     1       2.216   3.608  20.411  0.00  0.00    +0.000 C 
ATOM     17  C   UNL     1       2.934   2.524  21.210  0.00  0.00    +0.000 C 
ATOM     18  C   UNL     1       0.746   3.214  20.244  0.00  0.00    +0.000 C 
ENDBRANCH  15  16
ENDBRANCH   7  15
BRANCH   8  19
ATOM     19  O   UNL     1       3.365   5.253  18.234  0.00  0.00    +0.000 OA
BRANCH  19  20
ATOM     20  C   UNL     1       4.735   5.277  18.162  0.00  0.00    +0.000 A 
ATOM     21  C   UNL     1       5.539   5.360  19.305  0.00  0.00    +0.000 A 
ATOM     22  C   UNL     1       6.921   5.474  19.179  0.00  0.00    +0.000 A 
ATOM     23  C   UNL     1       7.503   5.438  17.915  0.00  0.00    +0.000 A 
ATOM     24  C   UNL     1       6.699   5.269  16.792  0.00  0.00    +0.000 A 
ATOM     25  F   UNL     1       7.268   5.208  15.581  0.00  0.00    +0.000 F 
ATOM     26  C   UNL     1       5.316   5.181  16.901  0.00  0.00    +0.000 A 
ENDBRANCH  19  20
ENDBRANCH   8  19
TORSDOF 5
ENDMDL
MODEL 9
REMARK VINA RESULT:      -7.1      1.270      1.666
REMARK  Name = 
REMARK  9 active torsions:
REMARK  status: ('A' for Active; 'I' for Inactive)
REMARK    1  A    between atoms: C_1  and  C_2
REMARK    2  A    between atoms: C_2  and  C_3
REMARK    3  A    between atoms: C_9  and  O_10
REMARK    4  A    between atoms: O_10  and  C_11
REMARK    5  A    between atoms: C_11  and  C_12
REMARK    6  A    between atoms: C_11  and  C_13
REMARK    7  A    between atoms: C_14  and  O_15
REMARK    8  A    between atoms: O_15  and  C_16
REMARK    9  A    between atoms: C_23  and  C_24
REMARK                            x       y       z     vdW  Elec       q    Type
REMARK                         _______ _______ _______ _____ _____    ______ ____
ROOT
ATOM      1  C   UNL     1      -0.241  11.930  20.321  0.00  0.00    +0.000 A 
ATOM      2  C   UNL     1      -0.467  10.900  21.211  0.00  0.00    +0.000 A 
ATOM      3  N   UNL     1       0.064   9.667  21.082  0.00  0.00    +0.000 NA
ATOM      4  C   UNL     1       0.848   9.453  20.002  0.00  0.00    +0.000 A 
ATOM      5  N   UNL     1       1.531   8.185  19.872  0.00  0.00    +0.000 N 
ATOM      6  N   UNL     1       1.493   7.259  20.876  0.00  0.00    +0.000 NA
ATOM      7  C   UNL     1       2.241   6.253  20.430  0.00  0.00    +0.000 A 
ATOM      8  C   UNL     1       2.712   6.471  19.124  0.00  0.00    +0.000 A 
ATOM      9  C   UNL     1       2.316   7.750  18.801  0.00  0.00    +0.000 A 
ATOM     10  C   UNL     1       2.605   8.556  17.587  0.00  0.00    +0.000 C 
ATOM     11  N   UNL     1       1.076  10.383  19.048  0.00  0.00    +0.000 NA
ATOM     12  C   UNL     1       0.539  11.599  19.236  0.00  0.00    +0.000 A 
ENDROOT
BRANCH   1  14
ATOM     13  C   UNL     1      -1.506  13.436  21.844  0.00  0.00    +0.000 C 
ATOM     14  C   UNL     1      -0.724  13.328  20.540  0.00  0.00    +0.000 C 
ENDBRANCH   1  14
BRANCH   7  15
ATOM     15  O   UNL     1       2.408   5.135  21.176  0.00  0.00    +0.000 OA
BRANCH  15  16
ATOM     16  C   UNL     1       2.227   3.897  20.482  0.00  0.00    +0.000 C 
ATOM     17  C   UNL     1       2.584   2.718  21.385  0.00  0.00    +0.000 C 
ATOM     18  C   UNL     1       0.743   3.813  20.114  0.00  0.00    +0.000 C 
ENDBRANCH  15  16
ENDBRANCH   7  15
BRANCH   8  19
ATOM     19  O   UNL     1       3.454   5.706  18.283  0.00  0.00    +0.000 OA
BRANCH  19  20
ATOM     20  C   UNL     1       4.809   5.887  18.178  0.00  0.00    +0.000 A 
ATOM     21  C   UNL     1       5.402   6.416  17.025  0.00  0.00    +0.000 A 
ATOM     22  C   UNL     1       6.789   6.496  16.927  0.00  0.00    +0.000 A 
ATOM     23  C   UNL     1       7.579   6.110  18.006  0.00  0.00    +0.000 A 
ATOM     24  C   UNL     1       6.974   5.667  19.178  0.00  0.00    +0.000 A 
ATOM     25  F   UNL     1       7.739   5.322  20.222  0.00  0.00    +0.000 F 
ATOM     26  C   UNL     1       5.592   5.556  19.280  0.00  0.00    +0.000 A 
ENDBRANCH  19  20
ENDBRANCH   8  19
TORSDOF 5
ENDMDL
