MODEL 1
REMARK VINA RESULT:      -8.0      0.000      0.000
REMARK  Name = 
REMARK  7 active torsions:
REMARK  status: ('A' for Active; 'I' for Inactive)
REMARK    1  A    between atoms: C_1  and  C_2
REMARK    2  A    between atoms: C_2  and  C_3
REMARK    3  A    between atoms: C_3  and  N_4
REMARK    4  A    between atoms: C_8  and  O_9
REMARK    5  A    between atoms: O_9  and  C_10
REMARK    6  A    between atoms: C_11  and  O_12
REMARK    7  A    between atoms: O_12  and  C_13
REMARK                            x       y       z     vdW  Elec       q    Type
REMARK                         _______ _______ _______ _____ _____    ______ ____
ROOT
ATOM      1  N   UNL     1       1.908   6.593  20.417  0.00  0.00    +0.000 N 
ATOM      2  C   UNL     1       1.170   7.460  21.159  0.00  0.00    +0.000 A 
ATOM      3  C   UNL     1       0.772   8.706  20.656  0.00  0.00    +0.000 A 
ATOM      4  C   UNL     1       0.288   9.709  21.490  0.00  0.00    +0.000 A 
ATOM      5  C   UNL     1       0.056  10.974  20.951  0.00  0.00    +0.000 A 
ATOM      6  C   UNL     1      -0.252  11.066  19.596  0.00  0.00    +0.000 A 
ATOM      7  C   UNL     1       0.360  10.142  18.756  0.00  0.00    +0.000 A 
ATOM      8  C   UNL     1       0.998   9.026  19.310  0.00  0.00    +0.000 A 
ATOM      9  C   UNL     1       1.934   8.231  18.669  0.00  0.00    +0.000 A 
ATOM     10  C   UNL     1       2.375   7.011  19.216  0.00  0.00    +0.000 A 
ATOM     11  C   UNL     1       3.461   6.472  18.421  0.00  0.00    +0.000 A 
ATOM     12  C   UNL     1       4.194   5.294  18.469  0.00  0.00    +0.000 A 
ATOM     13  C   UNL     1       5.213   5.152  17.547  0.00  0.00    +0.000 A 
ATOM     14  C   UNL     1       5.526   6.122  16.618  0.00  0.00    +0.000 A 
ATOM     15  C   UNL     1       4.825   7.303  16.527  0.00  0.00    +0.000 A 
ATOM     16  C   UNL     1       3.774   7.451  17.422  0.00  0.00    +0.000 A 
ATOM     17  C   UNL     1       2.830   8.633  17.510  0.00  0.00    +0.000 C 
ATOM     18  O   UNL     1       6.569   5.756  15.827  0.00  0.00    +0.000 OA
ATOM     19  C   UNL     1       6.845   4.428  16.323  0.00  0.00    +0.000 C 
ATOM     20  O   UNL     1       6.015   4.057  17.445  0.00  0.00    +0.000 OA
ENDROOT
BRANCH   5  21
ATOM     21  O   UNL     1       0.417  12.003  21.770  0.00  0.00    +0.000 OA
ATOM     22  C   UNL     1      -0.656  12.639  22.474  0.00  0.00    +0.000 C 
ENDBRANCH   5  21
BRANCH   6  23
ATOM     23  O   UNL     1      -1.010  12.117  19.165  0.00  0.00    +0.000 OA
ATOM     24  C   UNL     1      -0.300  13.126  18.427  0.00  0.00    +0.000 C 
ENDBRANCH   6  23
BRANCH   1  25
ATOM     25  C   UNL     1       2.127   5.242  20.964  0.00  0.00    +0.000 C 
BRANCH  25  27
ATOM     26  C   UNL     1       1.324   2.870  20.995  0.00  0.00    +0.000 C 
ATOM     27  C   UNL     1       1.066   4.272  20.467  0.00  0.00    +0.000 C 
ENDBRANCH  25  27
ENDBRANCH   1  25
TORSDOF 4
ENDMDL
MODEL 2
REMARK VINA RESULT:      -7.5      1.360      1.703
REMARK  Name = 
REMARK  7 active torsions:
REMARK  status: ('A' for Active; 'I' for Inactive)
REMARK    1  A    between atoms: C_1  and  C_2
REMARK    2  A    between atoms: C_2  and  C_3
REMARK    3  A    between atoms: C_3  and  N_4
REMARK    4  A    between atoms: C_8  and  O_9
REMARK    5  A    between atoms: O_9  and  C_10
REMARK    6  A    between atoms: C_11  and  O_12
REMARK    7  A    between atoms: O_12  and  C_13
REMARK                            x       y       z     vdW  Elec       q    Type
REMARK                         _______ _______ _______ _____ _____    ______ ____
ROOT
ATOM      1  N   UNL     1       2.101   5.167  19.406  0.00  0.00    +0.000 N 
ATOM      2  C   UNL     1       1.448   5.779  20.429  0.00  0.00    +0.000 A 
ATOM      3  C   UNL     1       1.244   7.166  20.446  0.00  0.00    +0.000 A 
ATOM      4  C   UNL     1       0.855   7.832  21.604  0.00  0.00    +0.000 A 
ATOM      5  C   UNL     1       0.819   9.226  21.596  0.00  0.00    +0.000 A 
ATOM      6  C   UNL     1       0.595   9.871  20.382  0.00  0.00    +0.000 A 
ATOM      7  C   UNL     1       1.122   9.262  19.249  0.00  0.00    +0.000 A 
ATOM      8  C   UNL     1       1.578   7.941  19.327  0.00  0.00    +0.000 A 
ATOM      9  C   UNL     1       2.432   7.328  18.425  0.00  0.00    +0.000 A 
ATOM     10  C   UNL     1       2.679   5.942  18.458  0.00  0.00    +0.000 A 
ATOM     11  C   UNL     1       3.724   5.600  17.512  0.00  0.00    +0.000 A 
ATOM     12  C   UNL     1       4.292   4.402  17.100  0.00  0.00    +0.000 A 
ATOM     13  C   UNL     1       5.328   4.481  16.189  0.00  0.00    +0.000 A 
ATOM     14  C   UNL     1       5.813   5.677  15.705  0.00  0.00    +0.000 A 
ATOM     15  C   UNL     1       5.280   6.890  16.079  0.00  0.00    +0.000 A 
ATOM     16  C   UNL     1       4.214   6.831  16.966  0.00  0.00    +0.000 A 
ATOM     17  C   UNL     1       3.431   8.011  17.507  0.00  0.00    +0.000 C 
ATOM     18  O   UNL     1       6.838   5.498  14.830  0.00  0.00    +0.000 OA
ATOM     19  C   UNL     1       6.911   4.057  14.775  0.00  0.00    +0.000 C 
ATOM     20  O   UNL     1       5.983   3.407  15.670  0.00  0.00    +0.000 OA
ENDROOT
BRANCH   5  21
ATOM     21  O   UNL     1       1.271   9.802  22.746  0.00  0.00    +0.000 OA
ATOM     22  C   UNL     1       0.503   9.520  23.922  0.00  0.00    +0.000 C 
ENDBRANCH   5  21
BRANCH   6  23
ATOM     23  O   UNL     1       0.005  11.102  20.393  0.00  0.00    +0.000 OA
ATOM     24  C   UNL     1      -1.097  11.265  19.485  0.00  0.00    +0.000 C 
ENDBRANCH   6  23
BRANCH   1  25
ATOM     25  C   UNL     1       2.112   3.694  19.390  0.00  0.00    +0.000 C 
BRANCH  25  27
ATOM     26  C   UNL     1       1.707   2.554  21.584  0.00  0.00    +0.000 C 
ATOM     27  C   UNL     1       1.061   3.129  20.334  0.00  0.00    +0.000 C 
ENDBRANCH  25  27
ENDBRANCH   1  25
TORSDOF 4
ENDMDL
MODEL 3
REMARK VINA RESULT:      -7.1      3.424      6.196
REMARK  Name = 
REMARK  7 active torsions:
REMARK  status: ('A' for Active; 'I' for Inactive)
REMARK    1  A    between atoms: C_1  and  C_2
REMARK    2  A    between atoms: C_2  and  C_3
REMARK    3  A    between atoms: C_3  and  N_4
REMARK    4  A    between atoms: C_8  and  O_9
REMARK    5  A    between atoms: O_9  and  C_10
REMARK    6  A    between atoms: C_11  and  O_12
REMARK    7  A    between atoms: O_12  and  C_13
REMARK                            x       y       z     vdW  Elec       q    Type
REMARK                         _______ _______ _______ _____ _____    ______ ____
ROOT
ATOM      1  N   UNL     1      -1.745  11.879  19.195  0.00  0.00    +0.000 N 
ATOM      2  C   UNL     1      -2.838  12.512  19.697  0.00  0.00    +0.000 A 
ATOM      3  C   UNL     1      -3.055  12.622  21.078  0.00  0.00    +0.000 A 
ATOM      4  C   UNL     1      -4.293  12.991  21.595  0.00  0.00    +0.000 A 
ATOM      5  C   UNL     1      -4.487  12.932  22.975  0.00  0.00    +0.000 A 
ATOM      6  C   UNL     1      -3.378  13.083  23.803  0.00  0.00    +0.000 A 
ATOM      7  C   UNL     1      -2.175  12.574  23.328  0.00  0.00    +0.000 A 
ATOM      8  C   UNL     1      -2.065  12.210  21.982  0.00  0.00    +0.000 A 
ATOM      9  C   UNL     1      -1.094  11.379  21.446  0.00  0.00    +0.000 A 
ATOM     10  C   UNL     1      -0.928  11.227  20.057  0.00  0.00    +0.000 A 
ATOM     11  C   UNL     1       0.045  10.186  19.782  0.00  0.00    +0.000 A 
ATOM     12  C   UNL     1       0.620   9.692  18.620  0.00  0.00    +0.000 A 
ATOM     13  C   UNL     1       1.496   8.631  18.756  0.00  0.00    +0.000 A 
ATOM     14  C   UNL     1       1.794   8.056  19.973  0.00  0.00    +0.000 A 
ATOM     15  C   UNL     1       1.253   8.514  21.153  0.00  0.00    +0.000 A 
ATOM     16  C   UNL     1       0.398   9.601  21.042  0.00  0.00    +0.000 A 
ATOM     17  C   UNL     1      -0.299  10.315  22.183  0.00  0.00    +0.000 C 
ATOM     18  O   UNL     1       2.672   7.025  19.850  0.00  0.00    +0.000 OA
ATOM     19  C   UNL     1       2.936   7.049  18.431  0.00  0.00    +0.000 C 
ATOM     20  O   UNL     1       2.157   8.040  17.725  0.00  0.00    +0.000 OA
ENDROOT
BRANCH   5  21
ATOM     21  O   UNL     1      -5.715  12.469  23.345  0.00  0.00    +0.000 OA
ATOM     22  C   UNL     1      -6.800  12.833  22.482  0.00  0.00    +0.000 C 
ENDBRANCH   5  21
BRANCH   6  23
ATOM     23  O   UNL     1      -3.561  13.588  25.058  0.00  0.00    +0.000 OA
ATOM     24  C   UNL     1      -2.964  14.874  25.297  0.00  0.00    +0.000 C 
ENDBRANCH   6  23
BRANCH   1  25
ATOM     25  C   UNL     1      -1.514  11.967  17.743  0.00  0.00    +0.000 C 
BRANCH  25  27
ATOM     26  C   UNL     1      -2.396   9.902  16.633  0.00  0.00    +0.000 C 
ATOM     27  C   UNL     1      -2.673  11.359  16.967  0.00  0.00    +0.000 C 
ENDBRANCH  25  27
ENDBRANCH   1  25
TORSDOF 4
ENDMDL
MODEL 4
REMARK VINA RESULT:      -7.1      1.732      8.047
REMARK  Name = 
REMARK  7 active torsions:
REMARK  status: ('A' for Active; 'I' for Inactive)
REMARK    1  A    between atoms: C_1  and  C_2
REMARK    2  A    between atoms: C_2  and  C_3
REMARK    3  A    between atoms: C_3  and  N_4
REMARK    4  A    between atoms: C_8  and  O_9
REMARK    5  A    between atoms: O_9  and  C_10
REMARK    6  A    between atoms: C_11  and  O_12
REMARK    7  A    between atoms: O_12  and  C_13
REMARK                            x       y       z     vdW  Elec       q    Type
REMARK                         _______ _______ _______ _____ _____    ______ ____
ROOT
ATOM      1  N   UNL     1       2.011   8.979  18.376  0.00  0.00    +0.000 N 
ATOM      2  C   UNL     1       2.961   8.135  17.893  0.00  0.00    +0.000 A 
ATOM      3  C   UNL     1       3.216   6.894  18.493  0.00  0.00    +0.000 A 
ATOM      4  C   UNL     1       4.367   6.167  18.204  0.00  0.00    +0.000 A 
ATOM      5  C   UNL     1       4.637   5.018  18.946  0.00  0.00    +0.000 A 
ATOM      6  C   UNL     1       3.564   4.323  19.497  0.00  0.00    +0.000 A 
ATOM      7  C   UNL     1       2.480   5.086  19.917  0.00  0.00    +0.000 A 
ATOM      8  C   UNL     1       2.387   6.424  19.520  0.00  0.00    +0.000 A 
ATOM      9  C   UNL     1       1.597   7.392  20.122  0.00  0.00    +0.000 A 
ATOM     10  C   UNL     1       1.400   8.659  19.542  0.00  0.00    +0.000 A 
ATOM     11  C   UNL     1       0.667   9.516  20.454  0.00  0.00    +0.000 A 
ATOM     12  C   UNL     1       0.159  10.804  20.362  0.00  0.00    +0.000 A 
ATOM     13  C   UNL     1      -0.455  11.318  21.488  0.00  0.00    +0.000 A 
ATOM     14  C   UNL     1      -0.560  10.617  22.671  0.00  0.00    +0.000 A 
ATOM     15  C   UNL     1      -0.076   9.336  22.810  0.00  0.00    +0.000 A 
ATOM     16  C   UNL     1       0.513   8.788  21.679  0.00  0.00    +0.000 A 
ATOM     17  C   UNL     1       1.091   7.393  21.554  0.00  0.00    +0.000 C 
ATOM     18  O   UNL     1      -1.196  11.333  23.636  0.00  0.00    +0.000 OA
ATOM     19  C   UNL     1      -1.528  12.540  22.916  0.00  0.00    +0.000 C 
ATOM     20  O   UNL     1      -1.021  12.553  21.564  0.00  0.00    +0.000 OA
ENDROOT
BRANCH   5  21
ATOM     21  O   UNL     1       5.954   4.856  19.263  0.00  0.00    +0.000 OA
ATOM     22  C   UNL     1       6.857   4.812  18.152  0.00  0.00    +0.000 C 
ENDBRANCH   5  21
BRANCH   6  23
ATOM     23  O   UNL     1       3.693   2.981  19.713  0.00  0.00    +0.000 OA
ATOM     24  C   UNL     1       3.382   2.144  18.587  0.00  0.00    +0.000 C 
ENDBRANCH   6  23
BRANCH   1  25
ATOM     25  C   UNL     1       1.696  10.177  17.578  0.00  0.00    +0.000 C 
BRANCH  25  27
ATOM     26  C   UNL     1       2.100  12.585  18.137  0.00  0.00    +0.000 C 
ATOM     27  C   UNL     1       2.748  11.258  17.777  0.00  0.00    +0.000 C 
ENDBRANCH  25  27
ENDBRANCH   1  25
TORSDOF 4
ENDMDL
MODEL 5
REMARK VINA RESULT:      -7.0      1.789      4.021
REMARK  Name = 
REMARK  7 active torsions:
REMARK  status: ('A' for Active; 'I' for Inactive)
REMARK    1  A    between atoms: C_1  and  C_2
REMARK    2  A    between atoms: C_2  and  C_3
REMARK    3  A    between atoms: C_3  and  N_4
REMARK    4  A    between atoms: C_8  and  O_9
REMARK    5  A    between atoms: O_9  and  C_10
REMARK    6  A    between atoms: C_11  and  O_12
REMARK    7  A    between atoms: O_12  and  C_13
REMARK                            x       y       z     vdW  Elec       q    Type
REMARK                         _______ _______ _______ _____ _____    ______ ____
ROOT
ATOM      1  N   UNL     1       2.860   7.783  17.879  0.00  0.00    +0.000 N 
ATOM      2  C   UNL     1       2.284   9.014  17.902  0.00  0.00    +0.000 A 
ATOM      3  C   UNL     1       1.549   9.463  19.008  0.00  0.00    +0.000 A 
ATOM      4  C   UNL     1       0.716  10.574  18.928  0.00  0.00    +0.000 A 
ATOM      5  C   UNL     1      -0.104  10.876  20.016  0.00  0.00    +0.000 A 
ATOM      6  C   UNL     1       0.313  10.480  21.283  0.00  0.00    +0.000 A 
ATOM      7  C   UNL     1       1.021   9.285  21.359  0.00  0.00    +0.000 A 
ATOM      8  C   UNL     1       1.519   8.706  20.188  0.00  0.00    +0.000 A 
ATOM      9  C   UNL     1       1.915   7.386  20.045  0.00  0.00    +0.000 A 
ATOM     10  C   UNL     1       2.596   6.932  18.900  0.00  0.00    +0.000 A 
ATOM     11  C   UNL     1       2.745   5.490  18.947  0.00  0.00    +0.000 A 
ATOM     12  C   UNL     1       3.381   4.563  18.133  0.00  0.00    +0.000 A 
ATOM     13  C   UNL     1       3.260   3.232  18.485  0.00  0.00    +0.000 A 
ATOM     14  C   UNL     1       2.534   2.808  19.578  0.00  0.00    +0.000 A 
ATOM     15  C   UNL     1       1.890   3.689  20.417  0.00  0.00    +0.000 A 
ATOM     16  C   UNL     1       2.029   5.033  20.101  0.00  0.00    +0.000 A 
ATOM     17  C   UNL     1       1.453   6.201  20.876  0.00  0.00    +0.000 C 
ATOM     18  O   UNL     1       2.555   1.456  19.713  0.00  0.00    +0.000 OA
ATOM     19  C   UNL     1       3.418   1.078  18.618  0.00  0.00    +0.000 C 
ATOM     20  O   UNL     1       3.833   2.200  17.809  0.00  0.00    +0.000 OA
ENDROOT
BRANCH   5  21
ATOM     21  O   UNL     1      -1.354  11.300  19.671  0.00  0.00    +0.000 OA
ATOM     22  C   UNL     1      -1.706  11.130  18.293  0.00  0.00    +0.000 C 
ENDBRANCH   5  21
BRANCH   6  23
ATOM     23  O   UNL     1      -0.107  11.198  22.366  0.00  0.00    +0.000 OA
ATOM     24  C   UNL     1      -1.121  10.569  23.167  0.00  0.00    +0.000 C 
ENDBRANCH   6  23
BRANCH   1  25
ATOM     25  C   UNL     1       3.755   7.471  16.751  0.00  0.00    +0.000 C 
BRANCH  25  27
ATOM     26  C   UNL     1       5.946   6.312  16.387  0.00  0.00    +0.000 C 
ATOM     27  C   UNL     1       5.197   7.342  17.218  0.00  0.00    +0.000 C 
ENDBRANCH  25  27
ENDBRANCH   1  25
TORSDOF 4
ENDMDL
MODEL 6
REMARK VINA RESULT:      -6.9      2.163      7.698
REMARK  Name = 
REMARK  7 active torsions:
REMARK  status: ('A' for Active; 'I' for Inactive)
REMARK    1  A    between atoms: C_1  and  C_2
REMARK    2  A    between atoms: C_2  and  C_3
REMARK    3  A    between atoms: C_3  and  N_4
REMARK    4  A    between atoms: C_8  and  O_9
REMARK    5  A    between atoms: O_9  and  C_10
REMARK    6  A    between atoms: C_11  and  O_12
REMARK    7  A    between atoms: O_12  and  C_13
REMARK                            x       y       z     vdW  Elec       q    Type
REMARK                         _______ _______ _______ _____ _____    ______ ____
ROOT
ATOM      1  N   UNL     1       3.969   4.350  18.588  0.00  0.00    +0.000 N 
ATOM      2  C   UNL     1       4.632   3.549  17.713  0.00  0.00    +0.000 A 
ATOM      3  C   UNL     1       5.378   4.079  16.651  0.00  0.00    +0.000 A 
ATOM      4  C   UNL     1       5.803   3.285  15.590  0.00  0.00    +0.000 A 
ATOM      5  C   UNL     1       6.405   3.899  14.493  0.00  0.00    +0.000 A 
ATOM      6  C   UNL     1       7.075   5.102  14.698  0.00  0.00    +0.000 A 
ATOM      7  C   UNL     1       6.546   5.951  15.664  0.00  0.00    +0.000 A 
ATOM      8  C   UNL     1       5.584   5.462  16.556  0.00  0.00    +0.000 A 
ATOM      9  C   UNL     1       4.720   6.235  17.314  0.00  0.00    +0.000 A 
ATOM     10  C   UNL     1       3.927   5.680  18.336  0.00  0.00    +0.000 A 
ATOM     11  C   UNL     1       3.010   6.678  18.853  0.00  0.00    +0.000 A 
ATOM     12  C   UNL     1       2.081   6.687  19.884  0.00  0.00    +0.000 A 
ATOM     13  C   UNL     1       1.337   7.840  20.048  0.00  0.00    +0.000 A 
ATOM     14  C   UNL     1       1.473   8.944  19.232  0.00  0.00    +0.000 A 
ATOM     15  C   UNL     1       2.383   8.985  18.200  0.00  0.00    +0.000 A 
ATOM     16  C   UNL     1       3.165   7.849  18.041  0.00  0.00    +0.000 A 
ATOM     17  C   UNL     1       4.258   7.650  17.010  0.00  0.00    +0.000 C 
ATOM     18  O   UNL     1       0.628   9.948  19.585  0.00  0.00    +0.000 OA
ATOM     19  C   UNL     1      -0.016   9.379  20.745  0.00  0.00    +0.000 C 
ATOM     20  O   UNL     1       0.400   8.022  21.017  0.00  0.00    +0.000 OA
ENDROOT
BRANCH   5  21
ATOM     21  O   UNL     1       6.041   3.372  13.289  0.00  0.00    +0.000 OA
ATOM     22  C   UNL     1       4.730   3.724  12.831  0.00  0.00    +0.000 C 
ENDBRANCH   5  21
BRANCH   6  23
ATOM     23  O   UNL     1       8.105   5.431  13.864  0.00  0.00    +0.000 OA
ATOM     24  C   UNL     1       7.770   5.493  12.467  0.00  0.00    +0.000 C 
ENDBRANCH   6  23
BRANCH   1  25
ATOM     25  C   UNL     1       3.360   3.712  19.768  0.00  0.00    +0.000 C 
BRANCH  25  27
ATOM     26  C   UNL     1       1.078   3.009  19.011  0.00  0.00    +0.000 C 
ATOM     27  C   UNL     1       2.480   2.539  19.363  0.00  0.00    +0.000 C 
ENDBRANCH  25  27
ENDBRANCH   1  25
TORSDOF 4
ENDMDL
MODEL 7
REMARK VINA RESULT:      -6.8      1.923      4.194
REMARK  Name = 
REMARK  7 active torsions:
REMARK  status: ('A' for Active; 'I' for Inactive)
REMARK    1  A    between atoms: C_1  and  C_2
REMARK    2  A    between atoms: C_2  and  C_3
REMARK    3  A    between atoms: C_3  and  N_4
REMARK    4  A    between atoms: C_8  and  O_9
REMARK    5  A    between atoms: O_9  and  C_10
REMARK    6  A    between atoms: C_11  and  O_12
REMARK    7  A    between atoms: O_12  and  C_13
REMARK                            x       y       z     vdW  Elec       q    Type
REMARK                         _______ _______ _______ _____ _____    ______ ____
ROOT
ATOM      1  N   UNL     1       3.090   7.482  17.953  0.00  0.00    +0.000 N 
ATOM      2  C   UNL     1       2.335   8.545  17.570  0.00  0.00    +0.000 A 
ATOM      3  C   UNL     1       1.387   9.121  18.427  0.00  0.00    +0.000 A 
ATOM      4  C   UNL     1       0.414   9.996  17.955  0.00  0.00    +0.000 A 
ATOM      5  C   UNL     1      -0.592  10.413  18.828  0.00  0.00    +0.000 A 
ATOM      6  C   UNL     1      -0.309  10.447  20.190  0.00  0.00    +0.000 A 
ATOM      7  C   UNL     1       0.555   9.468  20.669  0.00  0.00    +0.000 A 
ATOM      8  C   UNL     1       1.302   8.707  19.764  0.00  0.00    +0.000 A 
ATOM      9  C   UNL     1       1.912   7.493  20.039  0.00  0.00    +0.000 A 
ATOM     10  C   UNL     1       2.814   6.893  19.141  0.00  0.00    +0.000 A 
ATOM     11  C   UNL     1       3.173   5.567  19.608  0.00  0.00    +0.000 A 
ATOM     12  C   UNL     1       4.056   4.596  19.156  0.00  0.00    +0.000 A 
ATOM     13  C   UNL     1       4.090   3.405  19.856  0.00  0.00    +0.000 A 
ATOM     14  C   UNL     1       3.285   3.152  20.947  0.00  0.00    +0.000 A 
ATOM     15  C   UNL     1       2.399   4.085  21.436  0.00  0.00    +0.000 A 
ATOM     16  C   UNL     1       2.375   5.302  20.769  0.00  0.00    +0.000 A 
ATOM     17  C   UNL     1       1.520   6.502  21.122  0.00  0.00    +0.000 C 
ATOM     18  O   UNL     1       3.493   1.911  21.460  0.00  0.00    +0.000 OA
ATOM     19  C   UNL     1       4.554   1.429  20.607  0.00  0.00    +0.000 C 
ATOM     20  O   UNL     1       4.906   2.358  19.558  0.00  0.00    +0.000 OA
ENDROOT
BRANCH   5  21
ATOM     21  O   UNL     1      -1.828  10.490  18.256  0.00  0.00    +0.000 OA
ATOM     22  C   UNL     1      -1.948   9.896  16.958  0.00  0.00    +0.000 C 
ENDBRANCH   5  21
BRANCH   6  23
ATOM     23  O   UNL     1      -0.986  11.331  20.979  0.00  0.00    +0.000 OA
ATOM     24  C   UNL     1      -0.812  11.152  22.395  0.00  0.00    +0.000 C 
ENDBRANCH   6  23
BRANCH   1  25
ATOM     25  C   UNL     1       4.177   7.059  17.053  0.00  0.00    +0.000 C 
BRANCH  25  27
ATOM     26  C   UNL     1       6.612   6.496  17.229  0.00  0.00    +0.000 C 
ATOM     27  C   UNL     1       5.531   7.503  17.585  0.00  0.00    +0.000 C 
ENDBRANCH  25  27
ENDBRANCH   1  25
TORSDOF 4
ENDMDL
MODEL 8
REMARK VINA RESULT:      -6.8      3.056      8.216
REMARK  Name = 
REMARK  7 active torsions:
REMARK  status: ('A' for Active; 'I' for Inactive)
REMARK    1  A    between atoms: C_1  and  C_2
REMARK    2  A    between atoms: C_2  and  C_3
REMARK    3  A    between atoms: C_3  and  N_4
REMARK    4  A    between atoms: C_8  and  O_9
REMARK    5  A    between atoms: O_9  and  C_10
REMARK    6  A    between atoms: C_11  and  O_12
REMARK    7  A    between atoms: O_12  and  C_13
REMARK                            x       y       z     vdW  Elec       q    Type
REMARK                         _______ _______ _______ _____ _____    ______ ____
ROOT
ATOM      1  N   UNL     1      -0.417  10.964  20.717  0.00  0.00    +0.000 N 
ATOM      2  C   UNL     1       0.609  10.120  21.002  0.00  0.00    +0.000 A 
ATOM      3  C   UNL     1       1.155   9.270  20.030  0.00  0.00    +0.000 A 
ATOM      4  C   UNL     1       1.982   8.205  20.373  0.00  0.00    +0.000 A 
ATOM      5  C   UNL     1       2.365   7.307  19.377  0.00  0.00    +0.000 A 
ATOM      6  C   UNL     1       2.427   7.767  18.065  0.00  0.00    +0.000 A 
ATOM      7  C   UNL     1       1.492   8.729  17.699  0.00  0.00    +0.000 A 
ATOM      8  C   UNL     1       0.753   9.381  18.692  0.00  0.00    +0.000 A 
ATOM      9  C   UNL     1      -0.431  10.074  18.493  0.00  0.00    +0.000 A 
ATOM     10  C   UNL     1      -1.003  10.874  19.499  0.00  0.00    +0.000 A 
ATOM     11  C   UNL     1      -2.306  11.350  19.077  0.00  0.00    +0.000 A 
ATOM     12  C   UNL     1      -3.245  12.206  19.637  0.00  0.00    +0.000 A 
ATOM     13  C   UNL     1      -4.425  12.385  18.940  0.00  0.00    +0.000 A 
ATOM     14  C   UNL     1      -4.698  11.744  17.750  0.00  0.00    +0.000 A 
ATOM     15  C   UNL     1      -3.799  10.891  17.153  0.00  0.00    +0.000 A 
ATOM     16  C   UNL     1      -2.592  10.725  17.819  0.00  0.00    +0.000 A 
ATOM     17  C   UNL     1      -1.425   9.874  17.362  0.00  0.00    +0.000 C 
ATOM     18  O   UNL     1      -5.924  12.073  17.262  0.00  0.00    +0.000 OA
ATOM     19  C   UNL     1      -6.370  13.031  18.246  0.00  0.00    +0.000 C 
ATOM     20  O   UNL     1      -5.440  13.199  19.338  0.00  0.00    +0.000 OA
ENDROOT
BRANCH   5  21
ATOM     21  O   UNL     1       2.384   6.004  19.780  0.00  0.00    +0.000 OA
ATOM     22  C   UNL     1       1.376   5.635  20.728  0.00  0.00    +0.000 C 
ENDBRANCH   5  21
BRANCH   6  23
ATOM     23  O   UNL     1       3.292   7.162  17.198  0.00  0.00    +0.000 OA
ATOM     24  C   UNL     1       4.653   7.071  17.650  0.00  0.00    +0.000 C 
ENDBRANCH   6  23
BRANCH   1  25
ATOM     25  C   UNL     1      -0.804  11.939  21.752  0.00  0.00    +0.000 C 
BRANCH  25  27
ATOM     26  C   UNL     1      -2.702  11.905  23.387  0.00  0.00    +0.000 C 
ATOM     27  C   UNL     1      -1.401  11.242  22.965  0.00  0.00    +0.000 C 
ENDBRANCH  25  27
ENDBRANCH   1  25
TORSDOF 4
ENDMDL
MODEL 9
REMARK VINA RESULT:      -6.6      3.089      6.068
REMARK  Name = 
REMARK  7 active torsions:
REMARK  status: ('A' for Active; 'I' for Inactive)
REMARK    1  A    between atoms: C_1  and  C_2
REMARK    2  A    between atoms: C_2  and  C_3
REMARK    3  A    between atoms: C_3  and  N_4
REMARK    4  A    between atoms: C_8  and  O_9
REMARK    5  A    between atoms: O_9  and  C_10
REMARK    6  A    between atoms: C_11  and  O_12
REMARK    7  A    between atoms: O_12  and  C_13
REMARK                            x       y       z     vdW  Elec       q    Type
REMARK                         _______ _______ _______ _____ _____    ______ ____
ROOT
ATOM      1  N   UNL     1      -0.712  12.099  19.383  0.00  0.00    +0.000 N 
ATOM      2  C   UNL     1      -1.808  12.808  19.759  0.00  0.00    +0.000 A 
ATOM      3  C   UNL     1      -2.392  12.645  21.023  0.00  0.00    +0.000 A 
ATOM      4  C   UNL     1      -3.665  13.128  21.307  0.00  0.00    +0.000 A 
ATOM      5  C   UNL     1      -4.250  12.799  22.530  0.00  0.00    +0.000 A 
ATOM      6  C   UNL     1      -3.412  12.535  23.609  0.00  0.00    +0.000 A 
ATOM      7  C   UNL     1      -2.202  11.914  23.319  0.00  0.00    +0.000 A 
ATOM      8  C   UNL     1      -1.764  11.850  21.992  0.00  0.00    +0.000 A 
ATOM      9  C   UNL     1      -0.800  10.983  21.502  0.00  0.00    +0.000 A 
ATOM     10  C   UNL     1      -0.267  11.119  20.206  0.00  0.00    +0.000 A 
ATOM     11  C   UNL     1       0.596   9.994  19.902  0.00  0.00    +0.000 A 
ATOM     12  C   UNL     1       1.407   9.669  18.823  0.00  0.00    +0.000 A 
ATOM     13  C   UNL     1       2.060   8.452  18.873  0.00  0.00    +0.000 A 
ATOM     14  C   UNL     1       1.921   7.569  19.923  0.00  0.00    +0.000 A 
ATOM     15  C   UNL     1       1.133   7.848  21.017  0.00  0.00    +0.000 A 
ATOM     16  C   UNL     1       0.497   9.081  21.002  0.00  0.00    +0.000 A 
ATOM     17  C   UNL     1      -0.395   9.643  22.091  0.00  0.00    +0.000 C 
ATOM     18  O   UNL     1       2.653   6.438  19.741  0.00  0.00    +0.000 OA
ATOM     19  C   UNL     1       3.311   6.729  18.488  0.00  0.00    +0.000 C 
ATOM     20  O   UNL     1       2.903   7.988  17.911  0.00  0.00    +0.000 OA
ENDROOT
BRANCH   5  21
ATOM     21  O   UNL     1      -5.583  12.520  22.453  0.00  0.00    +0.000 OA
ATOM     22  C   UNL     1      -6.105  12.351  21.129  0.00  0.00    +0.000 C 
ENDBRANCH   5  21
BRANCH   6  23
ATOM     23  O   UNL     1      -3.876  12.769  24.872  0.00  0.00    +0.000 OA
ATOM     24  C   UNL     1      -3.527  14.048  25.428  0.00  0.00    +0.000 C 
ENDBRANCH   6  23
BRANCH   1  25
ATOM     25  C   UNL     1      -0.069  12.464  18.109  0.00  0.00    +0.000 C 
BRANCH  25  27
ATOM     26  C   UNL     1       2.363  13.065  18.091  0.00  0.00    +0.000 C 
ATOM     27  C   UNL     1       0.949  13.577  18.310  0.00  0.00    +0.000 C 
ENDBRANCH  25  27
ENDBRANCH   1  25
TORSDOF 4
ENDMDL
