MODEL 1
REMARK VINA RESULT:      -8.8      0.000      0.000
REMARK  Name = 
REMARK  6 active torsions:
REMARK  status: ('A' for Active; 'I' for Inactive)
REMARK    1  A    between atoms: C_1  and  C_2
REMARK    2  A    between atoms: C_2  and  C_3
REMARK    3  A    between atoms: C_9  and  S_10
REMARK    4  A    between atoms: S_10  and  N_13
REMARK    5  A    between atoms: N_16  and  C_17
REMARK    6  A    between atoms: C_28  and  C_29
REMARK                            x       y       z     vdW  Elec       q    Type
REMARK                         _______ _______ _______ _____ _____    ______ ____
ROOT
ATOM      1  S   UNL     1       3.465   5.194  18.625  0.00  0.00    +0.000 S 
ATOM      2  O   UNL     1       3.427   4.240  19.716  0.00  0.00    +0.000 OA
ATOM      3  O   UNL     1       2.910   4.864  17.328  0.00  0.00    +0.000 OA
ENDROOT
BRANCH   1  10
ATOM      4  C   UNL     1      -0.349  10.234  21.507  0.00  0.00    +0.000 C 
ATOM      5  O   UNL     1      -0.313   9.478  22.480  0.00  0.00    +0.000 OA
ATOM      6  N   UNL     1       0.358  10.013  20.329  0.00  0.00    +0.000 N 
ATOM      7  C   UNL     1       1.167   8.866  20.115  0.00  0.00    +0.000 A 
ATOM      8  C   UNL     1       1.451   7.822  20.984  0.00  0.00    +0.000 A 
ATOM      9  C   UNL     1       2.194   6.731  20.521  0.00  0.00    +0.000 A 
ATOM     10  C   UNL     1       2.594   6.659  19.176  0.00  0.00    +0.000 A 
ATOM     11  C   UNL     1       2.407   7.762  18.333  0.00  0.00    +0.000 A 
ATOM     12  C   UNL     1       1.701   8.861  18.829  0.00  0.00    +0.000 A 
ATOM     13  C   UNL     1       1.424  10.153  18.131  0.00  0.00    +0.000 C 
ATOM     14  C   UNL     1       0.545  10.925  19.155  0.00  0.00    +0.000 C 
ATOM     15  C   UNL     1      -0.722  11.418  18.457  0.00  0.00    +0.000 C 
BRANCH   4  17
ATOM     16  C   UNL     1      -1.648  11.836  22.974  0.00  0.00    +0.000 C 
ATOM     17  C   UNL     1      -1.266  11.444  21.551  0.00  0.00    +0.000 C 
ENDBRANCH   4  17
ENDBRANCH   1  10
BRANCH   1  18
ATOM     18  N   UNL     1       5.083   5.628  18.368  0.00  0.00    +0.000 NA
ATOM     19  C   UNL     1       6.144   4.591  18.283  0.00  0.00    +0.000 C 
ATOM     20  C   UNL     1       6.318   4.076  16.839  0.00  0.00    +0.000 C 
ATOM     21  N   UNL     1       6.345   5.150  15.815  0.00  0.00    +0.000 N 
ATOM     22  C   UNL     1       5.427   6.299  16.006  0.00  0.00    +0.000 C 
ATOM     23  C   UNL     1       5.403   6.756  17.464  0.00  0.00    +0.000 C 
BRANCH  21  24
ATOM     24  C   UNL     1       6.446   4.745  14.470  0.00  0.00    +0.000 A 
ATOM     25  C   UNL     1       5.581   3.818  13.868  0.00  0.00    +0.000 A 
ATOM     26  C   UNL     1       5.771   3.389  12.550  0.00  0.00    +0.000 A 
ATOM     27  C   UNL     1       6.833   3.883  11.802  0.00  0.00    +0.000 A 
ATOM     28  C   UNL     1       7.686   4.827  12.363  0.00  0.00    +0.000 A 
ATOM     29  C   UNL     1       7.488   5.254  13.679  0.00  0.00    +0.000 A 
ENDBRANCH  21  24
ENDBRANCH   1  18
TORSDOF 4
ENDMDL
MODEL 2
REMARK VINA RESULT:      -8.6      2.605      3.513
REMARK  Name = 
REMARK  6 active torsions:
REMARK  status: ('A' for Active; 'I' for Inactive)
REMARK    1  A    between atoms: C_1  and  C_2
REMARK    2  A    between atoms: C_2  and  C_3
REMARK    3  A    between atoms: C_9  and  S_10
REMARK    4  A    between atoms: S_10  and  N_13
REMARK    5  A    between atoms: N_16  and  C_17
REMARK    6  A    between atoms: C_28  and  C_29
REMARK                            x       y       z     vdW  Elec       q    Type
REMARK                         _______ _______ _______ _____ _____    ______ ____
ROOT
ATOM      1  S   UNL     1       1.812   2.648  18.983  0.00  0.00    +0.000 S 
ATOM      2  O   UNL     1       1.229   2.008  20.145  0.00  0.00    +0.000 OA
ATOM      3  O   UNL     1       1.228   2.480  17.668  0.00  0.00    +0.000 OA
ENDROOT
BRANCH   1  10
ATOM      4  C   UNL     1       1.164   9.256  21.025  0.00  0.00    +0.000 C 
ATOM      5  O   UNL     1       0.864   8.723  22.096  0.00  0.00    +0.000 OA
ATOM      6  N   UNL     1       1.610   8.554  19.910  0.00  0.00    +0.000 N 
ATOM      7  C   UNL     1       1.727   7.140  19.881  0.00  0.00    +0.000 A 
ATOM      8  C   UNL     1       1.494   6.222  20.895  0.00  0.00    +0.000 A 
ATOM      9  C   UNL     1       1.569   4.854  20.610  0.00  0.00    +0.000 A 
ATOM     10  C   UNL     1       1.816   4.411  19.299  0.00  0.00    +0.000 A 
ATOM     11  C   UNL     1       2.164   5.335  18.305  0.00  0.00    +0.000 A 
ATOM     12  C   UNL     1       2.126   6.694  18.623  0.00  0.00    +0.000 A 
ATOM     13  C   UNL     1       2.497   7.844  17.743  0.00  0.00    +0.000 C 
ATOM     14  C   UNL     1       2.170   9.082  18.625  0.00  0.00    +0.000 C 
ATOM     15  C   UNL     1       1.287  10.044  17.831  0.00  0.00    +0.000 C 
BRANCH   4  17
ATOM     16  C   UNL     1      -0.080  11.311  21.823  0.00  0.00    +0.000 C 
ATOM     17  C   UNL     1       0.976  10.756  20.875  0.00  0.00    +0.000 C 
ENDBRANCH   4  17
ENDBRANCH   1  10
BRANCH   1  18
ATOM     18  N   UNL     1       3.428   2.147  18.867  0.00  0.00    +0.000 NA
ATOM     19  C   UNL     1       4.114   2.095  17.550  0.00  0.00    +0.000 C 
ATOM     20  C   UNL     1       4.775   3.446  17.202  0.00  0.00    +0.000 C 
ATOM     21  N   UNL     1       5.524   4.058  18.327  0.00  0.00    +0.000 N 
ATOM     22  C   UNL     1       4.941   3.933  19.685  0.00  0.00    +0.000 C 
ATOM     23  C   UNL     1       4.390   2.528  19.927  0.00  0.00    +0.000 C 
BRANCH  21  24
ATOM     24  C   UNL     1       6.105   5.319  18.092  0.00  0.00    +0.000 A 
ATOM     25  C   UNL     1       5.578   6.267  17.201  0.00  0.00    +0.000 A 
ATOM     26  C   UNL     1       6.236   7.474  16.944  0.00  0.00    +0.000 A 
ATOM     27  C   UNL     1       7.438   7.764  17.580  0.00  0.00    +0.000 A 
ATOM     28  C   UNL     1       7.965   6.857  18.493  0.00  0.00    +0.000 A 
ATOM     29  C   UNL     1       7.301   5.654  18.748  0.00  0.00    +0.000 A 
ENDBRANCH  21  24
ENDBRANCH   1  18
TORSDOF 4
ENDMDL
MODEL 3
REMARK VINA RESULT:      -8.6      3.079     10.004
REMARK  Name = 
REMARK  6 active torsions:
REMARK  status: ('A' for Active; 'I' for Inactive)
REMARK    1  A    between atoms: C_1  and  C_2
REMARK    2  A    between atoms: C_2  and  C_3
REMARK    3  A    between atoms: C_9  and  S_10
REMARK    4  A    between atoms: S_10  and  N_13
REMARK    5  A    between atoms: N_16  and  C_17
REMARK    6  A    between atoms: C_28  and  C_29
REMARK                            x       y       z     vdW  Elec       q    Type
REMARK                         _______ _______ _______ _____ _____    ______ ____
ROOT
ATOM      1  S   UNL     1       0.329  10.090  19.797  0.00  0.00    +0.000 S 
ATOM      2  O   UNL     1      -0.747   9.417  20.497  0.00  0.00    +0.000 OA
ATOM      3  O   UNL     1       1.129  11.101  20.459  0.00  0.00    +0.000 OA
ENDROOT
BRANCH   1  10
ATOM      4  C   UNL     1       4.692   5.643  16.726  0.00  0.00    +0.000 C 
ATOM      5  O   UNL     1       4.800   6.566  15.915  0.00  0.00    +0.000 OA
ATOM      6  N   UNL     1       3.969   5.736  17.911  0.00  0.00    +0.000 N 
ATOM      7  C   UNL     1       3.247   6.897  18.289  0.00  0.00    +0.000 A 
ATOM      8  C   UNL     1       3.153   8.119  17.638  0.00  0.00    +0.000 A 
ATOM      9  C   UNL     1       2.289   9.098  18.142  0.00  0.00    +0.000 A 
ATOM     10  C   UNL     1       1.477   8.827  19.257  0.00  0.00    +0.000 A 
ATOM     11  C   UNL     1       1.657   7.640  19.978  0.00  0.00    +0.000 A 
ATOM     12  C   UNL     1       2.558   6.694  19.482  0.00  0.00    +0.000 A 
ATOM     13  C   UNL     1       2.940   5.390  20.103  0.00  0.00    +0.000 C 
ATOM     14  C   UNL     1       3.904   4.769  19.053  0.00  0.00    +0.000 C 
ATOM     15  C   UNL     1       3.443   3.348  18.729  0.00  0.00    +0.000 C 
BRANCH   4  17
ATOM     16  C   UNL     1       5.730   4.190  14.931  0.00  0.00    +0.000 C 
ATOM     17  C   UNL     1       5.319   4.300  16.395  0.00  0.00    +0.000 C 
ENDBRANCH   4  17
ENDBRANCH   1  10
BRANCH   1  18
ATOM     18  N   UNL     1      -0.324  10.815  18.410  0.00  0.00    +0.000 NA
ATOM     19  C   UNL     1      -1.197  10.042  17.489  0.00  0.00    +0.000 C 
ATOM     20  C   UNL     1      -2.678  10.118  17.915  0.00  0.00    +0.000 C 
ATOM     21  N   UNL     1      -3.130  11.483  18.283  0.00  0.00    +0.000 N 
ATOM     22  C   UNL     1      -2.177  12.340  19.029  0.00  0.00    +0.000 C 
ATOM     23  C   UNL     1      -0.763  12.228  18.461  0.00  0.00    +0.000 C 
BRANCH  21  24
ATOM     24  C   UNL     1      -4.457  11.614  18.735  0.00  0.00    +0.000 A 
ATOM     25  C   UNL     1      -4.832  12.398  19.836  0.00  0.00    +0.000 A 
ATOM     26  C   UNL     1      -6.154  12.434  20.293  0.00  0.00    +0.000 A 
ATOM     27  C   UNL     1      -7.134  11.685  19.652  0.00  0.00    +0.000 A 
ATOM     28  C   UNL     1      -6.796  10.924  18.538  0.00  0.00    +0.000 A 
ATOM     29  C   UNL     1      -5.475  10.896  18.084  0.00  0.00    +0.000 A 
ENDBRANCH  21  24
ENDBRANCH   1  18
TORSDOF 4
ENDMDL
MODEL 4
REMARK VINA RESULT:      -8.5      1.128      1.954
REMARK  Name = 
REMARK  6 active torsions:
REMARK  status: ('A' for Active; 'I' for Inactive)
REMARK    1  A    between atoms: C_1  and  C_2
REMARK    2  A    between atoms: C_2  and  C_3
REMARK    3  A    between atoms: C_9  and  S_10
REMARK    4  A    between atoms: S_10  and  N_13
REMARK    5  A    between atoms: N_16  and  C_17
REMARK    6  A    between atoms: C_28  and  C_29
REMARK                            x       y       z     vdW  Elec       q    Type
REMARK                         _______ _______ _______ _____ _____    ______ ____
ROOT
ATOM      1  S   UNL     1       3.679   5.337  18.690  0.00  0.00    +0.000 S 
ATOM      2  O   UNL     1       3.792   4.539  19.895  0.00  0.00    +0.000 OA
ATOM      3  O   UNL     1       3.131   4.774  17.473  0.00  0.00    +0.000 OA
ENDROOT
BRANCH   1  10
ATOM      4  C   UNL     1       0.329  11.360  19.555  0.00  0.00    +0.000 C 
ATOM      5  O   UNL     1       0.830  11.607  18.455  0.00  0.00    +0.000 OA
ATOM      6  N   UNL     1       0.418  10.124  20.185  0.00  0.00    +0.000 N 
ATOM      7  C   UNL     1       1.134   9.026  19.640  0.00  0.00    +0.000 A 
ATOM      8  C   UNL     1       1.803   8.934  18.428  0.00  0.00    +0.000 A 
ATOM      9  C   UNL     1       2.538   7.779  18.139  0.00  0.00    +0.000 A 
ATOM     10  C   UNL     1       2.651   6.749  19.087  0.00  0.00    +0.000 A 
ATOM     11  C   UNL     1       1.884   6.793  20.258  0.00  0.00    +0.000 A 
ATOM     12  C   UNL     1       1.121   7.936  20.508  0.00  0.00    +0.000 A 
ATOM     13  C   UNL     1       0.200   8.182  21.658  0.00  0.00    +0.000 C 
ATOM     14  C   UNL     1      -0.283   9.640  21.418  0.00  0.00    +0.000 C 
ATOM     15  C   UNL     1      -0.074  10.454  22.694  0.00  0.00    +0.000 C 
BRANCH   4  17
ATOM     16  C   UNL     1      -1.838  12.615  19.924  0.00  0.00    +0.000 C 
ATOM     17  C   UNL     1      -0.370  12.478  20.310  0.00  0.00    +0.000 C 
ENDBRANCH   4  17
ENDBRANCH   1  10
BRANCH   1  18
ATOM     18  N   UNL     1       5.223   5.923  18.306  0.00  0.00    +0.000 NA
ATOM     19  C   UNL     1       6.391   5.005  18.249  0.00  0.00    +0.000 C 
ATOM     20  C   UNL     1       6.555   4.383  16.845  0.00  0.00    +0.000 C 
ATOM     21  N   UNL     1       6.410   5.357  15.735  0.00  0.00    +0.000 N 
ATOM     22  C   UNL     1       5.376   6.410  15.880  0.00  0.00    +0.000 C 
ATOM     23  C   UNL     1       5.368   6.992  17.292  0.00  0.00    +0.000 C 
BRANCH  21  24
ATOM     24  C   UNL     1       6.494   4.845  14.426  0.00  0.00    +0.000 A 
ATOM     25  C   UNL     1       5.594   3.907  13.897  0.00  0.00    +0.000 A 
ATOM     26  C   UNL     1       5.766   3.370  12.616  0.00  0.00    +0.000 A 
ATOM     27  C   UNL     1       6.843   3.766  11.832  0.00  0.00    +0.000 A 
ATOM     28  C   UNL     1       7.731   4.719  12.319  0.00  0.00    +0.000 A 
ATOM     29  C   UNL     1       7.552   5.254  13.597  0.00  0.00    +0.000 A 
ENDBRANCH  21  24
ENDBRANCH   1  18
TORSDOF 4
ENDMDL
MODEL 5
REMARK VINA RESULT:      -8.1      3.163      9.709
REMARK  Name = 
REMARK  6 active torsions:
REMARK  status: ('A' for Active; 'I' for Inactive)
REMARK    1  A    between atoms: C_1  and  C_2
REMARK    2  A    between atoms: C_2  and  C_3
REMARK    3  A    between atoms: C_9  and  S_10
REMARK    4  A    between atoms: S_10  and  N_13
REMARK    5  A    between atoms: N_16  and  C_17
REMARK    6  A    between atoms: C_28  and  C_29
REMARK                            x       y       z     vdW  Elec       q    Type
REMARK                         _______ _______ _______ _____ _____    ______ ____
ROOT
ATOM      1  S   UNL     1       0.398  10.447  20.633  0.00  0.00    +0.000 S 
ATOM      2  O   UNL     1      -0.802  10.127  21.379  0.00  0.00    +0.000 OA
ATOM      3  O   UNL     1       1.445  11.259  21.220  0.00  0.00    +0.000 OA
ENDROOT
BRANCH   1  10
ATOM      4  C   UNL     1       3.288   4.169  19.936  0.00  0.00    +0.000 C 
ATOM      5  O   UNL     1       2.648   3.942  20.965  0.00  0.00    +0.000 OA
ATOM      6  N   UNL     1       3.196   5.355  19.214  0.00  0.00    +0.000 N 
ATOM      7  C   UNL     1       2.380   6.444  19.614  0.00  0.00    +0.000 A 
ATOM      8  C   UNL     1       1.520   6.540  20.699  0.00  0.00    +0.000 A 
ATOM      9  C   UNL     1       0.890   7.760  20.966  0.00  0.00    +0.000 A 
ATOM     10  C   UNL     1       1.170   8.894  20.185  0.00  0.00    +0.000 A 
ATOM     11  C   UNL     1       1.945   8.767  19.026  0.00  0.00    +0.000 A 
ATOM     12  C   UNL     1       2.530   7.529  18.753  0.00  0.00    +0.000 A 
ATOM     13  C   UNL     1       3.352   7.153  17.562  0.00  0.00    +0.000 C 
ATOM     14  C   UNL     1       3.771   5.688  17.871  0.00  0.00    +0.000 C 
ATOM     15  C   UNL     1       5.286   5.558  17.717  0.00  0.00    +0.000 C 
BRANCH   4  17
ATOM     16  C   UNL     1       3.648   2.059  18.585  0.00  0.00    +0.000 C 
ATOM     17  C   UNL     1       4.290   3.135  19.453  0.00  0.00    +0.000 C 
ENDBRANCH   4  17
ENDBRANCH   1  10
BRANCH   1  18
ATOM     18  N   UNL     1      -0.070  11.217  19.197  0.00  0.00    +0.000 NA
ATOM     19  C   UNL     1      -0.741  10.457  18.111  0.00  0.00    +0.000 C 
ATOM     20  C   UNL     1      -2.273  10.434  18.298  0.00  0.00    +0.000 C 
ATOM     21  N   UNL     1      -2.856  11.750  18.657  0.00  0.00    +0.000 N 
ATOM     22  C   UNL     1      -2.084  12.609  19.587  0.00  0.00    +0.000 C 
ATOM     23  C   UNL     1      -0.595  12.601  19.247  0.00  0.00    +0.000 C 
BRANCH  21  24
ATOM     24  C   UNL     1      -4.243  11.788  18.896  0.00  0.00    +0.000 A 
ATOM     25  C   UNL     1      -4.832  12.498  19.953  0.00  0.00    +0.000 A 
ATOM     26  C   UNL     1      -6.209  12.440  20.196  0.00  0.00    +0.000 A 
ATOM     27  C   UNL     1      -7.030  11.671  19.379  0.00  0.00    +0.000 A 
ATOM     28  C   UNL     1      -6.477  10.984  18.304  0.00  0.00    +0.000 A 
ATOM     29  C   UNL     1      -5.101  11.048  18.065  0.00  0.00    +0.000 A 
ENDBRANCH  21  24
ENDBRANCH   1  18
TORSDOF 4
ENDMDL
MODEL 6
REMARK VINA RESULT:      -7.9      3.110      9.412
REMARK  Name = 
REMARK  6 active torsions:
REMARK  status: ('A' for Active; 'I' for Inactive)
REMARK    1  A    between atoms: C_1  and  C_2
REMARK    2  A    between atoms: C_2  and  C_3
REMARK    3  A    between atoms: C_9  and  S_10
REMARK    4  A    between atoms: S_10  and  N_13
REMARK    5  A    between atoms: N_16  and  C_17
REMARK    6  A    between atoms: C_28  and  C_29
REMARK                            x       y       z     vdW  Elec       q    Type
REMARK                         _______ _______ _______ _____ _____    ______ ____
ROOT
ATOM      1  S   UNL     1       0.679   9.603  20.963  0.00  0.00    +0.000 S 
ATOM      2  O   UNL     1      -0.678   9.316  21.381  0.00  0.00    +0.000 OA
ATOM      3  O   UNL     1       1.630  10.199  21.881  0.00  0.00    +0.000 OA
ENDROOT
BRANCH   1  10
ATOM      4  C   UNL     1       3.359   3.278  19.934  0.00  0.00    +0.000 C 
ATOM      5  O   UNL     1       2.680   3.009  20.928  0.00  0.00    +0.000 OA
ATOM      6  N   UNL     1       3.332   4.510  19.289  0.00  0.00    +0.000 N 
ATOM      7  C   UNL     1       2.544   5.602  19.738  0.00  0.00    +0.000 A 
ATOM      8  C   UNL     1       1.656   5.661  20.803  0.00  0.00    +0.000 A 
ATOM      9  C   UNL     1       1.063   6.884  21.132  0.00  0.00    +0.000 A 
ATOM     10  C   UNL     1       1.407   8.055  20.435  0.00  0.00    +0.000 A 
ATOM     11  C   UNL     1       2.213   7.974  19.292  0.00  0.00    +0.000 A 
ATOM     12  C   UNL     1       2.760   6.734  18.954  0.00  0.00    +0.000 A 
ATOM     13  C   UNL     1       3.602   6.405  17.764  0.00  0.00    +0.000 C 
ATOM     14  C   UNL     1       3.958   4.908  17.987  0.00  0.00    +0.000 C 
ATOM     15  C   UNL     1       5.472   4.730  17.867  0.00  0.00    +0.000 C 
BRANCH   4  17
ATOM     16  C   UNL     1       3.702   1.299  18.392  0.00  0.00    +0.000 C 
ATOM     17  C   UNL     1       4.337   2.240  19.411  0.00  0.00    +0.000 C 
ENDBRANCH   4  17
ENDBRANCH   1  10
BRANCH   1  18
ATOM     18  N   UNL     1       0.605  10.620  19.609  0.00  0.00    +0.000 NA
ATOM     19  C   UNL     1       0.112  10.111  18.303  0.00  0.00    +0.000 C 
ATOM     20  C   UNL     1      -1.419  10.257  18.179  0.00  0.00    +0.000 C 
ATOM     21  N   UNL     1      -1.937  11.574  18.626  0.00  0.00    +0.000 N 
ATOM     22  C   UNL     1      -1.303  12.189  19.817  0.00  0.00    +0.000 C 
ATOM     23  C   UNL     1       0.217  12.039  19.780  0.00  0.00    +0.000 C 
BRANCH  21  24
ATOM     24  C   UNL     1      -3.333  11.754  18.591  0.00  0.00    +0.000 A 
ATOM     25  C   UNL     1      -4.142  11.368  17.511  0.00  0.00    +0.000 A 
ATOM     26  C   UNL     1      -5.514  11.640  17.491  0.00  0.00    +0.000 A 
ATOM     27  C   UNL     1      -6.110  12.302  18.558  0.00  0.00    +0.000 A 
ATOM     28  C   UNL     1      -5.338  12.666  19.656  0.00  0.00    +0.000 A 
ATOM     29  C   UNL     1      -3.968  12.388  19.671  0.00  0.00    +0.000 A 
ENDBRANCH  21  24
ENDBRANCH   1  18
TORSDOF 4
ENDMDL
MODEL 7
REMARK VINA RESULT:      -7.8      2.454     10.556
REMARK  Name = 
REMARK  6 active torsions:
REMARK  status: ('A' for Active; 'I' for Inactive)
REMARK    1  A    between atoms: C_1  and  C_2
REMARK    2  A    between atoms: C_2  and  C_3
REMARK    3  A    between atoms: C_9  and  S_10
REMARK    4  A    between atoms: S_10  and  N_13
REMARK    5  A    between atoms: N_16  and  C_17
REMARK    6  A    between atoms: C_28  and  C_29
REMARK                            x       y       z     vdW  Elec       q    Type
REMARK                         _______ _______ _______ _____ _____    ______ ____
ROOT
ATOM      1  S   UNL     1       0.420  10.230  19.480  0.00  0.00    +0.000 S 
ATOM      2  O   UNL     1       0.585  11.262  18.476  0.00  0.00    +0.000 OA
ATOM      3  O   UNL     1      -0.872   9.617  19.712  0.00  0.00    +0.000 OA
ENDROOT
BRANCH   1  10
ATOM      4  C   UNL     1       4.680   5.440  16.805  0.00  0.00    +0.000 C 
ATOM      5  O   UNL     1       4.847   6.308  15.945  0.00  0.00    +0.000 OA
ATOM      6  N   UNL     1       3.930   5.631  17.961  0.00  0.00    +0.000 N 
ATOM      7  C   UNL     1       3.246   6.841  18.249  0.00  0.00    +0.000 A 
ATOM      8  C   UNL     1       3.219   8.025  17.524  0.00  0.00    +0.000 A 
ATOM      9  C   UNL     1       2.383   9.064  17.944  0.00  0.00    +0.000 A 
ATOM     10  C   UNL     1       1.531   8.893  19.049  0.00  0.00    +0.000 A 
ATOM     11  C   UNL     1       1.642   7.746  19.843  0.00  0.00    +0.000 A 
ATOM     12  C   UNL     1       2.517   6.737  19.431  0.00  0.00    +0.000 A 
ATOM     13  C   UNL     1       2.828   5.459  20.139  0.00  0.00    +0.000 C 
ATOM     14  C   UNL     1       3.794   4.739  19.156  0.00  0.00    +0.000 C 
ATOM     15  C   UNL     1       3.285   3.320  18.903  0.00  0.00    +0.000 C 
BRANCH   4  17
ATOM     16  C   UNL     1       5.970   3.937  15.229  0.00  0.00    +0.000 C 
ATOM     17  C   UNL     1       5.260   4.056  16.573  0.00  0.00    +0.000 C 
ENDBRANCH   4  17
ENDBRANCH   1  10
BRANCH   1  18
ATOM     18  N   UNL     1       0.935  10.861  20.967  0.00  0.00    +0.000 NA
ATOM     19  C   UNL     1       1.185  12.317  21.129  0.00  0.00    +0.000 C 
ATOM     20  C   UNL     1      -0.097  13.070  21.542  0.00  0.00    +0.000 C 
ATOM     21  N   UNL     1      -0.871  12.398  22.615  0.00  0.00    +0.000 N 
ATOM     22  C   UNL     1      -0.951  10.918  22.575  0.00  0.00    +0.000 C 
ATOM     23  C   UNL     1       0.400  10.295  22.226  0.00  0.00    +0.000 C 
BRANCH  21  24
ATOM     24  C   UNL     1      -2.081  13.004  23.002  0.00  0.00    +0.000 A 
ATOM     25  C   UNL     1      -2.339  14.379  22.879  0.00  0.00    +0.000 A 
ATOM     26  C   UNL     1      -3.528  14.945  23.350  0.00  0.00    +0.000 A 
ATOM     27  C   UNL     1      -4.492  14.145  23.952  0.00  0.00    +0.000 A 
ATOM     28  C   UNL     1      -4.277  12.774  24.056  0.00  0.00    +0.000 A 
ATOM     29  C   UNL     1      -3.088  12.214  23.581  0.00  0.00    +0.000 A 
ENDBRANCH  21  24
ENDBRANCH   1  18
TORSDOF 4
ENDMDL
MODEL 8
REMARK VINA RESULT:      -7.8      3.865      9.549
REMARK  Name = 
REMARK  6 active torsions:
REMARK  status: ('A' for Active; 'I' for Inactive)
REMARK    1  A    between atoms: C_1  and  C_2
REMARK    2  A    between atoms: C_2  and  C_3
REMARK    3  A    between atoms: C_9  and  S_10
REMARK    4  A    between atoms: S_10  and  N_13
REMARK    5  A    between atoms: N_16  and  C_17
REMARK    6  A    between atoms: C_28  and  C_29
REMARK                            x       y       z     vdW  Elec       q    Type
REMARK                         _______ _______ _______ _____ _____    ______ ____
ROOT
ATOM      1  S   UNL     1      -0.164  11.591  20.598  0.00  0.00    +0.000 S 
ATOM      2  O   UNL     1      -0.807  12.063  19.388  0.00  0.00    +0.000 OA
ATOM      3  O   UNL     1      -0.931  11.350  21.804  0.00  0.00    +0.000 OA
ENDROOT
BRANCH   1  10
ATOM      4  C   UNL     1       2.927   5.388  20.120  0.00  0.00    +0.000 C 
ATOM      5  O   UNL     1       2.402   5.226  21.224  0.00  0.00    +0.000 OA
ATOM      6  N   UNL     1       2.710   6.504  19.317  0.00  0.00    +0.000 N 
ATOM      7  C   UNL     1       1.888   7.592  19.710  0.00  0.00    +0.000 A 
ATOM      8  C   UNL     1       1.136   7.748  20.866  0.00  0.00    +0.000 A 
ATOM      9  C   UNL     1       0.480   8.962  21.096  0.00  0.00    +0.000 A 
ATOM     10  C   UNL     1       0.630  10.035  20.201  0.00  0.00    +0.000 A 
ATOM     11  C   UNL     1       1.293   9.839  18.983  0.00  0.00    +0.000 A 
ATOM     12  C   UNL     1       1.904   8.604  18.753  0.00  0.00    +0.000 A 
ATOM     13  C   UNL     1       2.619   8.160  17.518  0.00  0.00    +0.000 C 
ATOM     14  C   UNL     1       3.133   6.743  17.901  0.00  0.00    +0.000 C 
ATOM     15  C   UNL     1       4.630   6.656  17.604  0.00  0.00    +0.000 C 
BRANCH   4  17
ATOM     16  C   UNL     1       3.244   3.155  18.972  0.00  0.00    +0.000 C 
ATOM     17  C   UNL     1       3.922   4.355  19.622  0.00  0.00    +0.000 C 
ENDBRANCH   4  17
ENDBRANCH   1  10
BRANCH   1  18
ATOM     18  N   UNL     1       1.055  12.696  21.007  0.00  0.00    +0.000 NA
ATOM     19  C   UNL     1       2.188  12.954  20.081  0.00  0.00    +0.000 C 
ATOM     20  C   UNL     1       1.856  14.080  19.080  0.00  0.00    +0.000 C 
ATOM     21  N   UNL     1       1.209  15.264  19.698  0.00  0.00    +0.000 N 
ATOM     22  C   UNL     1       0.220  15.019  20.775  0.00  0.00    +0.000 C 
ATOM     23  C   UNL     1       0.703  13.935  21.738  0.00  0.00    +0.000 C 
BRANCH  21  24
ATOM     24  C   UNL     1       0.829  16.307  18.831  0.00  0.00    +0.000 A 
ATOM     25  C   UNL     1      -0.498  16.724  18.649  0.00  0.00    +0.000 A 
ATOM     26  C   UNL     1      -0.833  17.713  17.717  0.00  0.00    +0.000 A 
ATOM     27  C   UNL     1       0.158  18.310  16.947  0.00  0.00    +0.000 A 
ATOM     28  C   UNL     1       1.486  17.939  17.130  0.00  0.00    +0.000 A 
ATOM     29  C   UNL     1       1.814  16.953  18.065  0.00  0.00    +0.000 A 
ENDBRANCH  21  24
ENDBRANCH   1  18
TORSDOF 4
ENDMDL
MODEL 9
REMARK VINA RESULT:      -7.8      2.242     10.136
REMARK  Name = 
REMARK  6 active torsions:
REMARK  status: ('A' for Active; 'I' for Inactive)
REMARK    1  A    between atoms: C_1  and  C_2
REMARK    2  A    between atoms: C_2  and  C_3
REMARK    3  A    between atoms: C_9  and  S_10
REMARK    4  A    between atoms: S_10  and  N_13
REMARK    5  A    between atoms: N_16  and  C_17
REMARK    6  A    between atoms: C_28  and  C_29
REMARK                            x       y       z     vdW  Elec       q    Type
REMARK                         _______ _______ _______ _____ _____    ______ ____
ROOT
ATOM      1  S   UNL     1       0.880   8.751  20.948  0.00  0.00    +0.000 S 
ATOM      2  O   UNL     1      -0.438   8.150  20.991  0.00  0.00    +0.000 OA
ATOM      3  O   UNL     1       1.607   9.037  22.168  0.00  0.00    +0.000 OA
ENDROOT
BRANCH   1  10
ATOM      4  C   UNL     1       4.784   5.190  16.439  0.00  0.00    +0.000 C 
ATOM      5  O   UNL     1       4.856   6.289  15.886  0.00  0.00    +0.000 OA
ATOM      6  N   UNL     1       4.172   4.982  17.671  0.00  0.00    +0.000 N 
ATOM      7  C   UNL     1       3.531   6.016  18.402  0.00  0.00    +0.000 A 
ATOM      8  C   UNL     1       3.427   7.366  18.098  0.00  0.00    +0.000 A 
ATOM      9  C   UNL     1       2.649   8.193  18.915  0.00  0.00    +0.000 A 
ATOM     10  C   UNL     1       1.928   7.655  19.995  0.00  0.00    +0.000 A 
ATOM     11  C   UNL     1       2.124   6.319  20.367  0.00  0.00    +0.000 A 
ATOM     12  C   UNL     1       2.941   5.521  19.562  0.00  0.00    +0.000 A 
ATOM     13  C   UNL     1       3.325   4.094  19.789  0.00  0.00    +0.000 C 
ATOM     14  C   UNL     1       4.169   3.753  18.528  0.00  0.00    +0.000 C 
ATOM     15  C   UNL     1       3.628   2.472  17.895  0.00  0.00    +0.000 C 
BRANCH   4  17
ATOM     16  C   UNL     1       5.611   4.238  14.244  0.00  0.00    +0.000 C 
ATOM     17  C   UNL     1       5.328   3.969  15.717  0.00  0.00    +0.000 C 
ENDBRANCH   4  17
ENDBRANCH   1  10
BRANCH   1  18
ATOM     18  N   UNL     1       0.761  10.211  20.095  0.00  0.00    +0.000 NA
ATOM     19  C   UNL     1      -0.250  10.383  19.020  0.00  0.00    +0.000 C 
ATOM     20  C   UNL     1      -1.594  10.895  19.581  0.00  0.00    +0.000 C 
ATOM     21  N   UNL     1      -1.455  12.004  20.557  0.00  0.00    +0.000 N 
ATOM     22  C   UNL     1      -0.317  11.942  21.506  0.00  0.00    +0.000 C 
ATOM     23  C   UNL     1       0.966  11.493  20.808  0.00  0.00    +0.000 C 
BRANCH  21  24
ATOM     24  C   UNL     1      -2.639  12.482  21.149  0.00  0.00    +0.000 A 
ATOM     25  C   UNL     1      -2.856  12.523  22.536  0.00  0.00    +0.000 A 
ATOM     26  C   UNL     1      -4.081  12.934  23.073  0.00  0.00    +0.000 A 
ATOM     27  C   UNL     1      -5.118  13.319  22.232  0.00  0.00    +0.000 A 
ATOM     28  C   UNL     1      -4.920  13.320  20.855  0.00  0.00    +0.000 A 
ATOM     29  C   UNL     1      -3.692  12.911  20.325  0.00  0.00    +0.000 A 
ENDBRANCH  21  24
ENDBRANCH   1  18
TORSDOF 4
ENDMDL
