MODEL 1
REMARK VINA RESULT:      -8.3      0.000      0.000
REMARK  Name = 
REMARK  7 active torsions:
REMARK  status: ('A' for Active; 'I' for Inactive)
REMARK    1  A    between atoms: C_1  and  C_2
REMARK    2  A    between atoms: C_4  and  C_5
REMARK    3  A    between atoms: C_7  and  O_8
REMARK    4  A    between atoms: O_8  and  C_9
REMARK    5  A    between atoms: C_9  and  C_10
REMARK    6  A    between atoms: C_21  and  C_22
REMARK    7  A    between atoms: C_22  and  O_24
REMARK                            x       y       z     vdW  Elec       q    Type
REMARK                         _______ _______ _______ _____ _____    ______ ____
ROOT
ATOM      1  C   UNL     1       2.055   5.737  20.129  0.00  0.00    +0.000 C 
ATOM      2  O   UNL     1       1.229   4.980  20.663  0.00  0.00    +0.000 OA
ATOM      3  N   UNL     1       3.003   5.230  19.257  0.00  0.00    +0.000 N 
ATOM      4  C   UNL     1       3.992   6.101  18.638  0.00  0.00    +0.000 C 
ATOM      5  C   UNL     1       4.617   5.546  17.400  0.00  0.00    +0.000 A 
ATOM      6  C   UNL     1       4.866   6.358  16.291  0.00  0.00    +0.000 A 
ATOM      7  C   UNL     1       5.462   5.816  15.158  0.00  0.00    +0.000 A 
ATOM      8  C   UNL     1       5.824   4.469  15.144  0.00  0.00    +0.000 A 
ATOM      9  C   UNL     1       5.585   3.658  16.255  0.00  0.00    +0.000 A 
ATOM     10  C   UNL     1       4.968   4.190  17.382  0.00  0.00    +0.000 A 
ATOM     11  C   UNL     1       4.586   3.363  18.581  0.00  0.00    +0.000 C 
ATOM     12  C   UNL     1       3.154   3.740  19.032  0.00  0.00    +0.000 C 
ENDROOT
BRANCH  12  13
ATOM     13  C   UNL     1       2.149   3.199  17.981  0.00  0.00    +0.000 C 
ATOM     14  O   UNL     1       1.392   3.907  17.327  0.00  0.00    +0.000 OA
BRANCH  13  15
ATOM     15  O   UNL     1       2.232   1.868  17.735  0.00  0.00    +0.000 OA
ATOM     16  H   UNL     1       1.360   1.480  17.525  0.00  0.00    +0.000 HD
ENDBRANCH  13  15
ENDBRANCH  12  13
BRANCH   1  17
ATOM     17  C   UNL     1       1.948   7.269  20.285  0.00  0.00    +0.000 C 
BRANCH  17  18
ATOM     18  O   UNL     1       1.080   7.617  21.352  0.00  0.00    +0.000 OA
BRANCH  18  25
ATOM     19  C   UNL     1      -1.603  11.378  23.200  0.00  0.00    +0.000 C 
ATOM     20  C   UNL     1      -0.706  10.784  22.152  0.00  0.00    +0.000 A 
ATOM     21  C   UNL     1      -0.337  11.524  21.023  0.00  0.00    +0.000 A 
ATOM     22  C   UNL     1       0.489  10.963  20.043  0.00  0.00    +0.000 A 
ATOM     23  C   UNL     1       0.892  11.751  18.830  0.00  0.00    +0.000 C 
ATOM     24  C   UNL     1       0.944   9.648  20.204  0.00  0.00    +0.000 A 
ATOM     25  C   UNL     1       0.598   8.902  21.331  0.00  0.00    +0.000 A 
ATOM     26  C   UNL     1      -0.237   9.469  22.298  0.00  0.00    +0.000 A 
ENDBRANCH  18  25
ENDBRANCH  17  18
ENDBRANCH   1  17
TORSDOF 5
ENDMDL
MODEL 2
REMARK VINA RESULT:      -8.2      0.327      1.735
REMARK  Name = 
REMARK  7 active torsions:
REMARK  status: ('A' for Active; 'I' for Inactive)
REMARK    1  A    between atoms: C_1  and  C_2
REMARK    2  A    between atoms: C_4  and  C_5
REMARK    3  A    between atoms: C_7  and  O_8
REMARK    4  A    between atoms: O_8  and  C_9
REMARK    5  A    between atoms: C_9  and  C_10
REMARK    6  A    between atoms: C_21  and  C_22
REMARK    7  A    between atoms: C_22  and  O_24
REMARK                            x       y       z     vdW  Elec       q    Type
REMARK                         _______ _______ _______ _____ _____    ______ ____
ROOT
ATOM      1  C   UNL     1       2.074   5.886  20.151  0.00  0.00    +0.000 C 
ATOM      2  O   UNL     1       1.230   5.165  20.709  0.00  0.00    +0.000 OA
ATOM      3  N   UNL     1       3.003   5.332  19.288  0.00  0.00    +0.000 N 
ATOM      4  C   UNL     1       4.011   6.160  18.643  0.00  0.00    +0.000 C 
ATOM      5  C   UNL     1       4.614   5.558  17.416  0.00  0.00    +0.000 A 
ATOM      6  C   UNL     1       4.879   6.334  16.285  0.00  0.00    +0.000 A 
ATOM      7  C   UNL     1       5.454   5.747  15.164  0.00  0.00    +0.000 A 
ATOM      8  C   UNL     1       5.780   4.391  15.183  0.00  0.00    +0.000 A 
ATOM      9  C   UNL     1       5.526   3.616  16.315  0.00  0.00    +0.000 A 
ATOM     10  C   UNL     1       4.929   4.192  17.431  0.00  0.00    +0.000 A 
ATOM     11  C   UNL     1       4.531   3.407  18.653  0.00  0.00    +0.000 C 
ATOM     12  C   UNL     1       3.113   3.834  19.101  0.00  0.00    +0.000 C 
ENDROOT
BRANCH  12  13
ATOM     13  C   UNL     1       2.088   3.292  18.069  0.00  0.00    +0.000 C 
ATOM     14  O   UNL     1       1.359   4.004  17.388  0.00  0.00    +0.000 OA
BRANCH  13  15
ATOM     15  O   UNL     1       2.120   1.951  17.873  0.00  0.00    +0.000 OA
ATOM     16  H   UNL     1       1.652   1.690  17.056  0.00  0.00    +0.000 HD
ENDBRANCH  13  15
ENDBRANCH  12  13
BRANCH   1  17
ATOM     17  C   UNL     1       2.007   7.424  20.269  0.00  0.00    +0.000 C 
BRANCH  17  18
ATOM     18  O   UNL     1       1.094   7.823  21.277  0.00  0.00    +0.000 OA
BRANCH  18  25
ATOM     19  C   UNL     1      -0.121  11.764  18.493  0.00  0.00    +0.000 C 
ATOM     20  C   UNL     1      -0.163  10.992  19.781  0.00  0.00    +0.000 A 
ATOM     21  C   UNL     1      -0.839  11.498  20.896  0.00  0.00    +0.000 A 
ATOM     22  C   UNL     1      -0.866  10.781  22.097  0.00  0.00    +0.000 A 
ATOM     23  C   UNL     1      -1.592  11.314  23.299  0.00  0.00    +0.000 C 
ATOM     24  C   UNL     1      -0.207   9.547  22.172  0.00  0.00    +0.000 A 
ATOM     25  C   UNL     1       0.460   9.022  21.064  0.00  0.00    +0.000 A 
ATOM     26  C   UNL     1       0.489   9.752  19.873  0.00  0.00    +0.000 A 
ENDBRANCH  18  25
ENDBRANCH  17  18
ENDBRANCH   1  17
TORSDOF 5
ENDMDL
MODEL 3
REMARK VINA RESULT:      -8.1      2.007      2.326
REMARK  Name = 
REMARK  7 active torsions:
REMARK  status: ('A' for Active; 'I' for Inactive)
REMARK    1  A    between atoms: C_1  and  C_2
REMARK    2  A    between atoms: C_4  and  C_5
REMARK    3  A    between atoms: C_7  and  O_8
REMARK    4  A    between atoms: O_8  and  C_9
REMARK    5  A    between atoms: C_9  and  C_10
REMARK    6  A    between atoms: C_21  and  C_22
REMARK    7  A    between atoms: C_22  and  O_24
REMARK                            x       y       z     vdW  Elec       q    Type
REMARK                         _______ _______ _______ _____ _____    ______ ____
ROOT
ATOM      1  C   UNL     1       2.651   6.862  19.127  0.00  0.00    +0.000 C 
ATOM      2  O   UNL     1       2.196   6.396  20.184  0.00  0.00    +0.000 OA
ATOM      3  N   UNL     1       3.824   6.360  18.591  0.00  0.00    +0.000 N 
ATOM      4  C   UNL     1       4.382   6.910  17.364  0.00  0.00    +0.000 C 
ATOM      5  C   UNL     1       5.334   6.004  16.656  0.00  0.00    +0.000 A 
ATOM      6  C   UNL     1       5.324   5.889  15.263  0.00  0.00    +0.000 A 
ATOM      7  C   UNL     1       6.233   5.048  14.633  0.00  0.00    +0.000 A 
ATOM      8  C   UNL     1       7.162   4.338  15.393  0.00  0.00    +0.000 A 
ATOM      9  C   UNL     1       7.180   4.458  16.784  0.00  0.00    +0.000 A 
ATOM     10  C   UNL     1       6.258   5.280  17.422  0.00  0.00    +0.000 A 
ATOM     11  C   UNL     1       6.147   5.389  18.919  0.00  0.00    +0.000 C 
ATOM     12  C   UNL     1       4.656   5.334  19.331  0.00  0.00    +0.000 C 
ENDROOT
BRANCH  12  13
ATOM     13  C   UNL     1       4.139   3.887  19.111  0.00  0.00    +0.000 C 
ATOM     14  O   UNL     1       3.096   3.612  18.530  0.00  0.00    +0.000 OA
BRANCH  13  15
ATOM     15  O   UNL     1       4.983   2.905  19.513  0.00  0.00    +0.000 OA
ATOM     16  H   UNL     1       4.568   2.023  19.463  0.00  0.00    +0.000 HD
ENDBRANCH  13  15
ENDBRANCH  12  13
BRANCH   1  17
ATOM     17  C   UNL     1       1.847   7.888  18.299  0.00  0.00    +0.000 C 
BRANCH  17  18
ATOM     18  O   UNL     1       1.890   9.175  18.893  0.00  0.00    +0.000 OA
BRANCH  18  25
ATOM     19  C   UNL     1      -1.443  12.144  21.092  0.00  0.00    +0.000 C 
ATOM     20  C   UNL     1      -0.998  11.271  19.953  0.00  0.00    +0.000 A 
ATOM     21  C   UNL     1      -1.834  11.050  18.853  0.00  0.00    +0.000 A 
ATOM     22  C   UNL     1      -1.420  10.227  17.800  0.00  0.00    +0.000 A 
ATOM     23  C   UNL     1      -2.309   9.985  16.614  0.00  0.00    +0.000 C 
ATOM     24  C   UNL     1      -0.156   9.626  17.858  0.00  0.00    +0.000 A 
ATOM     25  C   UNL     1       0.695   9.849  18.941  0.00  0.00    +0.000 A 
ATOM     26  C   UNL     1       0.267  10.664  19.992  0.00  0.00    +0.000 A 
ENDBRANCH  18  25
ENDBRANCH  17  18
ENDBRANCH   1  17
TORSDOF 5
ENDMDL
MODEL 4
REMARK VINA RESULT:      -8.0      1.654      2.360
REMARK  Name = 
REMARK  7 active torsions:
REMARK  status: ('A' for Active; 'I' for Inactive)
REMARK    1  A    between atoms: C_1  and  C_2
REMARK    2  A    between atoms: C_4  and  C_5
REMARK    3  A    between atoms: C_7  and  O_8
REMARK    4  A    between atoms: O_8  and  C_9
REMARK    5  A    between atoms: C_9  and  C_10
REMARK    6  A    between atoms: C_21  and  C_22
REMARK    7  A    between atoms: C_22  and  O_24
REMARK                            x       y       z     vdW  Elec       q    Type
REMARK                         _______ _______ _______ _____ _____    ______ ____
ROOT
ATOM      1  C   UNL     1       2.608   6.640  19.201  0.00  0.00    +0.000 C 
ATOM      2  O   UNL     1       2.188   6.136  20.255  0.00  0.00    +0.000 OA
ATOM      3  N   UNL     1       3.797   6.203  18.645  0.00  0.00    +0.000 N 
ATOM      4  C   UNL     1       4.314   6.798  17.421  0.00  0.00    +0.000 C 
ATOM      5  C   UNL     1       5.301   5.949  16.689  0.00  0.00    +0.000 A 
ATOM      6  C   UNL     1       5.281   5.856  15.295  0.00  0.00    +0.000 A 
ATOM      7  C   UNL     1       6.222   5.068  14.642  0.00  0.00    +0.000 A 
ATOM      8  C   UNL     1       7.192   4.392  15.381  0.00  0.00    +0.000 A 
ATOM      9  C   UNL     1       7.221   4.492  16.773  0.00  0.00    +0.000 A 
ATOM     10  C   UNL     1       6.267   5.259  17.434  0.00  0.00    +0.000 A 
ATOM     11  C   UNL     1       6.168   5.339  18.934  0.00  0.00    +0.000 C 
ATOM     12  C   UNL     1       4.686   5.207  19.360  0.00  0.00    +0.000 C 
ENDROOT
BRANCH  12  13
ATOM     13  C   UNL     1       4.236   3.741  19.123  0.00  0.00    +0.000 C 
ATOM     14  O   UNL     1       3.232   3.424  18.496  0.00  0.00    +0.000 OA
BRANCH  13  15
ATOM     15  O   UNL     1       5.099   2.793  19.566  0.00  0.00    +0.000 OA
ATOM     16  H   UNL     1       5.052   1.977  19.032  0.00  0.00    +0.000 HD
ENDBRANCH  13  15
ENDBRANCH  12  13
BRANCH   1  17
ATOM     17  C   UNL     1       1.746   7.638  18.398  0.00  0.00    +0.000 C 
BRANCH  17  18
ATOM     18  O   UNL     1       2.010   8.976  18.789  0.00  0.00    +0.000 OA
BRANCH  18  25
ATOM     19  C   UNL     1      -1.833  12.132  18.959  0.00  0.00    +0.000 C 
ATOM     20  C   UNL     1      -0.890  11.160  19.610  0.00  0.00    +0.000 A 
ATOM     21  C   UNL     1      -0.981  10.884  20.979  0.00  0.00    +0.000 A 
ATOM     22  C   UNL     1      -0.093   9.988  21.584  0.00  0.00    +0.000 A 
ATOM     23  C   UNL     1      -0.184   9.683  23.052  0.00  0.00    +0.000 C 
ATOM     24  C   UNL     1       0.889   9.367  20.803  0.00  0.00    +0.000 A 
ATOM     25  C   UNL     1       0.984   9.620  19.434  0.00  0.00    +0.000 A 
ATOM     26  C   UNL     1       0.099  10.526  18.842  0.00  0.00    +0.000 A 
ENDBRANCH  18  25
ENDBRANCH  17  18
ENDBRANCH   1  17
TORSDOF 5
ENDMDL
MODEL 5
REMARK VINA RESULT:      -8.0      1.610      1.887
REMARK  Name = 
REMARK  7 active torsions:
REMARK  status: ('A' for Active; 'I' for Inactive)
REMARK    1  A    between atoms: C_1  and  C_2
REMARK    2  A    between atoms: C_4  and  C_5
REMARK    3  A    between atoms: C_7  and  O_8
REMARK    4  A    between atoms: O_8  and  C_9
REMARK    5  A    between atoms: C_9  and  C_10
REMARK    6  A    between atoms: C_21  and  C_22
REMARK    7  A    between atoms: C_22  and  O_24
REMARK                            x       y       z     vdW  Elec       q    Type
REMARK                         _______ _______ _______ _____ _____    ______ ____
ROOT
ATOM      1  C   UNL     1       2.647   6.382  19.349  0.00  0.00    +0.000 C 
ATOM      2  O   UNL     1       2.276   5.823  20.394  0.00  0.00    +0.000 OA
ATOM      3  N   UNL     1       3.839   6.018  18.749  0.00  0.00    +0.000 N 
ATOM      4  C   UNL     1       4.298   6.678  17.535  0.00  0.00    +0.000 C 
ATOM      5  C   UNL     1       5.303   5.901  16.750  0.00  0.00    +0.000 A 
ATOM      6  C   UNL     1       5.251   5.856  15.354  0.00  0.00    +0.000 A 
ATOM      7  C   UNL     1       6.209   5.135  14.651  0.00  0.00    +0.000 A 
ATOM      8  C   UNL     1       7.226   4.479  15.342  0.00  0.00    +0.000 A 
ATOM      9  C   UNL     1       7.287   4.531  16.735  0.00  0.00    +0.000 A 
ATOM     10  C   UNL     1       6.317   5.230  17.446  0.00  0.00    +0.000 A 
ATOM     11  C   UNL     1       6.253   5.254  18.950  0.00  0.00    +0.000 C 
ATOM     12  C   UNL     1       4.789   5.040  19.406  0.00  0.00    +0.000 C 
ENDROOT
BRANCH  12  13
ATOM     13  C   UNL     1       4.399   3.563  19.127  0.00  0.00    +0.000 C 
ATOM     14  O   UNL     1       3.566   3.219  18.298  0.00  0.00    +0.000 OA
BRANCH  13  15
ATOM     15  O   UNL     1       5.132   2.637  19.794  0.00  0.00    +0.000 OA
ATOM     16  H   UNL     1       5.805   3.048  20.369  0.00  0.00    +0.000 HD
ENDBRANCH  13  15
ENDBRANCH  12  13
BRANCH   1  17
ATOM     17  C   UNL     1       1.721   7.367  18.604  0.00  0.00    +0.000 C 
BRANCH  17  18
ATOM     18  O   UNL     1       2.057   8.712  18.901  0.00  0.00    +0.000 OA
BRANCH  18  25
ATOM     19  C   UNL     1      -0.403   9.809  23.084  0.00  0.00    +0.000 C 
ATOM     20  C   UNL     1      -0.143   9.994  21.617  0.00  0.00    +0.000 A 
ATOM     21  C   UNL     1      -0.904  10.895  20.864  0.00  0.00    +0.000 A 
ATOM     22  C   UNL     1      -0.666  11.056  19.494  0.00  0.00    +0.000 A 
ATOM     23  C   UNL     1      -1.476  12.022  18.678  0.00  0.00    +0.000 C 
ATOM     24  C   UNL     1       0.346  10.304  18.883  0.00  0.00    +0.000 A 
ATOM     25  C   UNL     1       1.123   9.413  19.623  0.00  0.00    +0.000 A 
ATOM     26  C   UNL     1       0.869   9.252  20.988  0.00  0.00    +0.000 A 
ENDBRANCH  18  25
ENDBRANCH  17  18
ENDBRANCH   1  17
TORSDOF 5
ENDMDL
MODEL 6
REMARK VINA RESULT:      -8.0      1.984      2.686
REMARK  Name = 
REMARK  7 active torsions:
REMARK  status: ('A' for Active; 'I' for Inactive)
REMARK    1  A    between atoms: C_1  and  C_2
REMARK    2  A    between atoms: C_4  and  C_5
REMARK    3  A    between atoms: C_7  and  O_8
REMARK    4  A    between atoms: O_8  and  C_9
REMARK    5  A    between atoms: C_9  and  C_10
REMARK    6  A    between atoms: C_21  and  C_22
REMARK    7  A    between atoms: C_22  and  O_24
REMARK                            x       y       z     vdW  Elec       q    Type
REMARK                         _______ _______ _______ _____ _____    ______ ____
ROOT
ATOM      1  C   UNL     1       2.664   6.879  19.135  0.00  0.00    +0.000 C 
ATOM      2  O   UNL     1       2.198   6.403  20.183  0.00  0.00    +0.000 OA
ATOM      3  N   UNL     1       3.832   6.367  18.596  0.00  0.00    +0.000 N 
ATOM      4  C   UNL     1       4.403   6.927  17.380  0.00  0.00    +0.000 C 
ATOM      5  C   UNL     1       5.345   6.017  16.662  0.00  0.00    +0.000 A 
ATOM      6  C   UNL     1       5.339   5.925  15.268  0.00  0.00    +0.000 A 
ATOM      7  C   UNL     1       6.238   5.079  14.628  0.00  0.00    +0.000 A 
ATOM      8  C   UNL     1       7.152   4.344  15.381  0.00  0.00    +0.000 A 
ATOM      9  C   UNL     1       7.167   4.443  16.774  0.00  0.00    +0.000 A 
ATOM     10  C   UNL     1       6.254   5.269  17.420  0.00  0.00    +0.000 A 
ATOM     11  C   UNL     1       6.139   5.356  18.919  0.00  0.00    +0.000 C 
ATOM     12  C   UNL     1       4.645   5.318  19.324  0.00  0.00    +0.000 C 
ENDROOT
BRANCH  12  13
ATOM     13  C   UNL     1       4.108   3.882  19.080  0.00  0.00    +0.000 C 
ATOM     14  O   UNL     1       3.061   3.632  18.494  0.00  0.00    +0.000 OA
BRANCH  13  15
ATOM     15  O   UNL     1       4.938   2.882  19.465  0.00  0.00    +0.000 OA
ATOM     16  H   UNL     1       5.074   2.226  18.754  0.00  0.00    +0.000 HD
ENDBRANCH  13  15
ENDBRANCH  12  13
BRANCH   1  17
ATOM     17  C   UNL     1       1.879   7.929  18.320  0.00  0.00    +0.000 C 
BRANCH  17  18
ATOM     18  O   UNL     1       1.754   9.146  19.036  0.00  0.00    +0.000 OA
BRANCH  18  25
ATOM     19  C   UNL     1      -2.432  10.351  16.631  0.00  0.00    +0.000 C 
ATOM     20  C   UNL     1      -1.525  10.427  17.826  0.00  0.00    +0.000 A 
ATOM     21  C   UNL     1      -1.867  11.211  18.933  0.00  0.00    +0.000 A 
ATOM     22  C   UNL     1      -1.014  11.288  20.040  0.00  0.00    +0.000 A 
ATOM     23  C   UNL     1      -1.373  12.126  21.234  0.00  0.00    +0.000 C 
ATOM     24  C   UNL     1       0.188  10.569  20.029  0.00  0.00    +0.000 A 
ATOM     25  C   UNL     1       0.536   9.771  18.938  0.00  0.00    +0.000 A 
ATOM     26  C   UNL     1      -0.319   9.710  17.834  0.00  0.00    +0.000 A 
ENDBRANCH  18  25
ENDBRANCH  17  18
ENDBRANCH   1  17
TORSDOF 5
ENDMDL
MODEL 7
REMARK VINA RESULT:      -7.9      2.247      3.879
REMARK  Name = 
REMARK  7 active torsions:
REMARK  status: ('A' for Active; 'I' for Inactive)
REMARK    1  A    between atoms: C_1  and  C_2
REMARK    2  A    between atoms: C_4  and  C_5
REMARK    3  A    between atoms: C_7  and  O_8
REMARK    4  A    between atoms: O_8  and  C_9
REMARK    5  A    between atoms: C_9  and  C_10
REMARK    6  A    between atoms: C_21  and  C_22
REMARK    7  A    between atoms: C_22  and  O_24
REMARK                            x       y       z     vdW  Elec       q    Type
REMARK                         _______ _______ _______ _____ _____    ______ ____
ROOT
ATOM      1  C   UNL     1       3.611   7.371  17.518  0.00  0.00    +0.000 C 
ATOM      2  O   UNL     1       4.748   7.733  17.175  0.00  0.00    +0.000 OA
ATOM      3  N   UNL     1       3.344   6.032  17.741  0.00  0.00    +0.000 N 
ATOM      4  C   UNL     1       2.010   5.588  18.122  0.00  0.00    +0.000 C 
ATOM      5  C   UNL     1       1.969   4.249  18.782  0.00  0.00    +0.000 A 
ATOM      6  C   UNL     1       1.131   4.007  19.874  0.00  0.00    +0.000 A 
ATOM      7  C   UNL     1       1.104   2.745  20.457  0.00  0.00    +0.000 A 
ATOM      8  C   UNL     1       1.899   1.725  19.936  0.00  0.00    +0.000 A 
ATOM      9  C   UNL     1       2.729   1.962  18.839  0.00  0.00    +0.000 A 
ATOM     10  C   UNL     1       2.778   3.228  18.266  0.00  0.00    +0.000 A 
ATOM     11  C   UNL     1       3.716   3.591  17.147  0.00  0.00    +0.000 C 
ATOM     12  C   UNL     1       4.372   4.960  17.448  0.00  0.00    +0.000 C 
ENDROOT
BRANCH  12  13
ATOM     13  C   UNL     1       5.379   4.776  18.615  0.00  0.00    +0.000 C 
ATOM     14  O   UNL     1       5.259   5.304  19.714  0.00  0.00    +0.000 OA
BRANCH  13  15
ATOM     15  O   UNL     1       6.373   3.883  18.385  0.00  0.00    +0.000 OA
ATOM     16  H   UNL     1       6.573   3.796  17.433  0.00  0.00    +0.000 HD
ENDBRANCH  13  15
ENDBRANCH  12  13
BRANCH   1  17
ATOM     17  C   UNL     1       2.518   8.405  17.864  0.00  0.00    +0.000 C 
BRANCH  17  18
ATOM     18  O   UNL     1       2.166   8.341  19.236  0.00  0.00    +0.000 OA
BRANCH  18  25
ATOM     19  C   UNL     1      -1.160  11.955  18.438  0.00  0.00    +0.000 C 
ATOM     20  C   UNL     1      -0.469  10.968  19.336  0.00  0.00    +0.000 A 
ATOM     21  C   UNL     1      -0.788  10.894  20.696  0.00  0.00    +0.000 A 
ATOM     22  C   UNL     1      -0.135   9.982  21.532  0.00  0.00    +0.000 A 
ATOM     23  C   UNL     1      -0.472   9.894  22.993  0.00  0.00    +0.000 C 
ATOM     24  C   UNL     1       0.846   9.141  20.991  0.00  0.00    +0.000 A 
ATOM     25  C   UNL     1       1.165   9.192  19.634  0.00  0.00    +0.000 A 
ATOM     26  C   UNL     1       0.513  10.115  18.811  0.00  0.00    +0.000 A 
ENDBRANCH  18  25
ENDBRANCH  17  18
ENDBRANCH   1  17
TORSDOF 5
ENDMDL
MODEL 8
REMARK VINA RESULT:      -7.8      2.489      8.534
REMARK  Name = 
REMARK  7 active torsions:
REMARK  status: ('A' for Active; 'I' for Inactive)
REMARK    1  A    between atoms: C_1  and  C_2
REMARK    2  A    between atoms: C_4  and  C_5
REMARK    3  A    between atoms: C_7  and  O_8
REMARK    4  A    between atoms: O_8  and  C_9
REMARK    5  A    between atoms: C_9  and  C_10
REMARK    6  A    between atoms: C_21  and  C_22
REMARK    7  A    between atoms: C_22  and  O_24
REMARK                            x       y       z     vdW  Elec       q    Type
REMARK                         _______ _______ _______ _____ _____    ______ ____
ROOT
ATOM      1  C   UNL     1       1.602   9.256  18.601  0.00  0.00    +0.000 C 
ATOM      2  O   UNL     1       1.633   9.434  17.372  0.00  0.00    +0.000 OA
ATOM      3  N   UNL     1       1.060  10.221  19.431  0.00  0.00    +0.000 N 
ATOM      4  C   UNL     1       1.035  10.037  20.875  0.00  0.00    +0.000 C 
ATOM      5  C   UNL     1       0.032  10.881  21.589  0.00  0.00    +0.000 A 
ATOM      6  C   UNL     1      -0.723  10.367  22.647  0.00  0.00    +0.000 A 
ATOM      7  C   UNL     1      -1.640  11.183  23.301  0.00  0.00    +0.000 A 
ATOM      8  C   UNL     1      -1.785  12.513  22.910  0.00  0.00    +0.000 A 
ATOM      9  C   UNL     1      -1.025  13.031  21.861  0.00  0.00    +0.000 A 
ATOM     10  C   UNL     1      -0.124  12.214  21.187  0.00  0.00    +0.000 A 
ATOM     11  C   UNL     1       0.660  12.667  19.984  0.00  0.00    +0.000 C 
ATOM     12  C   UNL     1       0.617  11.566  18.897  0.00  0.00    +0.000 C 
ENDROOT
BRANCH  12  13
ATOM     13  C   UNL     1      -0.816  11.520  18.302  0.00  0.00    +0.000 C 
ATOM     14  O   UNL     1      -1.615  10.615  18.507  0.00  0.00    +0.000 OA
BRANCH  13  15
ATOM     15  O   UNL     1      -1.189  12.624  17.608  0.00  0.00    +0.000 OA
ATOM     16  H   UNL     1      -0.582  13.373  17.760  0.00  0.00    +0.000 HD
ENDBRANCH  13  15
ENDBRANCH  12  13
BRANCH   1  17
ATOM     17  C   UNL     1       2.008   7.900  19.218  0.00  0.00    +0.000 C 
BRANCH  17  18
ATOM     18  O   UNL     1       3.176   7.384  18.601  0.00  0.00    +0.000 OA
BRANCH  18  25
ATOM     19  C   UNL     1       1.097   2.863  18.547  0.00  0.00    +0.000 C 
ATOM     20  C   UNL     1       2.165   3.833  18.127  0.00  0.00    +0.000 A 
ATOM     21  C   UNL     1       3.216   3.423  17.299  0.00  0.00    +0.000 A 
ATOM     22  C   UNL     1       4.216   4.326  16.920  0.00  0.00    +0.000 A 
ATOM     23  C   UNL     1       5.346   3.897  16.029  0.00  0.00    +0.000 C 
ATOM     24  C   UNL     1       4.153   5.648  17.378  0.00  0.00    +0.000 A 
ATOM     25  C   UNL     1       3.103   6.075  18.193  0.00  0.00    +0.000 A 
ATOM     26  C   UNL     1       2.116   5.162  18.574  0.00  0.00    +0.000 A 
ENDBRANCH  18  25
ENDBRANCH  17  18
ENDBRANCH   1  17
TORSDOF 5
ENDMDL
MODEL 9
REMARK VINA RESULT:      -7.7      2.196      3.443
REMARK  Name = 
REMARK  7 active torsions:
REMARK  status: ('A' for Active; 'I' for Inactive)
REMARK    1  A    between atoms: C_1  and  C_2
REMARK    2  A    between atoms: C_4  and  C_5
REMARK    3  A    between atoms: C_7  and  O_8
REMARK    4  A    between atoms: O_8  and  C_9
REMARK    5  A    between atoms: C_9  and  C_10
REMARK    6  A    between atoms: C_21  and  C_22
REMARK    7  A    between atoms: C_22  and  O_24
REMARK                            x       y       z     vdW  Elec       q    Type
REMARK                         _______ _______ _______ _____ _____    ______ ____
ROOT
ATOM      1  C   UNL     1       3.452   7.450  17.671  0.00  0.00    +0.000 C 
ATOM      2  O   UNL     1       4.560   7.956  17.433  0.00  0.00    +0.000 OA
ATOM      3  N   UNL     1       3.311   6.074  17.725  0.00  0.00    +0.000 N 
ATOM      4  C   UNL     1       2.014   5.465  17.982  0.00  0.00    +0.000 C 
ATOM      5  C   UNL     1       2.079   4.059  18.480  0.00  0.00    +0.000 A 
ATOM      6  C   UNL     1       1.225   3.610  19.491  0.00  0.00    +0.000 A 
ATOM      7  C   UNL     1       1.300   2.291  19.924  0.00  0.00    +0.000 A 
ATOM      8  C   UNL     1       2.214   1.419  19.331  0.00  0.00    +0.000 A 
ATOM      9  C   UNL     1       3.060   1.863  18.314  0.00  0.00    +0.000 A 
ATOM     10  C   UNL     1       3.006   3.187  17.894  0.00  0.00    +0.000 A 
ATOM     11  C   UNL     1       3.949   3.769  16.874  0.00  0.00    +0.000 C 
ATOM     12  C   UNL     1       4.452   5.148  17.365  0.00  0.00    +0.000 C 
ENDROOT
BRANCH  12  13
ATOM     13  C   UNL     1       5.423   4.921  18.555  0.00  0.00    +0.000 C 
ATOM     14  O   UNL     1       5.267   5.404  19.670  0.00  0.00    +0.000 OA
BRANCH  13  15
ATOM     15  O   UNL     1       6.429   4.042  18.320  0.00  0.00    +0.000 OA
ATOM     16  H   UNL     1       6.365   3.642  17.431  0.00  0.00    +0.000 HD
ENDBRANCH  13  15
ENDBRANCH  12  13
BRANCH   1  17
ATOM     17  C   UNL     1       2.248   8.327  18.076  0.00  0.00    +0.000 C 
BRANCH  17  18
ATOM     18  O   UNL     1       2.041   8.301  19.479  0.00  0.00    +0.000 OA
BRANCH  18  25
ATOM     19  C   UNL     1      -0.777  10.253  23.085  0.00  0.00    +0.000 C 
ATOM     20  C   UNL     1      -0.319  10.184  21.656  0.00  0.00    +0.000 A 
ATOM     21  C   UNL     1      -0.876  11.024  20.686  0.00  0.00    +0.000 A 
ATOM     22  C   UNL     1      -0.455  10.949  19.354  0.00  0.00    +0.000 A 
ATOM     23  C   UNL     1      -1.045  11.849  18.306  0.00  0.00    +0.000 C 
ATOM     24  C   UNL     1       0.534  10.022  19.001  0.00  0.00    +0.000 A 
ATOM     25  C   UNL     1       1.110   9.188  19.959  0.00  0.00    +0.000 A 
ATOM     26  C   UNL     1       0.674   9.264  21.285  0.00  0.00    +0.000 A 
ENDBRANCH  18  25
ENDBRANCH  17  18
ENDBRANCH   1  17
TORSDOF 5
ENDMDL
