MODEL 1
REMARK VINA RESULT:      -6.7      0.000      0.000
REMARK  Name = 
REMARK  5 active torsions:
REMARK  status: ('A' for Active; 'I' for Inactive)
REMARK    1  A    between atoms: C_1  and  C_2
REMARK    2  A    between atoms: C_2  and  N_3
REMARK    3  A    between atoms: N_3  and  C_4
REMARK    4  A    between atoms: C_4  and  C_5
REMARK    5  A    between atoms: C_7  and  O_8
REMARK                            x       y       z     vdW  Elec       q    Type
REMARK                         _______ _______ _______ _____ _____    ______ ____
ROOT
ATOM      1  C   UNL     1       3.714   5.097  19.108  0.00  0.00    +0.000 A 
ATOM      2  N   UNL     1       4.836   5.295  19.828  0.00  0.00    +0.000 NA
ATOM      3  C   UNL     1       5.974   5.163  19.142  0.00  0.00    +0.000 A 
ATOM      4  C   UNL     1       6.081   4.840  17.796  0.00  0.00    +0.000 A 
ATOM      5  C   UNL     1       7.298   4.688  17.092  0.00  0.00    +0.000 A 
ATOM      6  C   UNL     1       7.282   4.355  15.741  0.00  0.00    +0.000 A 
ATOM      7  C   UNL     1       6.059   4.188  15.100  0.00  0.00    +0.000 A 
ATOM      8 CL   UNL     1       6.022   3.778  13.429  0.00  0.00    +0.000 Cl
ATOM      9  C   UNL     1       4.863   4.343  15.800  0.00  0.00    +0.000 A 
ATOM     10  C   UNL     1       4.856   4.662  17.152  0.00  0.00    +0.000 A 
ATOM     11  N   UNL     1       3.687   4.783  17.794  0.00  0.00    +0.000 NA
ENDROOT
BRANCH   3  12
ATOM     12  O   UNL     1       7.083   5.379  19.901  0.00  0.00    +0.000 OA
ATOM     13  H   UNL     1       7.554   6.022  19.342  0.00  0.00    +0.000 HD
ENDBRANCH   3  12
BRANCH   1  14
ATOM     14  C   UNL     1       2.381   5.224  19.833  0.00  0.00    +0.000 C 
BRANCH  14  15
ATOM     15  N   UNL     1       2.481   4.909  21.269  0.00  0.00    +0.000 NA
ATOM     16  H   UNL     1       3.447   5.068  21.559  0.00  0.00    +0.000 HD
BRANCH  15  18
ATOM     17  C   UNL     1       1.055   3.090  20.511  0.00  0.00    +0.000 C 
ATOM     18  C   UNL     1       2.089   3.530  21.535  0.00  0.00    +0.000 C 
ENDBRANCH  15  18
ENDBRANCH  14  15
ENDBRANCH   1  14
TORSDOF 4
ENDMDL
MODEL 2
REMARK VINA RESULT:      -6.7      3.006      5.636
REMARK  Name = 
REMARK  5 active torsions:
REMARK  status: ('A' for Active; 'I' for Inactive)
REMARK    1  A    between atoms: C_1  and  C_2
REMARK    2  A    between atoms: C_2  and  N_3
REMARK    3  A    between atoms: N_3  and  C_4
REMARK    4  A    between atoms: C_4  and  C_5
REMARK    5  A    between atoms: C_7  and  O_8
REMARK                            x       y       z     vdW  Elec       q    Type
REMARK                         _______ _______ _______ _____ _____    ______ ____
ROOT
ATOM      1  C   UNL     1       6.410   4.373  15.437  0.00  0.00    +0.000 A 
ATOM      2  N   UNL     1       7.367   4.601  16.359  0.00  0.00    +0.000 NA
ATOM      3  C   UNL     1       6.931   4.646  17.621  0.00  0.00    +0.000 A 
ATOM      4  C   UNL     1       5.615   4.489  18.034  0.00  0.00    +0.000 A 
ATOM      5  C   UNL     1       5.173   4.556  19.375  0.00  0.00    +0.000 A 
ATOM      6  C   UNL     1       3.824   4.389  19.671  0.00  0.00    +0.000 A 
ATOM      7  C   UNL     1       2.929   4.145  18.634  0.00  0.00    +0.000 A 
ATOM      8 CL   UNL     1       1.257   3.934  18.982  0.00  0.00    +0.000 Cl
ATOM      9  C   UNL     1       3.374   4.076  17.313  0.00  0.00    +0.000 A 
ATOM     10  C   UNL     1       4.714   4.253  16.995  0.00  0.00    +0.000 A 
ATOM     11  N   UNL     1       5.099   4.200  15.713  0.00  0.00    +0.000 NA
ENDROOT
BRANCH   3  12
ATOM     12  O   UNL     1       7.927   4.869  18.521  0.00  0.00    +0.000 OA
ATOM     13  H   UNL     1       8.684   4.984  17.919  0.00  0.00    +0.000 HD
ENDBRANCH   3  12
BRANCH   1  14
ATOM     14  C   UNL     1       6.839   4.320  13.977  0.00  0.00    +0.000 C 
BRANCH  14  15
ATOM     15  N   UNL     1       6.313   3.138  13.271  0.00  0.00    +0.000 NA
ATOM     16  H   UNL     1       7.014   2.400  13.329  0.00  0.00    +0.000 HD
BRANCH  15  18
ATOM     17  C   UNL     1       4.535   3.205  11.612  0.00  0.00    +0.000 C 
ATOM     18  C   UNL     1       6.013   3.447  11.878  0.00  0.00    +0.000 C 
ENDBRANCH  15  18
ENDBRANCH  14  15
ENDBRANCH   1  14
TORSDOF 4
ENDMDL
MODEL 3
REMARK VINA RESULT:      -6.4      1.457      1.725
REMARK  Name = 
REMARK  5 active torsions:
REMARK  status: ('A' for Active; 'I' for Inactive)
REMARK    1  A    between atoms: C_1  and  C_2
REMARK    2  A    between atoms: C_2  and  N_3
REMARK    3  A    between atoms: N_3  and  C_4
REMARK    4  A    between atoms: C_4  and  C_5
REMARK    5  A    between atoms: C_7  and  O_8
REMARK                            x       y       z     vdW  Elec       q    Type
REMARK                         _______ _______ _______ _____ _____    ______ ____
ROOT
ATOM      1  C   UNL     1       4.213   3.239  18.896  0.00  0.00    +0.000 A 
ATOM      2  N   UNL     1       5.061   3.993  19.625  0.00  0.00    +0.000 NA
ATOM      3  C   UNL     1       6.003   4.622  18.916  0.00  0.00    +0.000 A 
ATOM      4  C   UNL     1       6.171   4.551  17.541  0.00  0.00    +0.000 A 
ATOM      5  C   UNL     1       7.187   5.211  16.812  0.00  0.00    +0.000 A 
ATOM      6  C   UNL     1       7.261   5.061  15.431  0.00  0.00    +0.000 A 
ATOM      7  C   UNL     1       6.320   4.265  14.786  0.00  0.00    +0.000 A 
ATOM      8 CL   UNL     1       6.397   4.069  13.078  0.00  0.00    +0.000 Cl
ATOM      9  C   UNL     1       5.319   3.619  15.511  0.00  0.00    +0.000 A 
ATOM     10  C   UNL     1       5.234   3.745  16.891  0.00  0.00    +0.000 A 
ATOM     11  N   UNL     1       4.271   3.093  17.555  0.00  0.00    +0.000 NA
ENDROOT
BRANCH   3  12
ATOM     12  O   UNL     1       6.832   5.379  19.686  0.00  0.00    +0.000 OA
ATOM     13  H   UNL     1       7.099   4.721  20.353  0.00  0.00    +0.000 HD
ENDBRANCH   3  12
BRANCH   1  14
ATOM     14  C   UNL     1       3.121   2.488  19.644  0.00  0.00    +0.000 C 
BRANCH  14  15
ATOM     15  N   UNL     1       2.178   1.804  18.741  0.00  0.00    +0.000 NA
ATOM     16  H   UNL     1       2.559   1.851  17.795  0.00  0.00    +0.000 HD
BRANCH  15  18
ATOM     17  C   UNL     1       0.755   3.300  20.027  0.00  0.00    +0.000 C 
ATOM     18  C   UNL     1       0.858   2.423  18.789  0.00  0.00    +0.000 C 
ENDBRANCH  15  18
ENDBRANCH  14  15
ENDBRANCH   1  14
TORSDOF 4
ENDMDL
MODEL 4
REMARK VINA RESULT:      -6.4      2.893      5.536
REMARK  Name = 
REMARK  5 active torsions:
REMARK  status: ('A' for Active; 'I' for Inactive)
REMARK    1  A    between atoms: C_1  and  C_2
REMARK    2  A    between atoms: C_2  and  N_3
REMARK    3  A    between atoms: N_3  and  C_4
REMARK    4  A    between atoms: C_4  and  C_5
REMARK    5  A    between atoms: C_7  and  O_8
REMARK                            x       y       z     vdW  Elec       q    Type
REMARK                         _______ _______ _______ _____ _____    ______ ____
ROOT
ATOM      1  C   UNL     1       5.899   4.440  16.359  0.00  0.00    +0.000 A 
ATOM      2  N   UNL     1       6.545   4.878  17.458  0.00  0.00    +0.000 NA
ATOM      3  C   UNL     1       5.860   4.756  18.598  0.00  0.00    +0.000 A 
ATOM      4  C   UNL     1       4.579   4.240  18.727  0.00  0.00    +0.000 A 
ATOM      5  C   UNL     1       3.865   4.135  19.943  0.00  0.00    +0.000 A 
ATOM      6  C   UNL     1       2.579   3.604  19.950  0.00  0.00    +0.000 A 
ATOM      7  C   UNL     1       2.018   3.172  18.752  0.00  0.00    +0.000 A 
ATOM      8 CL   UNL     1       0.430   2.512  18.743  0.00  0.00    +0.000 Cl
ATOM      9  C   UNL     1       2.731   3.275  17.557  0.00  0.00    +0.000 A 
ATOM     10  C   UNL     1       4.010   3.814  17.526  0.00  0.00    +0.000 A 
ATOM     11  N   UNL     1       4.654   3.915  16.355  0.00  0.00    +0.000 NA
ENDROOT
BRANCH   3  12
ATOM     12  O   UNL     1       6.550   5.201  19.684  0.00  0.00    +0.000 OA
ATOM     13  H   UNL     1       7.359   5.531  19.253  0.00  0.00    +0.000 HD
ENDBRANCH   3  12
BRANCH   1  14
ATOM     14  C   UNL     1       6.620   4.560  15.024  0.00  0.00    +0.000 C 
BRANCH  14  15
ATOM     15  N   UNL     1       6.345   3.426  14.123  0.00  0.00    +0.000 NA
ATOM     16  H   UNL     1       7.022   2.691  14.328  0.00  0.00    +0.000 HD
BRANCH  15  18
ATOM     17  C   UNL     1       5.319   3.173  11.933  0.00  0.00    +0.000 C 
ATOM     18  C   UNL     1       6.438   3.830  12.725  0.00  0.00    +0.000 C 
ENDBRANCH  15  18
ENDBRANCH  14  15
ENDBRANCH   1  14
TORSDOF 4
ENDMDL
MODEL 5
REMARK VINA RESULT:      -6.4      3.255      5.745
REMARK  Name = 
REMARK  5 active torsions:
REMARK  status: ('A' for Active; 'I' for Inactive)
REMARK    1  A    between atoms: C_1  and  C_2
REMARK    2  A    between atoms: C_2  and  N_3
REMARK    3  A    between atoms: N_3  and  C_4
REMARK    4  A    between atoms: C_4  and  C_5
REMARK    5  A    between atoms: C_7  and  O_8
REMARK                            x       y       z     vdW  Elec       q    Type
REMARK                         _______ _______ _______ _____ _____    ______ ____
ROOT
ATOM      1  C   UNL     1       6.458   4.586  15.044  0.00  0.00    +0.000 A 
ATOM      2  N   UNL     1       7.520   4.291  15.821  0.00  0.00    +0.000 NA
ATOM      3  C   UNL     1       7.313   4.436  17.133  0.00  0.00    +0.000 A 
ATOM      4  C   UNL     1       6.134   4.861  17.729  0.00  0.00    +0.000 A 
ATOM      5  C   UNL     1       5.942   5.024  19.120  0.00  0.00    +0.000 A 
ATOM      6  C   UNL     1       4.713   5.464  19.605  0.00  0.00    +0.000 A 
ATOM      7  C   UNL     1       3.685   5.726  18.705  0.00  0.00    +0.000 A 
ATOM      8 CL   UNL     1       2.160   6.269  19.288  0.00  0.00    +0.000 Cl
ATOM      9  C   UNL     1       3.882   5.559  17.334  0.00  0.00    +0.000 A 
ATOM     10  C   UNL     1       5.103   5.134  16.828  0.00  0.00    +0.000 A 
ATOM     11  N   UNL     1       5.259   5.005  15.504  0.00  0.00    +0.000 NA
ENDROOT
BRANCH   3  12
ATOM     12  O   UNL     1       8.404   4.120  17.882  0.00  0.00    +0.000 OA
ATOM     13  H   UNL     1       8.841   4.989  17.930  0.00  0.00    +0.000 HD
ENDBRANCH   3  12
BRANCH   1  14
ATOM     14  C   UNL     1       6.630   4.451  13.538  0.00  0.00    +0.000 C 
BRANCH  14  15
ATOM     15  N   UNL     1       6.323   3.096  13.048  0.00  0.00    +0.000 NA
ATOM     16  H   UNL     1       7.160   2.524  13.161  0.00  0.00    +0.000 HD
BRANCH  15  18
ATOM     17  C   UNL     1       4.395   3.235  11.571  0.00  0.00    +0.000 C 
ATOM     18  C   UNL     1       5.909   3.122  11.649  0.00  0.00    +0.000 C 
ENDBRANCH  15  18
ENDBRANCH  14  15
ENDBRANCH   1  14
TORSDOF 4
ENDMDL
MODEL 6
REMARK VINA RESULT:      -6.4      3.301      5.794
REMARK  Name = 
REMARK  5 active torsions:
REMARK  status: ('A' for Active; 'I' for Inactive)
REMARK    1  A    between atoms: C_1  and  C_2
REMARK    2  A    between atoms: C_2  and  N_3
REMARK    3  A    between atoms: N_3  and  C_4
REMARK    4  A    between atoms: C_4  and  C_5
REMARK    5  A    between atoms: C_7  and  O_8
REMARK                            x       y       z     vdW  Elec       q    Type
REMARK                         _______ _______ _______ _____ _____    ______ ____
ROOT
ATOM      1  C   UNL     1       6.369   4.600  14.613  0.00  0.00    +0.000 A 
ATOM      2  N   UNL     1       7.185   5.535  15.142  0.00  0.00    +0.000 NA
ATOM      3  C   UNL     1       6.904   5.876  16.403  0.00  0.00    +0.000 A 
ATOM      4  C   UNL     1       5.869   5.365  17.173  0.00  0.00    +0.000 A 
ATOM      5  C   UNL     1       5.579   5.753  18.501  0.00  0.00    +0.000 A 
ATOM      6  C   UNL     1       4.508   5.174  19.176  0.00  0.00    +0.000 A 
ATOM      7  C   UNL     1       3.743   4.209  18.529  0.00  0.00    +0.000 A 
ATOM      8 CL   UNL     1       2.416   3.483  19.350  0.00  0.00    +0.000 Cl
ATOM      9  C   UNL     1       4.038   3.829  17.220  0.00  0.00    +0.000 A 
ATOM     10  C   UNL     1       5.094   4.403  16.524  0.00  0.00    +0.000 A 
ATOM     11  N   UNL     1       5.332   4.026  15.261  0.00  0.00    +0.000 NA
ENDROOT
BRANCH   3  12
ATOM     12  O   UNL     1       7.754   6.813  16.902  0.00  0.00    +0.000 OA
ATOM     13  H   UNL     1       7.822   7.413  16.138  0.00  0.00    +0.000 HD
ENDBRANCH   3  12
BRANCH   1  14
ATOM     14  C   UNL     1       6.629   4.173  13.175  0.00  0.00    +0.000 C 
BRANCH  14  15
ATOM     15  N   UNL     1       6.129   2.818  12.884  0.00  0.00    +0.000 NA
ATOM     16  H   UNL     1       6.902   2.164  13.014  0.00  0.00    +0.000 HD
BRANCH  15  18
ATOM     17  C   UNL     1       4.204   3.305  11.479  0.00  0.00    +0.000 C 
ATOM     18  C   UNL     1       5.610   2.729  11.524  0.00  0.00    +0.000 C 
ENDBRANCH  15  18
ENDBRANCH  14  15
ENDBRANCH   1  14
TORSDOF 4
ENDMDL
MODEL 7
REMARK VINA RESULT:      -6.3      3.045      5.652
REMARK  Name = 
REMARK  5 active torsions:
REMARK  status: ('A' for Active; 'I' for Inactive)
REMARK    1  A    between atoms: C_1  and  C_2
REMARK    2  A    between atoms: C_2  and  N_3
REMARK    3  A    between atoms: N_3  and  C_4
REMARK    4  A    between atoms: C_4  and  C_5
REMARK    5  A    between atoms: C_7  and  O_8
REMARK                            x       y       z     vdW  Elec       q    Type
REMARK                         _______ _______ _______ _____ _____    ______ ____
ROOT
ATOM      1  C   UNL     1       5.950   4.936  18.023  0.00  0.00    +0.000 A 
ATOM      2  N   UNL     1       5.371   6.089  17.633  0.00  0.00    +0.000 NA
ATOM      3  C   UNL     1       4.157   6.309  18.144  0.00  0.00    +0.000 A 
ATOM      4  C   UNL     1       3.471   5.466  19.006  0.00  0.00    +0.000 A 
ATOM      5  C   UNL     1       2.178   5.710  19.522  0.00  0.00    +0.000 A 
ATOM      6  C   UNL     1       1.585   4.786  20.377  0.00  0.00    +0.000 A 
ATOM      7  C   UNL     1       2.286   3.635  20.720  0.00  0.00    +0.000 A 
ATOM      8 CL   UNL     1       1.568   2.483  21.778  0.00  0.00    +0.000 Cl
ATOM      9  C   UNL     1       3.563   3.402  20.210  0.00  0.00    +0.000 A 
ATOM     10  C   UNL     1       4.168   4.305  19.345  0.00  0.00    +0.000 A 
ATOM     11  N   UNL     1       5.387   4.036  18.860  0.00  0.00    +0.000 NA
ENDROOT
BRANCH   3  12
ATOM     12  O   UNL     1       3.612   7.487  17.733  0.00  0.00    +0.000 OA
ATOM     13  H   UNL     1       4.109   7.631  16.908  0.00  0.00    +0.000 HD
ENDBRANCH   3  12
BRANCH   1  14
ATOM     14  C   UNL     1       7.331   4.619  17.469  0.00  0.00    +0.000 C 
BRANCH  14  15
ATOM     15  N   UNL     1       7.381   4.667  15.998  0.00  0.00    +0.000 NA
ATOM     16  H   UNL     1       7.186   5.626  15.708  0.00  0.00    +0.000 HD
BRANCH  15  18
ATOM     17  C   UNL     1       6.044   4.231  14.012  0.00  0.00    +0.000 C 
ATOM     18  C   UNL     1       6.413   3.749  15.407  0.00  0.00    +0.000 C 
ENDBRANCH  15  18
ENDBRANCH  14  15
ENDBRANCH   1  14
TORSDOF 4
ENDMDL
MODEL 8
REMARK VINA RESULT:      -6.3      3.323      5.459
REMARK  Name = 
REMARK  5 active torsions:
REMARK  status: ('A' for Active; 'I' for Inactive)
REMARK    1  A    between atoms: C_1  and  C_2
REMARK    2  A    between atoms: C_2  and  N_3
REMARK    3  A    between atoms: N_3  and  C_4
REMARK    4  A    between atoms: C_4  and  C_5
REMARK    5  A    between atoms: C_7  and  O_8
REMARK                            x       y       z     vdW  Elec       q    Type
REMARK                         _______ _______ _______ _____ _____    ______ ____
ROOT
ATOM      1  C   UNL     1       6.721   4.879  18.312  0.00  0.00    +0.000 A 
ATOM      2  N   UNL     1       6.595   4.562  17.008  0.00  0.00    +0.000 NA
ATOM      3  C   UNL     1       5.372   4.173  16.640  0.00  0.00    +0.000 A 
ATOM      4  C   UNL     1       4.266   4.067  17.473  0.00  0.00    +0.000 A 
ATOM      5  C   UNL     1       2.983   3.636  17.066  0.00  0.00    +0.000 A 
ATOM      6  C   UNL     1       1.948   3.563  17.993  0.00  0.00    +0.000 A 
ATOM      7  C   UNL     1       2.195   3.929  19.312  0.00  0.00    +0.000 A 
ATOM      8 CL   UNL     1       0.926   3.847  20.471  0.00  0.00    +0.000 Cl
ATOM      9  C   UNL     1       3.463   4.357  19.705  0.00  0.00    +0.000 A 
ATOM     10  C   UNL     1       4.513   4.425  18.799  0.00  0.00    +0.000 A 
ATOM     11  N   UNL     1       5.721   4.821  19.219  0.00  0.00    +0.000 NA
ENDROOT
BRANCH   3  12
ATOM     12  O   UNL     1       5.284   3.871  15.316  0.00  0.00    +0.000 OA
ATOM     13  H   UNL     1       5.252   2.899  15.361  0.00  0.00    +0.000 HD
ENDBRANCH   3  12
BRANCH   1  14
ATOM     14  C   UNL     1       8.093   5.322  18.799  0.00  0.00    +0.000 C 
BRANCH  14  15
ATOM     15  N   UNL     1       8.176   6.775  19.029  0.00  0.00    +0.000 NA
ATOM     16  H   UNL     1       7.556   7.006  19.806  0.00  0.00    +0.000 HD
BRANCH  15  18
ATOM     17  C   UNL     1       8.210   8.975  17.991  0.00  0.00    +0.000 C 
ATOM     18  C   UNL     1       7.795   7.520  17.834  0.00  0.00    +0.000 C 
ENDBRANCH  15  18
ENDBRANCH  14  15
ENDBRANCH   1  14
TORSDOF 4
ENDMDL
MODEL 9
REMARK VINA RESULT:      -6.2      3.117      5.636
REMARK  Name = 
REMARK  5 active torsions:
REMARK  status: ('A' for Active; 'I' for Inactive)
REMARK    1  A    between atoms: C_1  and  C_2
REMARK    2  A    between atoms: C_2  and  N_3
REMARK    3  A    between atoms: N_3  and  C_4
REMARK    4  A    between atoms: C_4  and  C_5
REMARK    5  A    between atoms: C_7  and  O_8
REMARK                            x       y       z     vdW  Elec       q    Type
REMARK                         _______ _______ _______ _____ _____    ______ ____
ROOT
ATOM      1  C   UNL     1       6.214   5.034  16.668  0.00  0.00    +0.000 A 
ATOM      2  N   UNL     1       6.164   4.075  17.614  0.00  0.00    +0.000 NA
ATOM      3  C   UNL     1       5.217   4.248  18.540  0.00  0.00    +0.000 A 
ATOM      4  C   UNL     1       4.322   5.307  18.601  0.00  0.00    +0.000 A 
ATOM      5  C   UNL     1       3.338   5.480  19.601  0.00  0.00    +0.000 A 
ATOM      6  C   UNL     1       2.497   6.589  19.563  0.00  0.00    +0.000 A 
ATOM      7  C   UNL     1       2.635   7.508  18.528  0.00  0.00    +0.000 A 
ATOM      8 CL   UNL     1       1.602   8.883  18.466  0.00  0.00    +0.000 Cl
ATOM      9  C   UNL     1       3.606   7.328  17.543  0.00  0.00    +0.000 A 
ATOM     10  C   UNL     1       4.464   6.236  17.569  0.00  0.00    +0.000 A 
ATOM     11  N   UNL     1       5.397   6.109  16.617  0.00  0.00    +0.000 NA
ENDROOT
BRANCH   3  12
ATOM     12  O   UNL     1       5.194   3.255  19.470  0.00  0.00    +0.000 OA
ATOM     13  H   UNL     1       5.194   3.783  20.289  0.00  0.00    +0.000 HD
ENDBRANCH   3  12
BRANCH   1  14
ATOM     14  C   UNL     1       7.278   4.901  15.587  0.00  0.00    +0.000 C 
BRANCH  14  15
ATOM     15  N   UNL     1       6.739   5.093  14.230  0.00  0.00    +0.000 NA
ATOM     16  H   UNL     1       6.124   5.908  14.248  0.00  0.00    +0.000 HD
BRANCH  15  18
ATOM     17  C   UNL     1       6.441   3.557  12.367  0.00  0.00    +0.000 C 
ATOM     18  C   UNL     1       6.008   3.913  13.781  0.00  0.00    +0.000 C 
ENDBRANCH  15  18
ENDBRANCH  14  15
ENDBRANCH   1  14
TORSDOF 4
ENDMDL
