MODEL 1
REMARK VINA RESULT:      -7.7      0.000      0.000
REMARK  Name = 
REMARK  10 active torsions:
REMARK  status: ('A' for Active; 'I' for Inactive)
REMARK    1  A    between atoms: C_1  and  C_2
REMARK    2  A    between atoms: C_2  and  C_3
REMARK    3  A    between atoms: C_3  and  C_4
REMARK    4  A    between atoms: C_6  and  C_7
REMARK    5  A    between atoms: C_7  and  N_8
REMARK    6  A    between atoms: C_9  and  C_11
REMARK    7  A    between atoms: N_16  and  C_17
REMARK    8  A    between atoms: C_17  and  C_18
REMARK    9  A    between atoms: C_23  and  O_24
REMARK   10  A    between atoms: O_24  and  C_25
REMARK                            x       y       z     vdW  Elec       q    Type
REMARK                         _______ _______ _______ _____ _____    ______ ____
ROOT
ATOM      1  C   UNL     1       2.045   3.015  17.296  0.00  0.00    +0.000 C 
ATOM      2  C   UNL     1       1.682   1.859  18.746  0.00  0.00    +0.000 C 
ATOM      3  C   UNL     1       1.676   2.692  20.465  0.00  0.00    +0.000 C 
ATOM      4  C   UNL     1       2.089   4.521  20.603  0.00  0.00    +0.000 C 
ATOM      5  O   UNL     1       2.267   5.000  21.727  0.00  0.00    +0.000 OA
ATOM      6  N   UNL     1       2.463   5.385  19.297  0.00  0.00    +0.000 N 
ATOM      7  C   UNL     1       2.289   4.855  17.590  0.00  0.00    +0.000 C 
ENDROOT
BRANCH   1   9
ATOM      8  N   UNL     1       3.445   3.156  19.055  0.00  0.00    +0.000 N 
ATOM      9  C   UNL     1       1.897   3.505  18.512  0.00  0.00    +0.000 C 
ATOM     10  O   UNL     1       0.767   3.951  18.831  0.00  0.00    +0.000 OA
ATOM     11  H   UNL     1       3.670   3.329  20.022  0.00  0.00    +0.000 HD
BRANCH   8  12
ATOM     12  C   UNL     1       4.644   2.826  18.269  0.00  0.00    +0.000 C 
BRANCH  12  15
ATOM     13  C   UNL     1       6.692   5.901  18.064  0.00  0.00    +0.000 A 
ATOM     14  C   UNL     1       6.020   4.901  17.321  0.00  0.00    +0.000 A 
ATOM     15  C   UNL     1       5.560   4.008  18.269  0.00  0.00    +0.000 A 
ATOM     16  O   UNL     1       6.049   4.383  19.484  0.00  0.00    +0.000 OA
ATOM     17  N   UNL     1       6.752   5.571  19.359  0.00  0.00    +0.000 NA
BRANCH  13  18
ATOM     18  C   UNL     1       7.163   7.233  17.576  0.00  0.00    +0.000 C 
BRANCH  18  20
ATOM     19  C   UNL     1       8.404   9.357  18.098  0.00  0.00    +0.000 C 
ATOM     20  C   UNL     1       8.287   7.864  18.394  0.00  0.00    +0.000 C 
ENDBRANCH  18  20
ENDBRANCH  13  18
ENDBRANCH  12  15
ENDBRANCH   8  12
ENDBRANCH   1   9
BRANCH   6  21
ATOM     21  C   UNL     1       3.084   6.687  19.488  0.00  0.00    +0.000 C 
BRANCH  21  22
ATOM     22  C   UNL     1       2.181   7.880  19.316  0.00  0.00    +0.000 A 
ATOM     23  C   UNL     1       2.024   8.376  18.001  0.00  0.00    +0.000 A 
ATOM     24  C   UNL     1       1.106   9.373  17.688  0.00  0.00    +0.000 A 
ATOM     25  C   UNL     1       0.306   9.898  18.687  0.00  0.00    +0.000 A 
ATOM     26  C   UNL     1       0.472   9.457  19.997  0.00  0.00    +0.000 A 
ATOM     27  C   UNL     1       1.406   8.459  20.333  0.00  0.00    +0.000 A 
BRANCH  27  28
ATOM     28  O   UNL     1       1.467   8.284  21.688  0.00  0.00    +0.000 OA
ATOM     29  C   UNL     1       0.941   9.250  22.579  0.00  0.00    +0.000 C 
ENDBRANCH  27  28
ENDBRANCH  21  22
ENDBRANCH   6  21
TORSDOF 8
ENDMDL
MODEL 2
REMARK VINA RESULT:      -7.4      1.965      5.380
REMARK  Name = 
REMARK  10 active torsions:
REMARK  status: ('A' for Active; 'I' for Inactive)
REMARK    1  A    between atoms: C_1  and  C_2
REMARK    2  A    between atoms: C_2  and  C_3
REMARK    3  A    between atoms: C_3  and  C_4
REMARK    4  A    between atoms: C_6  and  C_7
REMARK    5  A    between atoms: C_7  and  N_8
REMARK    6  A    between atoms: C_9  and  C_11
REMARK    7  A    between atoms: N_16  and  C_17
REMARK    8  A    between atoms: C_17  and  C_18
REMARK    9  A    between atoms: C_23  and  O_24
REMARK   10  A    between atoms: O_24  and  C_25
REMARK                            x       y       z     vdW  Elec       q    Type
REMARK                         _______ _______ _______ _____ _____    ______ ____
ROOT
ATOM      1  C   UNL     1       2.499   3.383  21.289  0.00  0.00    +0.000 C 
ATOM      2  C   UNL     1       0.781   3.511  20.512  0.00  0.00    +0.000 C 
ATOM      3  C   UNL     1       0.716   3.188  18.630  0.00  0.00    +0.000 C 
ATOM      4  C   UNL     1       2.315   2.853  17.699  0.00  0.00    +0.000 C 
ATOM      5  O   UNL     1       2.283   2.835  16.464  0.00  0.00    +0.000 OA
ATOM      6  N   UNL     1       3.733   2.851  18.462  0.00  0.00    +0.000 N 
ATOM      7  C   UNL     1       3.979   2.889  20.241  0.00  0.00    +0.000 C 
ENDROOT
BRANCH   1   9
ATOM      8  N   UNL     1       2.432   4.619  19.406  0.00  0.00    +0.000 N 
ATOM      9  C   UNL     1       2.321   3.062  20.022  0.00  0.00    +0.000 C 
ATOM     10  O   UNL     1       2.091   1.857  19.748  0.00  0.00    +0.000 OA
ATOM     11  H   UNL     1       2.252   4.766  18.425  0.00  0.00    +0.000 HD
BRANCH   8  12
ATOM     12  C   UNL     1       2.982   5.825  20.045  0.00  0.00    +0.000 C 
BRANCH  12  15
ATOM     13  C   UNL     1       1.721   8.978  18.576  0.00  0.00    +0.000 A 
ATOM     14  C   UNL     1       1.633   8.092  19.677  0.00  0.00    +0.000 A 
ATOM     15  C   UNL     1       2.447   7.029  19.339  0.00  0.00    +0.000 A 
ATOM     16  O   UNL     1       2.879   7.210  18.059  0.00  0.00    +0.000 OA
ATOM     17  N   UNL     1       2.431   8.432  17.583  0.00  0.00    +0.000 NA
BRANCH  13  18
ATOM     18  C   UNL     1       1.247  10.394  18.510  0.00  0.00    +0.000 C 
BRANCH  18  20
ATOM     19  C   UNL     1      -0.484  11.531  19.936  0.00  0.00    +0.000 C 
ATOM     20  C   UNL     1       0.962  11.047  19.861  0.00  0.00    +0.000 C 
ENDBRANCH  18  20
ENDBRANCH  13  18
ENDBRANCH  12  15
ENDBRANCH   8  12
ENDBRANCH   1   9
BRANCH   6  21
ATOM     21  C   UNL     1       4.945   2.913  17.660  0.00  0.00    +0.000 C 
BRANCH  21  22
ATOM     22  C   UNL     1       5.413   4.292  17.278  0.00  0.00    +0.000 A 
ATOM     23  C   UNL     1       5.049   4.756  15.993  0.00  0.00    +0.000 A 
ATOM     24  C   UNL     1       5.290   6.062  15.579  0.00  0.00    +0.000 A 
ATOM     25  C   UNL     1       5.896   6.950  16.449  0.00  0.00    +0.000 A 
ATOM     26  C   UNL     1       6.303   6.506  17.704  0.00  0.00    +0.000 A 
ATOM     27  C   UNL     1       6.081   5.184  18.133  0.00  0.00    +0.000 A 
BRANCH  27  28
ATOM     28  O   UNL     1       6.674   4.957  19.345  0.00  0.00    +0.000 OA
ATOM     29  C   UNL     1       7.856   5.637  19.724  0.00  0.00    +0.000 C 
ENDBRANCH  27  28
ENDBRANCH  21  22
ENDBRANCH   6  21
TORSDOF 8
ENDMDL
MODEL 3
REMARK VINA RESULT:      -7.3      1.965      5.557
REMARK  Name = 
REMARK  10 active torsions:
REMARK  status: ('A' for Active; 'I' for Inactive)
REMARK    1  A    between atoms: C_1  and  C_2
REMARK    2  A    between atoms: C_2  and  C_3
REMARK    3  A    between atoms: C_3  and  C_4
REMARK    4  A    between atoms: C_6  and  C_7
REMARK    5  A    between atoms: C_7  and  N_8
REMARK    6  A    between atoms: C_9  and  C_11
REMARK    7  A    between atoms: N_16  and  C_17
REMARK    8  A    between atoms: C_17  and  C_18
REMARK    9  A    between atoms: C_23  and  O_24
REMARK   10  A    between atoms: O_24  and  C_25
REMARK                            x       y       z     vdW  Elec       q    Type
REMARK                         _______ _______ _______ _____ _____    ______ ____
ROOT
ATOM      1  C   UNL     1       2.625   3.018  21.260  0.00  0.00    +0.000 C 
ATOM      2  C   UNL     1       0.881   3.226  20.563  0.00  0.00    +0.000 C 
ATOM      3  C   UNL     1       0.746   3.081  18.662  0.00  0.00    +0.000 C 
ATOM      4  C   UNL     1       2.307   2.825  17.646  0.00  0.00    +0.000 C 
ATOM      5  O   UNL     1       2.231   2.922  16.417  0.00  0.00    +0.000 OA
ATOM      6  N   UNL     1       3.751   2.744  18.353  0.00  0.00    +0.000 N 
ATOM      7  C   UNL     1       4.061   2.615  20.118  0.00  0.00    +0.000 C 
ENDROOT
BRANCH   1   9
ATOM      8  N   UNL     1       2.541   4.418  19.498  0.00  0.00    +0.000 N 
ATOM      9  C   UNL     1       2.399   2.817  19.976  0.00  0.00    +0.000 C 
ATOM     10  O   UNL     1       2.121   1.649  19.605  0.00  0.00    +0.000 OA
ATOM     11  H   UNL     1       2.337   4.658  18.540  0.00  0.00    +0.000 HD
BRANCH   8  12
ATOM     12  C   UNL     1       3.149   5.545  20.223  0.00  0.00    +0.000 C 
BRANCH  12  15
ATOM     13  C   UNL     1       1.091   8.616  20.060  0.00  0.00    +0.000 A 
ATOM     14  C   UNL     1       1.308   7.398  20.747  0.00  0.00    +0.000 A 
ATOM     15  C   UNL     1       2.297   6.758  20.026  0.00  0.00    +0.000 A 
ATOM     16  O   UNL     1       2.550   7.489  18.905  0.00  0.00    +0.000 OA
ATOM     17  N   UNL     1       1.801   8.655  18.927  0.00  0.00    +0.000 NA
BRANCH  13  18
ATOM     18  C   UNL     1       0.315   9.802  20.536  0.00  0.00    +0.000 C 
BRANCH  18  20
ATOM     19  C   UNL     1      -0.370   9.928  22.952  0.00  0.00    +0.000 C 
ATOM     20  C   UNL     1       0.693  10.310  21.925  0.00  0.00    +0.000 C 
ENDBRANCH  18  20
ENDBRANCH  13  18
ENDBRANCH  12  15
ENDBRANCH   8  12
ENDBRANCH   1   9
BRANCH   6  21
ATOM     21  C   UNL     1       4.934   2.873  17.517  0.00  0.00    +0.000 C 
BRANCH  21  22
ATOM     22  C   UNL     1       5.351   4.281  17.177  0.00  0.00    +0.000 A 
ATOM     23  C   UNL     1       4.994   4.760  15.896  0.00  0.00    +0.000 A 
ATOM     24  C   UNL     1       5.188   6.085  15.517  0.00  0.00    +0.000 A 
ATOM     25  C   UNL     1       5.737   6.976  16.421  0.00  0.00    +0.000 A 
ATOM     26  C   UNL     1       6.137   6.519  17.674  0.00  0.00    +0.000 A 
ATOM     27  C   UNL     1       5.962   5.178  18.067  0.00  0.00    +0.000 A 
BRANCH  27  28
ATOM     28  O   UNL     1       6.538   4.948  19.286  0.00  0.00    +0.000 OA
ATOM     29  C   UNL     1       7.712   5.630  19.686  0.00  0.00    +0.000 C 
ENDBRANCH  27  28
ENDBRANCH  21  22
ENDBRANCH   6  21
TORSDOF 8
ENDMDL
MODEL 4
REMARK VINA RESULT:      -7.2      3.312      5.812
REMARK  Name = 
REMARK  10 active torsions:
REMARK  status: ('A' for Active; 'I' for Inactive)
REMARK    1  A    between atoms: C_1  and  C_2
REMARK    2  A    between atoms: C_2  and  C_3
REMARK    3  A    between atoms: C_3  and  C_4
REMARK    4  A    between atoms: C_6  and  C_7
REMARK    5  A    between atoms: C_7  and  N_8
REMARK    6  A    between atoms: C_9  and  C_11
REMARK    7  A    between atoms: N_16  and  C_17
REMARK    8  A    between atoms: C_17  and  C_18
REMARK    9  A    between atoms: C_23  and  O_24
REMARK   10  A    between atoms: O_24  and  C_25
REMARK                            x       y       z     vdW  Elec       q    Type
REMARK                         _______ _______ _______ _____ _____    ______ ____
ROOT
ATOM      1  C   UNL     1       7.518   4.735  18.553  0.00  0.00    +0.000 C 
ATOM      2  C   UNL     1       7.936   6.522  18.102  0.00  0.00    +0.000 C 
ATOM      3  C   UNL     1       6.447   7.592  17.565  0.00  0.00    +0.000 C 
ATOM      4  C   UNL     1       4.742   6.807  17.453  0.00  0.00    +0.000 C 
ATOM      5  O   UNL     1       3.831   7.454  16.927  0.00  0.00    +0.000 OA
ATOM      6  N   UNL     1       4.526   5.247  17.788  0.00  0.00    +0.000 N 
ATOM      7  C   UNL     1       5.733   4.146  18.534  0.00  0.00    +0.000 C 
ENDROOT
BRANCH   1   9
ATOM      8  N   UNL     1       6.674   5.513  16.615  0.00  0.00    +0.000 N 
ATOM      9  C   UNL     1       6.551   5.593  18.286  0.00  0.00    +0.000 C 
ATOM     10  O   UNL     1       5.984   6.159  19.254  0.00  0.00    +0.000 OA
ATOM     11  H   UNL     1       6.110   6.135  16.057  0.00  0.00    +0.000 HD
BRANCH   8  12
ATOM     12  C   UNL     1       7.337   4.493  15.788  0.00  0.00    +0.000 C 
BRANCH  12  15
ATOM     13  C   UNL     1       5.510   3.676  12.676  0.00  0.00    +0.000 A 
ATOM     14  C   UNL     1       6.786   3.848  13.262  0.00  0.00    +0.000 A 
ATOM     15  C   UNL     1       6.528   4.276  14.550  0.00  0.00    +0.000 A 
ATOM     16  O   UNL     1       5.186   4.478  14.672  0.00  0.00    +0.000 OA
ATOM     17  N   UNL     1       4.546   4.098  13.503  0.00  0.00    +0.000 NA
BRANCH  13  18
ATOM     18  C   UNL     1       5.187   2.992  11.386  0.00  0.00    +0.000 C 
BRANCH  18  20
ATOM     19  C   UNL     1       3.320   3.962  10.010  0.00  0.00    +0.000 C 
ATOM     20  C   UNL     1       3.700   2.911  11.049  0.00  0.00    +0.000 C 
ENDBRANCH  18  20
ENDBRANCH  13  18
ENDBRANCH  12  15
ENDBRANCH   8  12
ENDBRANCH   1   9
BRANCH   6  21
ATOM     21  C   UNL     1       3.278   4.623  17.378  0.00  0.00    +0.000 C 
BRANCH  21  22
ATOM     22  C   UNL     1       2.336   4.240  18.489  0.00  0.00    +0.000 A 
ATOM     23  C   UNL     1       1.603   3.042  18.319  0.00  0.00    +0.000 A 
ATOM     24  C   UNL     1       0.816   2.503  19.332  0.00  0.00    +0.000 A 
ATOM     25  C   UNL     1       0.749   3.146  20.556  0.00  0.00    +0.000 A 
ATOM     26  C   UNL     1       1.427   4.349  20.733  0.00  0.00    +0.000 A 
ATOM     27  C   UNL     1       2.215   4.916  19.714  0.00  0.00    +0.000 A 
BRANCH  27  28
ATOM     28  O   UNL     1       2.679   6.148  20.083  0.00  0.00    +0.000 OA
ATOM     29  C   UNL     1       1.824   7.276  20.117  0.00  0.00    +0.000 C 
ENDBRANCH  27  28
ENDBRANCH  21  22
ENDBRANCH   6  21
TORSDOF 8
ENDMDL
MODEL 5
REMARK VINA RESULT:      -7.2      2.033      5.905
REMARK  Name = 
REMARK  10 active torsions:
REMARK  status: ('A' for Active; 'I' for Inactive)
REMARK    1  A    between atoms: C_1  and  C_2
REMARK    2  A    between atoms: C_2  and  C_3
REMARK    3  A    between atoms: C_3  and  C_4
REMARK    4  A    between atoms: C_6  and  C_7
REMARK    5  A    between atoms: C_7  and  N_8
REMARK    6  A    between atoms: C_9  and  C_11
REMARK    7  A    between atoms: N_16  and  C_17
REMARK    8  A    between atoms: C_17  and  C_18
REMARK    9  A    between atoms: C_23  and  O_24
REMARK   10  A    between atoms: O_24  and  C_25
REMARK                            x       y       z     vdW  Elec       q    Type
REMARK                         _______ _______ _______ _____ _____    ______ ____
ROOT
ATOM      1  C   UNL     1       3.129   3.197  21.153  0.00  0.00    +0.000 C 
ATOM      2  C   UNL     1       1.382   2.534  20.872  0.00  0.00    +0.000 C 
ATOM      3  C   UNL     1       0.649   2.887  19.142  0.00  0.00    +0.000 C 
ATOM      4  C   UNL     1       1.647   3.896  17.909  0.00  0.00    +0.000 C 
ATOM      5  O   UNL     1       1.091   4.276  16.874  0.00  0.00    +0.000 OA
ATOM      6  N   UNL     1       3.098   4.478  18.297  0.00  0.00    +0.000 N 
ATOM      7  C   UNL     1       4.051   4.058  19.760  0.00  0.00    +0.000 C 
ENDROOT
BRANCH   1   9
ATOM      8  N   UNL     1       1.731   4.703  20.228  0.00  0.00    +0.000 N 
ATOM      9  C   UNL     1       2.575   3.278  19.958  0.00  0.00    +0.000 C 
ATOM     10  O   UNL     1       2.788   2.342  19.147  0.00  0.00    +0.000 OA
ATOM     11  H   UNL     1       1.100   5.035  19.516  0.00  0.00    +0.000 HD
BRANCH   8  12
ATOM     12  C   UNL     1       1.929   5.703  21.288  0.00  0.00    +0.000 C 
BRANCH  12  15
ATOM     13  C   UNL     1       1.036   9.150  20.284  0.00  0.00    +0.000 A 
ATOM     14  C   UNL     1       0.796   8.113  21.216  0.00  0.00    +0.000 A 
ATOM     15  C   UNL     1       1.546   7.048  20.758  0.00  0.00    +0.000 A 
ATOM     16  O   UNL     1       2.085   7.389  19.554  0.00  0.00    +0.000 OA
ATOM     17  N   UNL     1       1.772   8.707  19.258  0.00  0.00    +0.000 NA
BRANCH  13  18
ATOM     18  C   UNL     1       0.682  10.597  20.422  0.00  0.00    +0.000 C 
BRANCH  18  20
ATOM     19  C   UNL     1      -1.263  10.326  18.853  0.00  0.00    +0.000 C 
ATOM     20  C   UNL     1      -0.070  11.197  19.237  0.00  0.00    +0.000 C 
ENDBRANCH  18  20
ENDBRANCH  13  18
ENDBRANCH  12  15
ENDBRANCH   8  12
ENDBRANCH   1   9
BRANCH   6  21
ATOM     21  C   UNL     1       3.675   5.507  17.446  0.00  0.00    +0.000 C 
BRANCH  21  22
ATOM     22  C   UNL     1       4.945   5.132  16.727  0.00  0.00    +0.000 A 
ATOM     23  C   UNL     1       4.813   4.290  15.599  0.00  0.00    +0.000 A 
ATOM     24  C   UNL     1       5.887   3.994  14.764  0.00  0.00    +0.000 A 
ATOM     25  C   UNL     1       7.127   4.545  15.031  0.00  0.00    +0.000 A 
ATOM     26  C   UNL     1       7.291   5.342  16.161  0.00  0.00    +0.000 A 
ATOM     27  C   UNL     1       6.220   5.639  17.024  0.00  0.00    +0.000 A 
BRANCH  27  28
ATOM     28  O   UNL     1       6.653   6.335  18.119  0.00  0.00    +0.000 OA
ATOM     29  C   UNL     1       7.496   5.735  19.085  0.00  0.00    +0.000 C 
ENDBRANCH  27  28
ENDBRANCH  21  22
ENDBRANCH   6  21
TORSDOF 8
ENDMDL
MODEL 6
REMARK VINA RESULT:      -7.2      2.157      5.705
REMARK  Name = 
REMARK  10 active torsions:
REMARK  status: ('A' for Active; 'I' for Inactive)
REMARK    1  A    between atoms: C_1  and  C_2
REMARK    2  A    between atoms: C_2  and  C_3
REMARK    3  A    between atoms: C_3  and  C_4
REMARK    4  A    between atoms: C_6  and  C_7
REMARK    5  A    between atoms: C_7  and  N_8
REMARK    6  A    between atoms: C_9  and  C_11
REMARK    7  A    between atoms: N_16  and  C_17
REMARK    8  A    between atoms: C_17  and  C_18
REMARK    9  A    between atoms: C_23  and  O_24
REMARK   10  A    between atoms: O_24  and  C_25
REMARK                            x       y       z     vdW  Elec       q    Type
REMARK                         _______ _______ _______ _____ _____    ______ ____
ROOT
ATOM      1  C   UNL     1       2.529   2.962  21.361  0.00  0.00    +0.000 C 
ATOM      2  C   UNL     1       0.789   3.080  20.632  0.00  0.00    +0.000 C 
ATOM      3  C   UNL     1       0.694   2.911  18.731  0.00  0.00    +0.000 C 
ATOM      4  C   UNL     1       2.283   2.720  17.744  0.00  0.00    +0.000 C 
ATOM      5  O   UNL     1       2.224   2.803  16.513  0.00  0.00    +0.000 OA
ATOM      6  N   UNL     1       3.717   2.715  18.476  0.00  0.00    +0.000 N 
ATOM      7  C   UNL     1       4.002   2.618  20.247  0.00  0.00    +0.000 C 
ENDROOT
BRANCH   1   9
ATOM      8  N   UNL     1       2.226   4.346  19.610  0.00  0.00    +0.000 N 
ATOM      9  C   UNL     1       2.334   2.739  20.076  0.00  0.00    +0.000 C 
ATOM     10  O   UNL     1       2.241   1.545  19.695  0.00  0.00    +0.000 OA
ATOM     11  H   UNL     1       1.985   4.559  18.655  0.00  0.00    +0.000 HD
BRANCH   8  12
ATOM     12  C   UNL     1       2.651   5.549  20.344  0.00  0.00    +0.000 C 
BRANCH  12  15
ATOM     13  C   UNL     1       1.938   8.718  18.574  0.00  0.00    +0.000 A 
ATOM     14  C   UNL     1       1.847   8.031  19.807  0.00  0.00    +0.000 A 
ATOM     15  C   UNL     1       2.301   6.755  19.534  0.00  0.00    +0.000 A 
ATOM     16  O   UNL     1       2.515   6.656  18.192  0.00  0.00    +0.000 OA
ATOM     17  N   UNL     1       2.295   7.884  17.590  0.00  0.00    +0.000 NA
BRANCH  13  18
ATOM     18  C   UNL     1       1.817  10.191  18.343  0.00  0.00    +0.000 C 
BRANCH  18  20
ATOM     19  C   UNL     1      -0.680  10.139  18.063  0.00  0.00    +0.000 C 
ATOM     20  C   UNL     1       0.491  10.809  18.777  0.00  0.00    +0.000 C 
ENDBRANCH  18  20
ENDBRANCH  13  18
ENDBRANCH  12  15
ENDBRANCH   8  12
ENDBRANCH   1   9
BRANCH   6  21
ATOM     21  C   UNL     1       4.907   2.894  17.659  0.00  0.00    +0.000 C 
BRANCH  21  22
ATOM     22  C   UNL     1       5.277   4.317  17.335  0.00  0.00    +0.000 A 
ATOM     23  C   UNL     1       5.590   5.159  18.427  0.00  0.00    +0.000 A 
ATOM     24  C   UNL     1       6.089   6.446  18.254  0.00  0.00    +0.000 A 
ATOM     25  C   UNL     1       6.301   6.926  16.974  0.00  0.00    +0.000 A 
ATOM     26  C   UNL     1       5.960   6.132  15.882  0.00  0.00    +0.000 A 
ATOM     27  C   UNL     1       5.440   4.834  16.040  0.00  0.00    +0.000 A 
BRANCH  27  28
ATOM     28  O   UNL     1       5.074   4.304  14.833  0.00  0.00    +0.000 OA
ATOM     29  C   UNL     1       6.040   3.939  13.866  0.00  0.00    +0.000 C 
ENDBRANCH  27  28
ENDBRANCH  21  22
ENDBRANCH   6  21
TORSDOF 8
ENDMDL
MODEL 7
REMARK VINA RESULT:      -7.1      2.065      5.764
REMARK  Name = 
REMARK  10 active torsions:
REMARK  status: ('A' for Active; 'I' for Inactive)
REMARK    1  A    between atoms: C_1  and  C_2
REMARK    2  A    between atoms: C_2  and  C_3
REMARK    3  A    between atoms: C_3  and  C_4
REMARK    4  A    between atoms: C_6  and  C_7
REMARK    5  A    between atoms: C_7  and  N_8
REMARK    6  A    between atoms: C_9  and  C_11
REMARK    7  A    between atoms: N_16  and  C_17
REMARK    8  A    between atoms: C_17  and  C_18
REMARK    9  A    between atoms: C_23  and  O_24
REMARK   10  A    between atoms: O_24  and  C_25
REMARK                            x       y       z     vdW  Elec       q    Type
REMARK                         _______ _______ _______ _____ _____    ______ ____
ROOT
ATOM      1  C   UNL     1       0.677   3.940  19.849  0.00  0.00    +0.000 C 
ATOM      2  C   UNL     1       1.198   3.127  21.473  0.00  0.00    +0.000 C 
ATOM      3  C   UNL     1       3.005   2.509  21.527  0.00  0.00    +0.000 C 
ATOM      4  C   UNL     1       4.081   2.677  19.995  0.00  0.00    +0.000 C 
ATOM      5  O   UNL     1       5.177   2.108  19.980  0.00  0.00    +0.000 OA
ATOM      6  N   UNL     1       3.496   3.318  18.638  0.00  0.00    +0.000 N 
ATOM      7  C   UNL     1       1.923   4.168  18.461  0.00  0.00    +0.000 C 
ENDROOT
BRANCH   1   9
ATOM      8  N   UNL     1       2.510   5.113  20.430  0.00  0.00    +0.000 N 
ATOM      9  C   UNL     1       1.934   3.588  20.038  0.00  0.00    +0.000 C 
ATOM     10  O   UNL     1       2.246   2.390  19.822  0.00  0.00    +0.000 OA
ATOM     11  H   UNL     1       3.501   5.238  20.563  0.00  0.00    +0.000 HD
BRANCH   8  12
ATOM     12  C   UNL     1       1.753   6.306  20.841  0.00  0.00    +0.000 C 
BRANCH  12  15
ATOM     13  C   UNL     1       2.055   9.103  18.437  0.00  0.00    +0.000 A 
ATOM     14  C   UNL     1       1.328   8.591  19.538  0.00  0.00    +0.000 A 
ATOM     15  C   UNL     1       1.874   7.344  19.771  0.00  0.00    +0.000 A 
ATOM     16  O   UNL     1       2.772   7.078  18.782  0.00  0.00    +0.000 OA
ATOM     17  N   UNL     1       2.891   8.180  17.950  0.00  0.00    +0.000 NA
BRANCH  13  18
ATOM     18  C   UNL     1       2.057  10.508  17.924  0.00  0.00    +0.000 C 
BRANCH  18  20
ATOM     19  C   UNL     1       2.060  12.925  18.615  0.00  0.00    +0.000 C 
ATOM     20  C   UNL     1       1.459  11.545  18.871  0.00  0.00    +0.000 C 
ENDBRANCH  18  20
ENDBRANCH  13  18
ENDBRANCH  12  15
ENDBRANCH   8  12
ENDBRANCH   1   9
BRANCH   6  21
ATOM     21  C   UNL     1       4.248   3.129  17.408  0.00  0.00    +0.000 C 
BRANCH  21  22
ATOM     22  C   UNL     1       5.246   4.206  17.074  0.00  0.00    +0.000 A 
ATOM     23  C   UNL     1       5.424   5.231  18.032  0.00  0.00    +0.000 A 
ATOM     24  C   UNL     1       6.418   6.197  17.911  0.00  0.00    +0.000 A 
ATOM     25  C   UNL     1       7.275   6.158  16.826  0.00  0.00    +0.000 A 
ATOM     26  C   UNL     1       7.092   5.185  15.846  0.00  0.00    +0.000 A 
ATOM     27  C   UNL     1       6.082   4.210  15.946  0.00  0.00    +0.000 A 
BRANCH  27  28
ATOM     28  O   UNL     1       6.027   3.446  14.812  0.00  0.00    +0.000 OA
ATOM     29  C   UNL     1       6.309   3.998  13.539  0.00  0.00    +0.000 C 
ENDBRANCH  27  28
ENDBRANCH  21  22
ENDBRANCH   6  21
TORSDOF 8
ENDMDL
MODEL 8
REMARK VINA RESULT:      -7.1      2.019      5.753
REMARK  Name = 
REMARK  10 active torsions:
REMARK  status: ('A' for Active; 'I' for Inactive)
REMARK    1  A    between atoms: C_1  and  C_2
REMARK    2  A    between atoms: C_2  and  C_3
REMARK    3  A    between atoms: C_3  and  C_4
REMARK    4  A    between atoms: C_6  and  C_7
REMARK    5  A    between atoms: C_7  and  N_8
REMARK    6  A    between atoms: C_9  and  C_11
REMARK    7  A    between atoms: N_16  and  C_17
REMARK    8  A    between atoms: C_17  and  C_18
REMARK    9  A    between atoms: C_23  and  O_24
REMARK   10  A    between atoms: O_24  and  C_25
REMARK                            x       y       z     vdW  Elec       q    Type
REMARK                         _______ _______ _______ _____ _____    ______ ____
ROOT
ATOM      1  C   UNL     1       0.549   3.584  19.976  0.00  0.00    +0.000 C 
ATOM      2  C   UNL     1       1.407   2.768  21.449  0.00  0.00    +0.000 C 
ATOM      3  C   UNL     1       3.281   2.466  21.230  0.00  0.00    +0.000 C 
ATOM      4  C   UNL     1       4.101   2.914  19.599  0.00  0.00    +0.000 C 
ATOM      5  O   UNL     1       5.262   2.542  19.402  0.00  0.00    +0.000 OA
ATOM      6  N   UNL     1       3.243   3.532  18.384  0.00  0.00    +0.000 N 
ATOM      7  C   UNL     1       1.545   4.110  18.472  0.00  0.00    +0.000 C 
ENDROOT
BRANCH   1   9
ATOM      8  N   UNL     1       2.229   4.997  20.483  0.00  0.00    +0.000 N 
ATOM      9  C   UNL     1       1.861   3.440  19.981  0.00  0.00    +0.000 C 
ATOM     10  O   UNL     1       2.331   2.342  19.591  0.00  0.00    +0.000 OA
ATOM     11  H   UNL     1       3.196   5.279  20.518  0.00  0.00    +0.000 HD
BRANCH   8  12
ATOM     12  C   UNL     1       1.349   5.994  21.114  0.00  0.00    +0.000 C 
BRANCH  12  15
ATOM     13  C   UNL     1       1.750   9.091  19.130  0.00  0.00    +0.000 A 
ATOM     14  C   UNL     1       2.122   7.730  19.248  0.00  0.00    +0.000 A 
ATOM     15  C   UNL     1       1.542   7.308  20.428  0.00  0.00    +0.000 A 
ATOM     16  O   UNL     1       0.980   8.388  21.039  0.00  0.00    +0.000 OA
ATOM     17  N   UNL     1       1.104   9.503  20.226  0.00  0.00    +0.000 NA
BRANCH  13  18
ATOM     18  C   UNL     1       1.888   9.970  17.928  0.00  0.00    +0.000 C 
BRANCH  18  20
ATOM     19  C   UNL     1       2.539  12.381  18.214  0.00  0.00    +0.000 C 
ATOM     20  C   UNL     1       1.377  11.398  18.107  0.00  0.00    +0.000 C 
ENDBRANCH  18  20
ENDBRANCH  13  18
ENDBRANCH  12  15
ENDBRANCH   8  12
ENDBRANCH   1   9
BRANCH   6  21
ATOM     21  C   UNL     1       3.844   3.554  17.059  0.00  0.00    +0.000 C 
BRANCH  21  22
ATOM     22  C   UNL     1       4.901   4.603  16.833  0.00  0.00    +0.000 A 
ATOM     23  C   UNL     1       4.824   5.768  17.630  0.00  0.00    +0.000 A 
ATOM     24  C   UNL     1       5.820   6.740  17.623  0.00  0.00    +0.000 A 
ATOM     25  C   UNL     1       6.934   6.566  16.821  0.00  0.00    +0.000 A 
ATOM     26  C   UNL     1       7.012   5.448  15.995  0.00  0.00    +0.000 A 
ATOM     27  C   UNL     1       6.007   4.463  15.978  0.00  0.00    +0.000 A 
BRANCH  27  28
ATOM     28  O   UNL     1       6.250   3.533  15.006  0.00  0.00    +0.000 OA
ATOM     29  C   UNL     1       6.262   3.888  13.635  0.00  0.00    +0.000 C 
ENDBRANCH  27  28
ENDBRANCH  21  22
ENDBRANCH   6  21
TORSDOF 8
ENDMDL
MODEL 9
REMARK VINA RESULT:      -7.1      1.950      5.626
REMARK  Name = 
REMARK  10 active torsions:
REMARK  status: ('A' for Active; 'I' for Inactive)
REMARK    1  A    between atoms: C_1  and  C_2
REMARK    2  A    between atoms: C_2  and  C_3
REMARK    3  A    between atoms: C_3  and  C_4
REMARK    4  A    between atoms: C_6  and  C_7
REMARK    5  A    between atoms: C_7  and  N_8
REMARK    6  A    between atoms: C_9  and  C_11
REMARK    7  A    between atoms: N_16  and  C_17
REMARK    8  A    between atoms: C_17  and  C_18
REMARK    9  A    between atoms: C_23  and  O_24
REMARK   10  A    between atoms: O_24  and  C_25
REMARK                            x       y       z     vdW  Elec       q    Type
REMARK                         _______ _______ _______ _____ _____    ______ ____
ROOT
ATOM      1  C   UNL     1       2.594   2.729  21.172  0.00  0.00    +0.000 C 
ATOM      2  C   UNL     1       0.866   3.120  20.515  0.00  0.00    +0.000 C 
ATOM      3  C   UNL     1       0.727   3.226  18.612  0.00  0.00    +0.000 C 
ATOM      4  C   UNL     1       2.274   3.019  17.564  0.00  0.00    +0.000 C 
ATOM      5  O   UNL     1       2.206   3.277  16.358  0.00  0.00    +0.000 OA
ATOM      6  N   UNL     1       3.710   2.770  18.248  0.00  0.00    +0.000 N 
ATOM      7  C   UNL     1       4.009   2.399  19.980  0.00  0.00    +0.000 C 
ENDROOT
BRANCH   1   9
ATOM      8  N   UNL     1       2.383   4.368  19.641  0.00  0.00    +0.000 N 
ATOM      9  C   UNL     1       2.360   2.707  19.874  0.00  0.00    +0.000 C 
ATOM     10  O   UNL     1       2.158   1.591  19.333  0.00  0.00    +0.000 OA
ATOM     11  H   UNL     1       2.146   4.733  18.732  0.00  0.00    +0.000 HD
BRANCH   8  12
ATOM     12  C   UNL     1       2.923   5.415  20.523  0.00  0.00    +0.000 C 
BRANCH  12  15
ATOM     13  C   UNL     1       1.771   8.564  18.959  0.00  0.00    +0.000 A 
ATOM     14  C   UNL     1       2.612   7.435  18.814  0.00  0.00    +0.000 A 
ATOM     15  C   UNL     1       2.489   6.749  20.007  0.00  0.00    +0.000 A 
ATOM     16  O   UNL     1       1.732   7.499  20.855  0.00  0.00    +0.000 OA
ATOM     17  N   UNL     1       1.276   8.632  20.200  0.00  0.00    +0.000 NA
BRANCH  13  18
ATOM     18  C   UNL     1       1.327   9.509  17.889  0.00  0.00    +0.000 C 
BRANCH  18  20
ATOM     19  C   UNL     1       1.285  11.863  18.771  0.00  0.00    +0.000 C 
ATOM     20  C   UNL     1       2.030  10.865  17.889  0.00  0.00    +0.000 C 
ENDBRANCH  18  20
ENDBRANCH  13  18
ENDBRANCH  12  15
ENDBRANCH   8  12
ENDBRANCH   1   9
BRANCH   6  21
ATOM     21  C   UNL     1       4.901   2.941  17.430  0.00  0.00    +0.000 C 
BRANCH  21  22
ATOM     22  C   UNL     1       5.538   4.305  17.470  0.00  0.00    +0.000 A 
ATOM     23  C   UNL     1       6.025   4.744  18.723  0.00  0.00    +0.000 A 
ATOM     24  C   UNL     1       6.765   5.914  18.863  0.00  0.00    +0.000 A 
ATOM     25  C   UNL     1       7.048   6.677  17.745  0.00  0.00    +0.000 A 
ATOM     26  C   UNL     1       6.543   6.289  16.507  0.00  0.00    +0.000 A 
ATOM     27  C   UNL     1       5.780   5.116  16.350  0.00  0.00    +0.000 A 
BRANCH  27  28
ATOM     28  O   UNL     1       5.299   5.013  15.074  0.00  0.00    +0.000 OA
ATOM     29  C   UNL     1       5.927   4.182  14.116  0.00  0.00    +0.000 C 
ENDBRANCH  27  28
ENDBRANCH  21  22
ENDBRANCH   6  21
TORSDOF 8
ENDMDL
