MODEL 1
REMARK VINA RESULT:      -8.0      0.000      0.000
REMARK  Name = 
REMARK  6 active torsions:
REMARK  status: ('A' for Active; 'I' for Inactive)
REMARK    1  A    between atoms: N_1  and  C_2
REMARK    2  A    between atoms: C_2  and  C_3
REMARK    3  A    between atoms: C_3  and  N_4
REMARK    4  A    between atoms: N_4  and  C_15
REMARK    5  A    between atoms: C_5  and  C_7
REMARK    6  A    between atoms: C_18  and  C_19
REMARK                            x       y       z     vdW  Elec       q    Type
REMARK                         _______ _______ _______ _____ _____    ______ ____
ROOT
ATOM      1  N   UNL     1       3.630   4.195  17.791  0.00  0.00    +0.000 N 
ATOM      2  C   UNL     1       4.962   4.193  17.404  0.00  0.00    +0.000 C 
ATOM      3  O   UNL     1       5.362   3.240  16.754  0.00  0.00    +0.000 OA
ENDROOT
BRANCH   2   4
ATOM      4  C   UNL     1       5.978   5.307  17.695  0.00  0.00    +0.000 A 
ATOM      5  C   UNL     1       6.850   5.296  18.818  0.00  0.00    +0.000 A 
ATOM      6  C   UNL     1       7.736   6.338  19.081  0.00  0.00    +0.000 A 
ATOM      7  C   UNL     1       7.800   7.433  18.234  0.00  0.00    +0.000 A 
ATOM      8 CL   UNL     1       8.897   8.754  18.592  0.00  0.00    +0.000 Cl
ATOM      9  C   UNL     1       6.992   7.473  17.102  0.00  0.00    +0.000 A 
ATOM     10  C   UNL     1       6.095   6.432  16.818  0.00  0.00    +0.000 A 
ATOM     11 CL   UNL     1       5.131   6.647  15.357  0.00  0.00    +0.000 Cl
ENDBRANCH   2   4
BRANCH   1  12
ATOM     12  C   UNL     1       3.038   5.272  18.496  0.00  0.00    +0.000 A 
ATOM     13  C   UNL     1       2.667   5.114  19.836  0.00  0.00    +0.000 A 
ATOM     14  C   UNL     1       2.088   6.174  20.531  0.00  0.00    +0.000 A 
ATOM     15  C   UNL     1       1.829   7.402  19.887  0.00  0.00    +0.000 A 
ATOM     16  C   UNL     1       2.198   7.544  18.532  0.00  0.00    +0.000 A 
ATOM     17  C   UNL     1       2.823   6.497  17.852  0.00  0.00    +0.000 A 
BRANCH  15  18
ATOM     18  C   UNL     1       1.176   8.525  20.621  0.00  0.00    +0.000 A 
ATOM     19  C   UNL     1       1.023   8.474  22.023  0.00  0.00    +0.000 A 
ATOM     20  C   UNL     1       0.424   9.529  22.713  0.00  0.00    +0.000 A 
ATOM     21  C   UNL     1      -0.052  10.640  22.017  0.00  0.00    +0.000 A 
ATOM     22  C   UNL     1       0.079  10.702  20.630  0.00  0.00    +0.000 A 
ATOM     23  C   UNL     1       0.696   9.660  19.934  0.00  0.00    +0.000 A 
ENDBRANCH  15  18
ENDBRANCH   1  12
BRANCH   1  24
ATOM     24  C   UNL     1       2.728   3.084  17.449  0.00  0.00    +0.000 C 
BRANCH  24  25
ATOM     25  C   UNL     1       2.773   1.965  18.513  0.00  0.00    +0.000 C 
BRANCH  25  26
ATOM     26  N   UNL     1       3.826   0.996  18.215  0.00  0.00    +0.000 NA
ATOM     27  H   UNL     1       3.647   0.131  18.776  0.00  0.00    +0.000 HD
ATOM     28  H   UNL     1       4.743   1.387  18.528  0.00  0.00    +0.000 HD
ENDBRANCH  25  26
ENDBRANCH  24  25
ENDBRANCH   1  24
TORSDOF 6
ENDMDL
MODEL 2
REMARK VINA RESULT:      -7.8      0.501      1.073
REMARK  Name = 
REMARK  6 active torsions:
REMARK  status: ('A' for Active; 'I' for Inactive)
REMARK    1  A    between atoms: N_1  and  C_2
REMARK    2  A    between atoms: C_2  and  C_3
REMARK    3  A    between atoms: C_3  and  N_4
REMARK    4  A    between atoms: N_4  and  C_15
REMARK    5  A    between atoms: C_5  and  C_7
REMARK    6  A    between atoms: C_18  and  C_19
REMARK                            x       y       z     vdW  Elec       q    Type
REMARK                         _______ _______ _______ _____ _____    ______ ____
ROOT
ATOM      1  N   UNL     1       3.566   4.311  17.662  0.00  0.00    +0.000 N 
ATOM      2  C   UNL     1       4.901   4.297  17.284  0.00  0.00    +0.000 C 
ATOM      3  O   UNL     1       5.287   3.358  16.604  0.00  0.00    +0.000 OA
ENDROOT
BRANCH   2   4
ATOM      4  C   UNL     1       5.936   5.379  17.620  0.00  0.00    +0.000 A 
ATOM      5  C   UNL     1       6.796   5.315  18.751  0.00  0.00    +0.000 A 
ATOM      6  C   UNL     1       7.701   6.330  19.055  0.00  0.00    +0.000 A 
ATOM      7  C   UNL     1       7.795   7.449  18.244  0.00  0.00    +0.000 A 
ATOM      8 CL   UNL     1       8.915   8.735  18.654  0.00  0.00    +0.000 Cl
ATOM      9  C   UNL     1       7.000   7.541  17.106  0.00  0.00    +0.000 A 
ATOM     10  C   UNL     1       6.085   6.529  16.780  0.00  0.00    +0.000 A 
ATOM     11 CL   UNL     1       5.141   6.810  15.318  0.00  0.00    +0.000 Cl
ENDBRANCH   2   4
BRANCH   1  12
ATOM     12  C   UNL     1       2.990   5.375  18.399  0.00  0.00    +0.000 A 
ATOM     13  C   UNL     1       2.585   5.172  19.723  0.00  0.00    +0.000 A 
ATOM     14  C   UNL     1       2.021   6.219  20.451  0.00  0.00    +0.000 A 
ATOM     15  C   UNL     1       1.812   7.480  19.854  0.00  0.00    +0.000 A 
ATOM     16  C   UNL     1       2.216   7.668  18.515  0.00  0.00    +0.000 A 
ATOM     17  C   UNL     1       2.825   6.632  17.803  0.00  0.00    +0.000 A 
BRANCH  15  18
ATOM     18  C   UNL     1       1.177   8.591  20.622  0.00  0.00    +0.000 A 
ATOM     19  C   UNL     1       0.727   9.754  19.963  0.00  0.00    +0.000 A 
ATOM     20  C   UNL     1       0.121  10.789  20.677  0.00  0.00    +0.000 A 
ATOM     21  C   UNL     1      -0.026  10.691  22.060  0.00  0.00    +0.000 A 
ATOM     22  C   UNL     1       0.424   9.554  22.731  0.00  0.00    +0.000 A 
ATOM     23  C   UNL     1       1.013   8.505  22.021  0.00  0.00    +0.000 A 
ENDBRANCH  15  18
ENDBRANCH   1  12
BRANCH   1  24
ATOM     24  C   UNL     1       2.645   3.231  17.275  0.00  0.00    +0.000 C 
BRANCH  24  25
ATOM     25  C   UNL     1       2.802   1.995  18.188  0.00  0.00    +0.000 C 
BRANCH  25  26
ATOM     26  N   UNL     1       1.533   1.641  18.818  0.00  0.00    +0.000 NA
ATOM     27  H   UNL     1       0.755   1.930  18.180  0.00  0.00    +0.000 HD
ATOM     28  H   UNL     1       1.430   2.189  19.703  0.00  0.00    +0.000 HD
ENDBRANCH  25  26
ENDBRANCH  24  25
ENDBRANCH   1  24
TORSDOF 6
ENDMDL
MODEL 3
REMARK VINA RESULT:      -7.8      0.147      1.351
REMARK  Name = 
REMARK  6 active torsions:
REMARK  status: ('A' for Active; 'I' for Inactive)
REMARK    1  A    between atoms: N_1  and  C_2
REMARK    2  A    between atoms: C_2  and  C_3
REMARK    3  A    between atoms: C_3  and  N_4
REMARK    4  A    between atoms: N_4  and  C_15
REMARK    5  A    between atoms: C_5  and  C_7
REMARK    6  A    between atoms: C_18  and  C_19
REMARK                            x       y       z     vdW  Elec       q    Type
REMARK                         _______ _______ _______ _____ _____    ______ ____
ROOT
ATOM      1  N   UNL     1       3.619   4.206  17.626  0.00  0.00    +0.000 N 
ATOM      2  C   UNL     1       4.958   4.209  17.264  0.00  0.00    +0.000 C 
ATOM      3  O   UNL     1       5.368   3.270  16.599  0.00  0.00    +0.000 OA
ENDROOT
BRANCH   2   4
ATOM      4  C   UNL     1       5.972   5.311  17.602  0.00  0.00    +0.000 A 
ATOM      5  C   UNL     1       6.817   5.273  18.746  0.00  0.00    +0.000 A 
ATOM      6  C   UNL     1       7.701   6.306  19.051  0.00  0.00    +0.000 A 
ATOM      7  C   UNL     1       7.790   7.417  18.227  0.00  0.00    +0.000 A 
ATOM      8 CL   UNL     1       8.884   8.725  18.638  0.00  0.00    +0.000 Cl
ATOM      9  C   UNL     1       7.010   7.484  17.078  0.00  0.00    +0.000 A 
ATOM     10  C   UNL     1       6.116   6.453  16.751  0.00  0.00    +0.000 A 
ATOM     11 CL   UNL     1       5.188   6.703  15.272  0.00  0.00    +0.000 Cl
ENDBRANCH   2   4
BRANCH   1  12
ATOM     12  C   UNL     1       3.017   5.267  18.345  0.00  0.00    +0.000 A 
ATOM     13  C   UNL     1       2.783   6.496  17.717  0.00  0.00    +0.000 A 
ATOM     14  C   UNL     1       2.187   7.540  18.423  0.00  0.00    +0.000 A 
ATOM     15  C   UNL     1       1.852   7.390  19.785  0.00  0.00    +0.000 A 
ATOM     16  C   UNL     1       2.103   6.149  20.408  0.00  0.00    +0.000 A 
ATOM     17  C   UNL     1       2.654   5.088  19.687  0.00  0.00    +0.000 A 
BRANCH  15  18
ATOM     18  C   UNL     1       1.247   8.519  20.550  0.00  0.00    +0.000 A 
ATOM     19  C   UNL     1       0.857   9.704  19.892  0.00  0.00    +0.000 A 
ATOM     20  C   UNL     1       0.279  10.757  20.604  0.00  0.00    +0.000 A 
ATOM     21  C   UNL     1       0.103  10.655  21.983  0.00  0.00    +0.000 A 
ATOM     22  C   UNL     1       0.494   9.496  22.653  0.00  0.00    +0.000 A 
ATOM     23  C   UNL     1       1.054   8.430  21.945  0.00  0.00    +0.000 A 
ENDBRANCH  15  18
ENDBRANCH   1  12
BRANCH   1  24
ATOM     24  C   UNL     1       2.721   3.107  17.239  0.00  0.00    +0.000 C 
BRANCH  24  25
ATOM     25  C   UNL     1       2.681   1.998  18.313  0.00  0.00    +0.000 C 
BRANCH  25  26
ATOM     26  N   UNL     1       3.949   1.274  18.371  0.00  0.00    +0.000 NA
ATOM     27  H   UNL     1       4.596   1.684  17.657  0.00  0.00    +0.000 HD
ATOM     28  H   UNL     1       3.781   0.278  18.103  0.00  0.00    +0.000 HD
ENDBRANCH  25  26
ENDBRANCH  24  25
ENDBRANCH   1  24
TORSDOF 6
ENDMDL
MODEL 4
REMARK VINA RESULT:      -7.3      3.069      6.386
REMARK  Name = 
REMARK  6 active torsions:
REMARK  status: ('A' for Active; 'I' for Inactive)
REMARK    1  A    between atoms: N_1  and  C_2
REMARK    2  A    between atoms: C_2  and  C_3
REMARK    3  A    between atoms: C_3  and  N_4
REMARK    4  A    between atoms: N_4  and  C_15
REMARK    5  A    between atoms: C_5  and  C_7
REMARK    6  A    between atoms: C_18  and  C_19
REMARK                            x       y       z     vdW  Elec       q    Type
REMARK                         _______ _______ _______ _____ _____    ______ ____
ROOT
ATOM      1  N   UNL     1       5.918   4.882  16.828  0.00  0.00    +0.000 N 
ATOM      2  C   UNL     1       4.646   4.529  17.257  0.00  0.00    +0.000 C 
ATOM      3  O   UNL     1       4.200   3.455  16.884  0.00  0.00    +0.000 OA
ENDROOT
BRANCH   2   4
ATOM      4  C   UNL     1       3.757   5.359  18.194  0.00  0.00    +0.000 A 
ATOM      5  C   UNL     1       3.271   6.654  17.865  0.00  0.00    +0.000 A 
ATOM      6  C   UNL     1       2.497   7.404  18.749  0.00  0.00    +0.000 A 
ATOM      7  C   UNL     1       2.167   6.895  19.995  0.00  0.00    +0.000 A 
ATOM      8 CL   UNL     1       1.219   7.860  21.111  0.00  0.00    +0.000 Cl
ATOM      9  C   UNL     1       2.590   5.618  20.348  0.00  0.00    +0.000 A 
ATOM     10  C   UNL     1       3.367   4.845  19.471  0.00  0.00    +0.000 A 
ATOM     11 CL   UNL     1       3.836   3.258  20.081  0.00  0.00    +0.000 Cl
ENDBRANCH   2   4
BRANCH   1  12
ATOM     12  C   UNL     1       6.564   6.072  17.243  0.00  0.00    +0.000 A 
ATOM     13  C   UNL     1       6.199   7.300  16.680  0.00  0.00    +0.000 A 
ATOM     14  C   UNL     1       6.832   8.473  17.090  0.00  0.00    +0.000 A 
ATOM     15  C   UNL     1       7.872   8.436  18.043  0.00  0.00    +0.000 A 
ATOM     16  C   UNL     1       8.236   7.188  18.594  0.00  0.00    +0.000 A 
ATOM     17  C   UNL     1       7.568   6.022  18.218  0.00  0.00    +0.000 A 
BRANCH  15  18
ATOM     18  C   UNL     1       8.573   9.686  18.455  0.00  0.00    +0.000 A 
ATOM     19  C   UNL     1       8.564  10.823  17.620  0.00  0.00    +0.000 A 
ATOM     20  C   UNL     1       9.209  11.998  18.010  0.00  0.00    +0.000 A 
ATOM     21  C   UNL     1       9.891  12.052  19.225  0.00  0.00    +0.000 A 
ATOM     22  C   UNL     1       9.921  10.934  20.058  0.00  0.00    +0.000 A 
ATOM     23  C   UNL     1       9.261   9.761  19.685  0.00  0.00    +0.000 A 
ENDBRANCH  15  18
ENDBRANCH   1  12
BRANCH   1  24
ATOM     24  C   UNL     1       6.700   4.007  15.941  0.00  0.00    +0.000 C 
BRANCH  24  25
ATOM     25  C   UNL     1       6.575   4.437  14.462  0.00  0.00    +0.000 C 
BRANCH  25  26
ATOM     26  N   UNL     1       7.686   5.300  14.069  0.00  0.00    +0.000 NA
ATOM     27  H   UNL     1       8.504   5.089  14.687  0.00  0.00    +0.000 HD
ATOM     28  H   UNL     1       7.417   6.296  14.237  0.00  0.00    +0.000 HD
ENDBRANCH  25  26
ENDBRANCH  24  25
ENDBRANCH   1  24
TORSDOF 6
ENDMDL
MODEL 5
REMARK VINA RESULT:      -7.2      3.069      6.282
REMARK  Name = 
REMARK  6 active torsions:
REMARK  status: ('A' for Active; 'I' for Inactive)
REMARK    1  A    between atoms: N_1  and  C_2
REMARK    2  A    between atoms: C_2  and  C_3
REMARK    3  A    between atoms: C_3  and  N_4
REMARK    4  A    between atoms: N_4  and  C_15
REMARK    5  A    between atoms: C_5  and  C_7
REMARK    6  A    between atoms: C_18  and  C_19
REMARK                            x       y       z     vdW  Elec       q    Type
REMARK                         _______ _______ _______ _____ _____    ______ ____
ROOT
ATOM      1  N   UNL     1       6.236   5.135  16.898  0.00  0.00    +0.000 N 
ATOM      2  C   UNL     1       4.898   4.884  17.166  0.00  0.00    +0.000 C 
ATOM      3  O   UNL     1       4.426   3.833  16.762  0.00  0.00    +0.000 OA
ENDROOT
BRANCH   2   4
ATOM      4  C   UNL     1       3.959   5.804  17.958  0.00  0.00    +0.000 A 
ATOM      5  C   UNL     1       3.572   7.098  17.513  0.00  0.00    +0.000 A 
ATOM      6  C   UNL     1       2.749   7.929  18.270  0.00  0.00    +0.000 A 
ATOM      7  C   UNL     1       2.268   7.507  19.499  0.00  0.00    +0.000 A 
ATOM      8 CL   UNL     1       1.259   8.574  20.458  0.00  0.00    +0.000 Cl
ATOM      9  C   UNL     1       2.590   6.235  19.962  0.00  0.00    +0.000 A 
ATOM     10  C   UNL     1       3.414   5.382  19.213  0.00  0.00    +0.000 A 
ATOM     11 CL   UNL     1       3.740   3.813  19.951  0.00  0.00    +0.000 Cl
ENDBRANCH   2   4
BRANCH   1  12
ATOM     12  C   UNL     1       6.908   6.290  17.366  0.00  0.00    +0.000 A 
ATOM     13  C   UNL     1       7.751   6.208  18.480  0.00  0.00    +0.000 A 
ATOM     14  C   UNL     1       8.416   7.344  18.940  0.00  0.00    +0.000 A 
ATOM     15  C   UNL     1       8.219   8.595  18.319  0.00  0.00    +0.000 A 
ATOM     16  C   UNL     1       7.357   8.665  17.203  0.00  0.00    +0.000 A 
ATOM     17  C   UNL     1       6.730   7.517  16.714  0.00  0.00    +0.000 A 
BRANCH  15  18
ATOM     18  C   UNL     1       8.903   9.817  18.832  0.00  0.00    +0.000 A 
ATOM     19  C   UNL     1       9.010  10.051  20.219  0.00  0.00    +0.000 A 
ATOM     20  C   UNL     1       9.660  11.188  20.702  0.00  0.00    +0.000 A 
ATOM     21  C   UNL     1      10.193  12.120  19.813  0.00  0.00    +0.000 A 
ATOM     22  C   UNL     1      10.086  11.912  18.437  0.00  0.00    +0.000 A 
ATOM     23  C   UNL     1       9.454  10.766  17.946  0.00  0.00    +0.000 A 
ENDBRANCH  15  18
ENDBRANCH   1  12
BRANCH   1  24
ATOM     24  C   UNL     1       7.060   4.180  16.141  0.00  0.00    +0.000 C 
BRANCH  24  25
ATOM     25  C   UNL     1       7.004   4.458  14.622  0.00  0.00    +0.000 C 
BRANCH  25  26
ATOM     26  N   UNL     1       6.159   3.481  13.938  0.00  0.00    +0.000 NA
ATOM     27  H   UNL     1       5.737   2.848  14.657  0.00  0.00    +0.000 HD
ATOM     28  H   UNL     1       6.760   2.891  13.318  0.00  0.00    +0.000 HD
ENDBRANCH  25  26
ENDBRANCH  24  25
ENDBRANCH   1  24
TORSDOF 6
ENDMDL
MODEL 6
REMARK VINA RESULT:      -7.1      0.907      1.409
REMARK  Name = 
REMARK  6 active torsions:
REMARK  status: ('A' for Active; 'I' for Inactive)
REMARK    1  A    between atoms: N_1  and  C_2
REMARK    2  A    between atoms: C_2  and  C_3
REMARK    3  A    between atoms: C_3  and  N_4
REMARK    4  A    between atoms: N_4  and  C_15
REMARK    5  A    between atoms: C_5  and  C_7
REMARK    6  A    between atoms: C_18  and  C_19
REMARK                            x       y       z     vdW  Elec       q    Type
REMARK                         _______ _______ _______ _____ _____    ______ ____
ROOT
ATOM      1  N   UNL     1       2.981   4.636  17.842  0.00  0.00    +0.000 N 
ATOM      2  C   UNL     1       4.321   4.379  17.588  0.00  0.00    +0.000 C 
ATOM      3  O   UNL     1       4.606   3.302  17.087  0.00  0.00    +0.000 OA
ENDROOT
BRANCH   2   4
ATOM      4  C   UNL     1       5.482   5.347  17.853  0.00  0.00    +0.000 A 
ATOM      5  C   UNL     1       6.298   5.291  19.016  0.00  0.00    +0.000 A 
ATOM      6  C   UNL     1       7.321   6.206  19.251  0.00  0.00    +0.000 A 
ATOM      7  C   UNL     1       7.584   7.213  18.335  0.00  0.00    +0.000 A 
ATOM      8 CL   UNL     1       8.854   8.379  18.657  0.00  0.00    +0.000 Cl
ATOM      9  C   UNL     1       6.836   7.288  17.165  0.00  0.00    +0.000 A 
ATOM     10  C   UNL     1       5.803   6.373  16.908  0.00  0.00    +0.000 A 
ATOM     11 CL   UNL     1       4.941   6.620  15.389  0.00  0.00    +0.000 Cl
ENDBRANCH   2   4
BRANCH   1  12
ATOM     12  C   UNL     1       2.524   5.871  18.364  0.00  0.00    +0.000 A 
ATOM     13  C   UNL     1       2.291   6.951  17.506  0.00  0.00    +0.000 A 
ATOM     14  C   UNL     1       1.837   8.166  18.017  0.00  0.00    +0.000 A 
ATOM     15  C   UNL     1       1.647   8.337  19.405  0.00  0.00    +0.000 A 
ATOM     16  C   UNL     1       1.896   7.242  20.260  0.00  0.00    +0.000 A 
ATOM     17  C   UNL     1       2.303   6.012  19.740  0.00  0.00    +0.000 A 
BRANCH  15  18
ATOM     18  C   UNL     1       1.195   9.648  19.956  0.00  0.00    +0.000 A 
ATOM     19  C   UNL     1       0.645   9.730  21.252  0.00  0.00    +0.000 A 
ATOM     20  C   UNL     1       0.233  10.957  21.775  0.00  0.00    +0.000 A 
ATOM     21  C   UNL     1       0.341  12.116  21.008  0.00  0.00    +0.000 A 
ATOM     22  C   UNL     1       0.872  12.053  19.719  0.00  0.00    +0.000 A 
ATOM     23  C   UNL     1       1.305  10.831  19.197  0.00  0.00    +0.000 A 
ENDBRANCH  15  18
ENDBRANCH   1  12
BRANCH   1  24
ATOM     24  C   UNL     1       1.937   3.646  17.536  0.00  0.00    +0.000 C 
BRANCH  24  25
ATOM     25  C   UNL     1       1.770   2.623  18.682  0.00  0.00    +0.000 C 
BRANCH  25  26
ATOM     26  N   UNL     1       2.513   1.395  18.405  0.00  0.00    +0.000 NA
ATOM     27  H   UNL     1       1.829   0.607  18.322  0.00  0.00    +0.000 HD
ATOM     28  H   UNL     1       3.133   1.185  19.220  0.00  0.00    +0.000 HD
ENDBRANCH  25  26
ENDBRANCH  24  25
ENDBRANCH   1  24
TORSDOF 6
ENDMDL
MODEL 7
REMARK VINA RESULT:      -7.0      4.781      8.504
REMARK  Name = 
REMARK  6 active torsions:
REMARK  status: ('A' for Active; 'I' for Inactive)
REMARK    1  A    between atoms: N_1  and  C_2
REMARK    2  A    between atoms: C_2  and  C_3
REMARK    3  A    between atoms: C_3  and  N_4
REMARK    4  A    between atoms: N_4  and  C_15
REMARK    5  A    between atoms: C_5  and  C_7
REMARK    6  A    between atoms: C_18  and  C_19
REMARK                            x       y       z     vdW  Elec       q    Type
REMARK                         _______ _______ _______ _____ _____    ______ ____
ROOT
ATOM      1  N   UNL     1      -0.209  10.667  20.744  0.00  0.00    +0.000 N 
ATOM      2  C   UNL     1      -1.322  11.246  20.152  0.00  0.00    +0.000 C 
ATOM      3  O   UNL     1      -1.940  12.078  20.800  0.00  0.00    +0.000 OA
ENDROOT
BRANCH   2   4
ATOM      4  C   UNL     1      -1.833  10.956  18.734  0.00  0.00    +0.000 A 
ATOM      5  C   UNL     1      -2.598   9.806  18.398  0.00  0.00    +0.000 A 
ATOM      6  C   UNL     1      -3.016   9.546  17.094  0.00  0.00    +0.000 A 
ATOM      7  C   UNL     1      -2.699  10.424  16.070  0.00  0.00    +0.000 A 
ATOM      8 CL   UNL     1      -3.203  10.070  14.428  0.00  0.00    +0.000 Cl
ATOM      9  C   UNL     1      -1.982  11.581  16.355  0.00  0.00    +0.000 A 
ATOM     10  C   UNL     1      -1.555  11.863  17.661  0.00  0.00    +0.000 A 
ATOM     11 CL   UNL     1      -0.642  13.360  17.848  0.00  0.00    +0.000 Cl
ENDBRANCH   2   4
BRANCH   1  12
ATOM     12  C   UNL     1       0.619   9.736  20.070  0.00  0.00    +0.000 A 
ATOM     13  C   UNL     1       1.050   9.997  18.764  0.00  0.00    +0.000 A 
ATOM     14  C   UNL     1       1.868   9.083  18.101  0.00  0.00    +0.000 A 
ATOM     15  C   UNL     1       2.238   7.869  18.716  0.00  0.00    +0.000 A 
ATOM     16  C   UNL     1       1.788   7.614  20.030  0.00  0.00    +0.000 A 
ATOM     17  C   UNL     1       1.010   8.553  20.710  0.00  0.00    +0.000 A 
BRANCH  15  18
ATOM     18  C   UNL     1       3.084   6.876  17.994  0.00  0.00    +0.000 A 
ATOM     19  C   UNL     1       2.787   5.498  18.058  0.00  0.00    +0.000 A 
ATOM     20  C   UNL     1       3.570   4.568  17.372  0.00  0.00    +0.000 A 
ATOM     21  C   UNL     1       4.674   4.992  16.633  0.00  0.00    +0.000 A 
ATOM     22  C   UNL     1       4.991   6.349  16.568  0.00  0.00    +0.000 A 
ATOM     23  C   UNL     1       4.200   7.288  17.234  0.00  0.00    +0.000 A 
ENDBRANCH  15  18
ENDBRANCH   1  12
BRANCH   1  24
ATOM     24  C   UNL     1       0.211  11.024  22.107  0.00  0.00    +0.000 C 
BRANCH  24  25
ATOM     25  C   UNL     1      -0.704  10.378  23.172  0.00  0.00    +0.000 C 
BRANCH  25  26
ATOM     26  N   UNL     1       0.032   9.409  23.981  0.00  0.00    +0.000 NA
ATOM     27  H   UNL     1       1.056   9.538  23.802  0.00  0.00    +0.000 HD
ATOM     28  H   UNL     1      -0.220   8.445  23.666  0.00  0.00    +0.000 HD
ENDBRANCH  25  26
ENDBRANCH  24  25
ENDBRANCH   1  24
TORSDOF 6
ENDMDL
MODEL 8
REMARK VINA RESULT:      -6.9      1.147      1.797
REMARK  Name = 
REMARK  6 active torsions:
REMARK  status: ('A' for Active; 'I' for Inactive)
REMARK    1  A    between atoms: N_1  and  C_2
REMARK    2  A    between atoms: C_2  and  C_3
REMARK    3  A    between atoms: C_3  and  N_4
REMARK    4  A    between atoms: N_4  and  C_15
REMARK    5  A    between atoms: C_5  and  C_7
REMARK    6  A    between atoms: C_18  and  C_19
REMARK                            x       y       z     vdW  Elec       q    Type
REMARK                         _______ _______ _______ _____ _____    ______ ____
ROOT
ATOM      1  N   UNL     1       2.935   4.347  18.054  0.00  0.00    +0.000 N 
ATOM      2  C   UNL     1       4.270   4.081  17.786  0.00  0.00    +0.000 C 
ATOM      3  O   UNL     1       4.546   2.990  17.311  0.00  0.00    +0.000 OA
ENDROOT
BRANCH   2   4
ATOM      4  C   UNL     1       5.436   5.056  18.004  0.00  0.00    +0.000 A 
ATOM      5  C   UNL     1       6.176   5.131  19.215  0.00  0.00    +0.000 A 
ATOM      6  C   UNL     1       7.205   6.052  19.402  0.00  0.00    +0.000 A 
ATOM      7  C   UNL     1       7.549   6.932  18.388  0.00  0.00    +0.000 A 
ATOM      8 CL   UNL     1       8.825   8.107  18.645  0.00  0.00    +0.000 Cl
ATOM      9  C   UNL     1       6.878   6.872  17.171  0.00  0.00    +0.000 A 
ATOM     10  C   UNL     1       5.841   5.951  16.962  0.00  0.00    +0.000 A 
ATOM     11 CL   UNL     1       5.081   6.020  15.372  0.00  0.00    +0.000 Cl
ENDBRANCH   2   4
BRANCH   1  12
ATOM     12  C   UNL     1       2.487   5.597  18.549  0.00  0.00    +0.000 A 
ATOM     13  C   UNL     1       2.309   6.674  17.674  0.00  0.00    +0.000 A 
ATOM     14  C   UNL     1       1.865   7.904  18.158  0.00  0.00    +0.000 A 
ATOM     15  C   UNL     1       1.629   8.092  19.536  0.00  0.00    +0.000 A 
ATOM     16  C   UNL     1       1.823   6.999  20.409  0.00  0.00    +0.000 A 
ATOM     17  C   UNL     1       2.221   5.756  19.915  0.00  0.00    +0.000 A 
BRANCH  15  18
ATOM     18  C   UNL     1       1.188   9.417  20.060  0.00  0.00    +0.000 A 
ATOM     19  C   UNL     1       1.192  10.556  19.227  0.00  0.00    +0.000 A 
ATOM     20  C   UNL     1       0.768  11.794  19.711  0.00  0.00    +0.000 A 
ATOM     21  C   UNL     1       0.355  11.923  21.037  0.00  0.00    +0.000 A 
ATOM     22  C   UNL     1       0.356  10.811  21.879  0.00  0.00    +0.000 A 
ATOM     23  C   UNL     1       0.760   9.564  21.396  0.00  0.00    +0.000 A 
ENDBRANCH  15  18
ENDBRANCH   1  12
BRANCH   1  24
ATOM     24  C   UNL     1       1.885   3.350  17.794  0.00  0.00    +0.000 C 
BRANCH  24  25
ATOM     25  C   UNL     1       1.746   2.352  18.965  0.00  0.00    +0.000 C 
BRANCH  25  26
ATOM     26  N   UNL     1       0.608   2.693  19.816  0.00  0.00    +0.000 NA
ATOM     27  H   UNL     1       0.775   3.641  20.227  0.00  0.00    +0.000 HD
ATOM     28  H   UNL     1       0.563   2.014  20.609  0.00  0.00    +0.000 HD
ENDBRANCH  25  26
ENDBRANCH  24  25
ENDBRANCH   1  24
TORSDOF 6
ENDMDL
MODEL 9
REMARK VINA RESULT:      -6.9      1.312      1.810
REMARK  Name = 
REMARK  6 active torsions:
REMARK  status: ('A' for Active; 'I' for Inactive)
REMARK    1  A    between atoms: N_1  and  C_2
REMARK    2  A    between atoms: C_2  and  C_3
REMARK    3  A    between atoms: C_3  and  N_4
REMARK    4  A    between atoms: N_4  and  C_15
REMARK    5  A    between atoms: C_5  and  C_7
REMARK    6  A    between atoms: C_18  and  C_19
REMARK                            x       y       z     vdW  Elec       q    Type
REMARK                         _______ _______ _______ _____ _____    ______ ____
ROOT
ATOM      1  N   UNL     1       3.292   3.862  19.524  0.00  0.00    +0.000 N 
ATOM      2  C   UNL     1       4.581   3.625  19.067  0.00  0.00    +0.000 C 
ATOM      3  O   UNL     1       4.951   2.463  18.992  0.00  0.00    +0.000 OA
ENDROOT
BRANCH   2   4
ATOM      4  C   UNL     1       5.579   4.699  18.614  0.00  0.00    +0.000 A 
ATOM      5  C   UNL     1       6.462   5.371  19.503  0.00  0.00    +0.000 A 
ATOM      6  C   UNL     1       7.332   6.371  19.072  0.00  0.00    +0.000 A 
ATOM      7  C   UNL     1       7.368   6.739  17.737  0.00  0.00    +0.000 A 
ATOM      8 CL   UNL     1       8.444   8.020  17.212  0.00  0.00    +0.000 Cl
ATOM      9  C   UNL     1       6.549   6.085  16.822  0.00  0.00    +0.000 A 
ATOM     10  C   UNL     1       5.668   5.074  17.235  0.00  0.00    +0.000 A 
ATOM     11 CL   UNL     1       4.687   4.362  15.954  0.00  0.00    +0.000 Cl
ENDBRANCH   2   4
BRANCH   1  12
ATOM     12  C   UNL     1       2.732   5.161  19.597  0.00  0.00    +0.000 A 
ATOM     13  C   UNL     1       2.825   6.027  18.502  0.00  0.00    +0.000 A 
ATOM     14  C   UNL     1       2.271   7.305  18.572  0.00  0.00    +0.000 A 
ATOM     15  C   UNL     1       1.649   7.756  19.755  0.00  0.00    +0.000 A 
ATOM     16  C   UNL     1       1.572   6.875  20.855  0.00  0.00    +0.000 A 
ATOM     17  C   UNL     1       2.084   5.579  20.766  0.00  0.00    +0.000 A 
BRANCH  15  18
ATOM     18  C   UNL     1       1.088   9.136  19.842  0.00  0.00    +0.000 A 
ATOM     19  C   UNL     1       0.469   9.586  21.027  0.00  0.00    +0.000 A 
ATOM     20  C   UNL     1      -0.046  10.881  21.114  0.00  0.00    +0.000 A 
ATOM     21  C   UNL     1       0.026  11.738  20.017  0.00  0.00    +0.000 A 
ATOM     22  C   UNL     1       0.623  11.306  18.833  0.00  0.00    +0.000 A 
ATOM     23  C   UNL     1       1.159  10.019  18.744  0.00  0.00    +0.000 A 
ENDBRANCH  15  18
ENDBRANCH   1  12
BRANCH   1  24
ATOM     24  C   UNL     1       2.402   2.759  19.920  0.00  0.00    +0.000 C 
BRANCH  24  25
ATOM     25  C   UNL     1       1.402   2.402  18.798  0.00  0.00    +0.000 C 
BRANCH  25  26
ATOM     26  N   UNL     1       2.097   1.909  17.611  0.00  0.00    +0.000 NA
ATOM     27  H   UNL     1       1.763   2.455  16.782  0.00  0.00    +0.000 HD
ATOM     28  H   UNL     1       1.830   0.911  17.454  0.00  0.00    +0.000 HD
ENDBRANCH  25  26
ENDBRANCH  24  25
ENDBRANCH   1  24
TORSDOF 6
ENDMDL
