MODEL 1
REMARK VINA RESULT:      -9.1      0.000      0.000
REMARK  Name = 
REMARK  7 active torsions:
REMARK  status: ('A' for Active; 'I' for Inactive)
REMARK    1  A    between atoms: C_2  and  O_3
REMARK    2  A    between atoms: C_2  and  C_4
REMARK    3  A    between atoms: C_4  and  C_5
REMARK    4  A    between atoms: C_5  and  O_6
REMARK    5  A    between atoms: O_6  and  C_7
REMARK    6  A    between atoms: C_10  and  N_11
REMARK    7  A    between atoms: N_11  and  C_12
REMARK                            x       y       z     vdW  Elec       q    Type
REMARK                         _______ _______ _______ _____ _____    ______ ____
ROOT
ATOM      1  N   UNL     1       3.313   6.407  19.744  0.00  0.00    +0.000 N 
ATOM      2  H   UNL     1       3.383   6.204  20.739  0.00  0.00    +0.000 HD
ENDROOT
BRANCH   1   3
ATOM      3  C   UNL     1       3.646   5.222  19.005  0.00  0.00    +0.000 A 
ATOM      4  C   UNL     1       4.301   5.170  17.719  0.00  0.00    +0.000 A 
ATOM      5  C   UNL     1       4.509   6.201  16.775  0.00  0.00    +0.000 A 
ATOM      6  C   UNL     1       5.327   6.044  15.650  0.00  0.00    +0.000 A 
ATOM      7  C   UNL     1       5.912   4.812  15.409  0.00  0.00    +0.000 A 
ATOM      8  C   UNL     1       5.546   3.734  16.203  0.00  0.00    +0.000 A 
ATOM      9  C   UNL     1       4.655   3.894  17.255  0.00  0.00    +0.000 A 
ATOM     10  N   UNL     1       3.991   2.821  17.668  0.00  0.00    +0.000 NA
ATOM     11  C   UNL     1       3.013   3.043  18.546  0.00  0.00    +0.000 A 
ATOM     12  C   UNL     1       1.698   2.720  18.252  0.00  0.00    +0.000 A 
ATOM     13  C   UNL     1       0.667   3.036  19.141  0.00  0.00    +0.000 A 
ATOM     14  C   UNL     1       1.000   3.468  20.418  0.00  0.00    +0.000 A 
ATOM     15  C   UNL     1       2.302   3.887  20.649  0.00  0.00    +0.000 A 
ATOM     16  C   UNL     1       3.135   3.998  19.523  0.00  0.00    +0.000 A 
ENDBRANCH   1   3
BRANCH   1  20
ATOM     17  C   UNL     1       0.847   9.767  19.134  0.00  0.00    +0.000 A 
ATOM     18  C   UNL     1       1.448   9.131  18.049  0.00  0.00    +0.000 A 
ATOM     19  C   UNL     1       2.204   7.972  18.247  0.00  0.00    +0.000 A 
ATOM     20  C   UNL     1       2.346   7.419  19.531  0.00  0.00    +0.000 A 
ATOM     21  C   UNL     1       1.573   7.944  20.556  0.00  0.00    +0.000 A 
ATOM     22  C   UNL     1       0.898   9.156  20.383  0.00  0.00    +0.000 A 
BRANCH  17  23
ATOM     23  O   UNL     1       0.204  10.975  19.105  0.00  0.00    +0.000 OA
BRANCH  23  24
ATOM     24  C   UNL     1      -1.115  11.000  19.656  0.00  0.00    +0.000 C 
BRANCH  24  25
ATOM     25  C   UNL     1      -2.034  11.722  18.678  0.00  0.00    +0.000 C 
BRANCH  25  27
ATOM     26  O   UNL     1      -2.301   9.720  17.332  0.00  0.00    +0.000 OA
ATOM     27  C   UNL     1      -2.165  10.938  17.409  0.00  0.00    +0.000 C 
BRANCH  27  28
ATOM     28  O   UNL     1      -2.109  11.713  16.296  0.00  0.00    +0.000 OA
ATOM     29  H   UNL     1      -2.418  12.634  16.451  0.00  0.00    +0.000 HD
ENDBRANCH  27  28
ENDBRANCH  25  27
ENDBRANCH  24  25
ENDBRANCH  23  24
ENDBRANCH  17  23
ENDBRANCH   1  20
TORSDOF 7
ENDMDL
MODEL 2
REMARK VINA RESULT:      -9.0      1.553      2.259
REMARK  Name = 
REMARK  7 active torsions:
REMARK  status: ('A' for Active; 'I' for Inactive)
REMARK    1  A    between atoms: C_2  and  O_3
REMARK    2  A    between atoms: C_2  and  C_4
REMARK    3  A    between atoms: C_4  and  C_5
REMARK    4  A    between atoms: C_5  and  O_6
REMARK    5  A    between atoms: O_6  and  C_7
REMARK    6  A    between atoms: C_10  and  N_11
REMARK    7  A    between atoms: N_11  and  C_12
REMARK                            x       y       z     vdW  Elec       q    Type
REMARK                         _______ _______ _______ _____ _____    ______ ____
ROOT
ATOM      1  N   UNL     1       3.353   6.287  19.863  0.00  0.00    +0.000 N 
ATOM      2  H   UNL     1       3.487   6.055  20.845  0.00  0.00    +0.000 HD
ENDROOT
BRANCH   1   3
ATOM      3  C   UNL     1       3.662   5.131  19.068  0.00  0.00    +0.000 A 
ATOM      4  C   UNL     1       4.286   5.129  17.765  0.00  0.00    +0.000 A 
ATOM      5  C   UNL     1       4.477   6.195  16.860  0.00  0.00    +0.000 A 
ATOM      6  C   UNL     1       5.267   6.081  15.710  0.00  0.00    +0.000 A 
ATOM      7  C   UNL     1       5.839   4.857  15.405  0.00  0.00    +0.000 A 
ATOM      8  C   UNL     1       5.486   3.750  16.163  0.00  0.00    +0.000 A 
ATOM      9  C   UNL     1       4.622   3.871  17.242  0.00  0.00    +0.000 A 
ATOM     10  N   UNL     1       3.961   2.785  17.627  0.00  0.00    +0.000 NA
ATOM     11  C   UNL     1       3.006   2.975  18.537  0.00  0.00    +0.000 A 
ATOM     12  C   UNL     1       1.683   2.671  18.262  0.00  0.00    +0.000 A 
ATOM     13  C   UNL     1       0.675   2.955  19.188  0.00  0.00    +0.000 A 
ATOM     14  C   UNL     1       1.041   3.334  20.473  0.00  0.00    +0.000 A 
ATOM     15  C   UNL     1       2.351   3.737  20.689  0.00  0.00    +0.000 A 
ATOM     16  C   UNL     1       3.157   3.890  19.549  0.00  0.00    +0.000 A 
ENDBRANCH   1   3
BRANCH   1  20
ATOM     17  C   UNL     1       0.788   9.616  19.586  0.00  0.00    +0.000 A 
ATOM     18  C   UNL     1       1.464   9.155  18.457  0.00  0.00    +0.000 A 
ATOM     19  C   UNL     1       2.255   8.005  18.535  0.00  0.00    +0.000 A 
ATOM     20  C   UNL     1       2.358   7.286  19.739  0.00  0.00    +0.000 A 
ATOM     21  C   UNL     1       1.518   7.640  20.784  0.00  0.00    +0.000 A 
ATOM     22  C   UNL     1       0.805   8.842  20.742  0.00  0.00    +0.000 A 
BRANCH  17  23
ATOM     23  O   UNL     1       0.100  10.796  19.688  0.00  0.00    +0.000 OA
BRANCH  23  24
ATOM     24  C   UNL     1       0.279  11.527  20.903  0.00  0.00    +0.000 C 
BRANCH  24  25
ATOM     25  C   UNL     1      -1.093  11.859  21.475  0.00  0.00    +0.000 C 
BRANCH  25  27
ATOM     26  O   UNL     1      -0.392  10.624  23.443  0.00  0.00    +0.000 OA
ATOM     27  C   UNL     1      -1.229  11.308  22.861  0.00  0.00    +0.000 C 
BRANCH  27  28
ATOM     28  O   UNL     1      -2.410  11.628  23.448  0.00  0.00    +0.000 OA
ATOM     29  H   UNL     1      -3.128  10.988  23.246  0.00  0.00    +0.000 HD
ENDBRANCH  27  28
ENDBRANCH  25  27
ENDBRANCH  24  25
ENDBRANCH  23  24
ENDBRANCH  17  23
ENDBRANCH   1  20
TORSDOF 7
ENDMDL
MODEL 3
REMARK VINA RESULT:      -9.0      0.915      1.199
REMARK  Name = 
REMARK  7 active torsions:
REMARK  status: ('A' for Active; 'I' for Inactive)
REMARK    1  A    between atoms: C_2  and  O_3
REMARK    2  A    between atoms: C_2  and  C_4
REMARK    3  A    between atoms: C_4  and  C_5
REMARK    4  A    between atoms: C_5  and  O_6
REMARK    5  A    between atoms: O_6  and  C_7
REMARK    6  A    between atoms: C_10  and  N_11
REMARK    7  A    between atoms: N_11  and  C_12
REMARK                            x       y       z     vdW  Elec       q    Type
REMARK                         _______ _______ _______ _____ _____    ______ ____
ROOT
ATOM      1  N   UNL     1       3.306   6.349  19.757  0.00  0.00    +0.000 N 
ATOM      2  H   UNL     1       3.344   6.132  20.751  0.00  0.00    +0.000 HD
ENDROOT
BRANCH   1   3
ATOM      3  C   UNL     1       3.648   5.170  19.012  0.00  0.00    +0.000 A 
ATOM      4  C   UNL     1       4.299   5.130  17.723  0.00  0.00    +0.000 A 
ATOM      5  C   UNL     1       4.496   6.166  16.784  0.00  0.00    +0.000 A 
ATOM      6  C   UNL     1       5.311   6.021  15.656  0.00  0.00    +0.000 A 
ATOM      7  C   UNL     1       5.906   4.796  15.407  0.00  0.00    +0.000 A 
ATOM      8  C   UNL     1       5.552   3.711  16.198  0.00  0.00    +0.000 A 
ATOM      9  C   UNL     1       4.664   3.859  17.253  0.00  0.00    +0.000 A 
ATOM     10  N   UNL     1       4.010   2.778  17.664  0.00  0.00    +0.000 NA
ATOM     11  C   UNL     1       3.033   2.987  18.546  0.00  0.00    +0.000 A 
ATOM     12  C   UNL     1       1.720   2.654  18.254  0.00  0.00    +0.000 A 
ATOM     13  C   UNL     1       0.689   2.957  19.148  0.00  0.00    +0.000 A 
ATOM     14  C   UNL     1       1.022   3.387  20.425  0.00  0.00    +0.000 A 
ATOM     15  C   UNL     1       2.321   3.816  20.654  0.00  0.00    +0.000 A 
ATOM     16  C   UNL     1       3.149   3.940  19.527  0.00  0.00    +0.000 A 
ENDBRANCH   1   3
BRANCH   1  20
ATOM     17  C   UNL     1       0.900   9.746  19.109  0.00  0.00    +0.000 A 
ATOM     18  C   UNL     1       1.511   9.103  18.034  0.00  0.00    +0.000 A 
ATOM     19  C   UNL     1       2.247   7.933  18.243  0.00  0.00    +0.000 A 
ATOM     20  C   UNL     1       2.358   7.376  19.529  0.00  0.00    +0.000 A 
ATOM     21  C   UNL     1       1.574   7.910  20.541  0.00  0.00    +0.000 A 
ATOM     22  C   UNL     1       0.920   9.132  20.358  0.00  0.00    +0.000 A 
BRANCH  17  23
ATOM     23  O   UNL     1       0.276  10.964  19.071  0.00  0.00    +0.000 OA
BRANCH  23  24
ATOM     24  C   UNL     1      -0.652  11.229  20.127  0.00  0.00    +0.000 C 
BRANCH  24  25
ATOM     25  C   UNL     1      -1.520  12.414  19.722  0.00  0.00    +0.000 C 
BRANCH  25  27
ATOM     26  O   UNL     1      -0.181  14.142  18.668  0.00  0.00    +0.000 OA
ATOM     27  C   UNL     1      -0.897  13.149  18.576  0.00  0.00    +0.000 C 
BRANCH  27  28
ATOM     28  O   UNL     1      -1.211  12.615  17.368  0.00  0.00    +0.000 OA
ATOM     29  H   UNL     1      -1.483  13.289  16.706  0.00  0.00    +0.000 HD
ENDBRANCH  27  28
ENDBRANCH  25  27
ENDBRANCH  24  25
ENDBRANCH  23  24
ENDBRANCH  17  23
ENDBRANCH   1  20
TORSDOF 7
ENDMDL
MODEL 4
REMARK VINA RESULT:      -8.9      1.470      2.125
REMARK  Name = 
REMARK  7 active torsions:
REMARK  status: ('A' for Active; 'I' for Inactive)
REMARK    1  A    between atoms: C_2  and  O_3
REMARK    2  A    between atoms: C_2  and  C_4
REMARK    3  A    between atoms: C_4  and  C_5
REMARK    4  A    between atoms: C_5  and  O_6
REMARK    5  A    between atoms: O_6  and  C_7
REMARK    6  A    between atoms: C_10  and  N_11
REMARK    7  A    between atoms: N_11  and  C_12
REMARK                            x       y       z     vdW  Elec       q    Type
REMARK                         _______ _______ _______ _____ _____    ______ ____
ROOT
ATOM      1  N   UNL     1       3.336   6.325  19.873  0.00  0.00    +0.000 N 
ATOM      2  H   UNL     1       3.478   6.095  20.855  0.00  0.00    +0.000 HD
ENDROOT
BRANCH   1   3
ATOM      3  C   UNL     1       3.643   5.169  19.078  0.00  0.00    +0.000 A 
ATOM      4  C   UNL     1       4.267   5.167  17.775  0.00  0.00    +0.000 A 
ATOM      5  C   UNL     1       4.460   6.235  16.871  0.00  0.00    +0.000 A 
ATOM      6  C   UNL     1       5.249   6.120  15.721  0.00  0.00    +0.000 A 
ATOM      7  C   UNL     1       5.820   4.896  15.415  0.00  0.00    +0.000 A 
ATOM      8  C   UNL     1       5.466   3.788  16.172  0.00  0.00    +0.000 A 
ATOM      9  C   UNL     1       4.602   3.910  17.251  0.00  0.00    +0.000 A 
ATOM     10  N   UNL     1       3.940   2.824  17.636  0.00  0.00    +0.000 NA
ATOM     11  C   UNL     1       2.985   3.015  18.546  0.00  0.00    +0.000 A 
ATOM     12  C   UNL     1       1.662   2.712  18.270  0.00  0.00    +0.000 A 
ATOM     13  C   UNL     1       0.654   2.997  19.196  0.00  0.00    +0.000 A 
ATOM     14  C   UNL     1       1.020   3.374  20.481  0.00  0.00    +0.000 A 
ATOM     15  C   UNL     1       2.330   3.775  20.698  0.00  0.00    +0.000 A 
ATOM     16  C   UNL     1       3.136   3.928  19.558  0.00  0.00    +0.000 A 
ENDBRANCH   1   3
BRANCH   1  20
ATOM     17  C   UNL     1       0.753   9.642  19.609  0.00  0.00    +0.000 A 
ATOM     18  C   UNL     1       1.414   9.175  18.474  0.00  0.00    +0.000 A 
ATOM     19  C   UNL     1       2.211   8.029  18.549  0.00  0.00    +0.000 A 
ATOM     20  C   UNL     1       2.335   7.320  19.757  0.00  0.00    +0.000 A 
ATOM     21  C   UNL     1       1.508   7.678  20.811  0.00  0.00    +0.000 A 
ATOM     22  C   UNL     1       0.789   8.877  20.770  0.00  0.00    +0.000 A 
BRANCH  17  23
ATOM     23  O   UNL     1       0.062  10.819  19.712  0.00  0.00    +0.000 OA
BRANCH  23  24
ATOM     24  C   UNL     1       0.421  11.844  18.782  0.00  0.00    +0.000 C 
BRANCH  24  25
ATOM     25  C   UNL     1       1.469  12.740  19.429  0.00  0.00    +0.000 C 
BRANCH  25  27
ATOM     26  O   UNL     1       3.422  13.917  18.599  0.00  0.00    +0.000 OA
ATOM     27  C   UNL     1       2.560  13.056  18.453  0.00  0.00    +0.000 C 
BRANCH  27  28
ATOM     28  O   UNL     1       2.514  12.286  17.335  0.00  0.00    +0.000 OA
ATOM     29  H   UNL     1       2.370  12.807  16.514  0.00  0.00    +0.000 HD
ENDBRANCH  27  28
ENDBRANCH  25  27
ENDBRANCH  24  25
ENDBRANCH  23  24
ENDBRANCH  17  23
ENDBRANCH   1  20
TORSDOF 7
ENDMDL
MODEL 5
REMARK VINA RESULT:      -8.9      0.833      1.351
REMARK  Name = 
REMARK  7 active torsions:
REMARK  status: ('A' for Active; 'I' for Inactive)
REMARK    1  A    between atoms: C_2  and  O_3
REMARK    2  A    between atoms: C_2  and  C_4
REMARK    3  A    between atoms: C_4  and  C_5
REMARK    4  A    between atoms: C_5  and  O_6
REMARK    5  A    between atoms: O_6  and  C_7
REMARK    6  A    between atoms: C_10  and  N_11
REMARK    7  A    between atoms: N_11  and  C_12
REMARK                            x       y       z     vdW  Elec       q    Type
REMARK                         _______ _______ _______ _____ _____    ______ ____
ROOT
ATOM      1  N   UNL     1       2.929   6.528  19.992  0.00  0.00    +0.000 N 
ATOM      2  H   UNL     1       2.589   6.196  20.892  0.00  0.00    +0.000 HD
ENDROOT
BRANCH   1   3
ATOM      3  C   UNL     1       3.391   5.404  19.227  0.00  0.00    +0.000 A 
ATOM      4  C   UNL     1       4.103   5.456  17.972  0.00  0.00    +0.000 A 
ATOM      5  C   UNL     1       4.268   6.536  17.077  0.00  0.00    +0.000 A 
ATOM      6  C   UNL     1       5.144   6.490  15.987  0.00  0.00    +0.000 A 
ATOM      7  C   UNL     1       5.838   5.319  15.729  0.00  0.00    +0.000 A 
ATOM      8  C   UNL     1       5.527   4.185  16.466  0.00  0.00    +0.000 A 
ATOM      9  C   UNL     1       4.582   4.231  17.480  0.00  0.00    +0.000 A 
ATOM     10  N   UNL     1       3.990   3.092  17.823  0.00  0.00    +0.000 NA
ATOM     11  C   UNL     1       2.960   3.200  18.662  0.00  0.00    +0.000 A 
ATOM     12  C   UNL     1       1.690   2.785  18.295  0.00  0.00    +0.000 A 
ATOM     13  C   UNL     1       0.598   2.982  19.145  0.00  0.00    +0.000 A 
ATOM     14  C   UNL     1       0.838   3.389  20.451  0.00  0.00    +0.000 A 
ATOM     15  C   UNL     1       2.090   3.901  20.758  0.00  0.00    +0.000 A 
ATOM     16  C   UNL     1       2.959   4.123  19.677  0.00  0.00    +0.000 A 
ENDBRANCH   1   3
BRANCH   1  20
ATOM     17  C   UNL     1       0.421   9.716  18.855  0.00  0.00    +0.000 A 
ATOM     18  C   UNL     1       0.542   9.363  20.198  0.00  0.00    +0.000 A 
ATOM     19  C   UNL     1       1.432   8.354  20.580  0.00  0.00    +0.000 A 
ATOM     20  C   UNL     1       2.233   7.705  19.624  0.00  0.00    +0.000 A 
ATOM     21  C   UNL     1       2.250   8.214  18.334  0.00  0.00    +0.000 A 
ATOM     22  C   UNL     1       1.293   9.151  17.931  0.00  0.00    +0.000 A 
BRANCH  17  23
ATOM     23  O   UNL     1      -0.503  10.578  18.328  0.00  0.00    +0.000 OA
BRANCH  23  24
ATOM     24  C   UNL     1      -1.852  10.106  18.288  0.00  0.00    +0.000 C 
BRANCH  24  25
ATOM     25  C   UNL     1      -2.214   9.796  16.841  0.00  0.00    +0.000 C 
BRANCH  25  27
ATOM     26  O   UNL     1      -3.122  11.098  15.005  0.00  0.00    +0.000 OA
ATOM     27  C   UNL     1      -2.869  10.980  16.200  0.00  0.00    +0.000 C 
BRANCH  27  28
ATOM     28  O   UNL     1      -3.166  11.967  17.085  0.00  0.00    +0.000 OA
ATOM     29  H   UNL     1      -2.925  12.863  16.759  0.00  0.00    +0.000 HD
ENDBRANCH  27  28
ENDBRANCH  25  27
ENDBRANCH  24  25
ENDBRANCH  23  24
ENDBRANCH  17  23
ENDBRANCH   1  20
TORSDOF 7
ENDMDL
MODEL 6
REMARK VINA RESULT:      -8.8      1.513      1.955
REMARK  Name = 
REMARK  7 active torsions:
REMARK  status: ('A' for Active; 'I' for Inactive)
REMARK    1  A    between atoms: C_2  and  O_3
REMARK    2  A    between atoms: C_2  and  C_4
REMARK    3  A    between atoms: C_4  and  C_5
REMARK    4  A    between atoms: C_5  and  O_6
REMARK    5  A    between atoms: O_6  and  C_7
REMARK    6  A    between atoms: C_10  and  N_11
REMARK    7  A    between atoms: N_11  and  C_12
REMARK                            x       y       z     vdW  Elec       q    Type
REMARK                         _______ _______ _______ _____ _____    ______ ____
ROOT
ATOM      1  N   UNL     1       2.479   6.682  18.159  0.00  0.00    +0.000 N 
ATOM      2  H   UNL     1       2.377   6.647  17.147  0.00  0.00    +0.000 HD
ENDROOT
BRANCH   1   3
ATOM      3  C   UNL     1       3.545   5.800  18.547  0.00  0.00    +0.000 A 
ATOM      4  C   UNL     1       4.952   5.989  18.282  0.00  0.00    +0.000 A 
ATOM      5  C   UNL     1       5.586   6.873  17.382  0.00  0.00    +0.000 A 
ATOM      6  C   UNL     1       6.970   7.077  17.367  0.00  0.00    +0.000 A 
ATOM      7  C   UNL     1       7.768   6.340  18.226  0.00  0.00    +0.000 A 
ATOM      8  C   UNL     1       7.187   5.316  18.961  0.00  0.00    +0.000 A 
ATOM      9  C   UNL     1       5.824   5.069  18.885  0.00  0.00    +0.000 A 
ATOM     10  N   UNL     1       5.400   3.852  19.206  0.00  0.00    +0.000 NA
ATOM     11  C   UNL     1       4.119   3.593  18.942  0.00  0.00    +0.000 A 
ATOM     12  C   UNL     1       3.757   2.585  18.064  0.00  0.00    +0.000 A 
ATOM     13  C   UNL     1       2.417   2.376  17.725  0.00  0.00    +0.000 A 
ATOM     14  C   UNL     1       1.438   3.039  18.452  0.00  0.00    +0.000 A 
ATOM     15  C   UNL     1       1.821   4.114  19.240  0.00  0.00    +0.000 A 
ATOM     16  C   UNL     1       3.150   4.550  19.103  0.00  0.00    +0.000 A 
ENDBRANCH   1   3
BRANCH   1  20
ATOM     17  C   UNL     1       0.773  10.291  19.503  0.00  0.00    +0.000 A 
ATOM     18  C   UNL     1       0.998   9.245  20.397  0.00  0.00    +0.000 A 
ATOM     19  C   UNL     1       1.633   8.077  19.964  0.00  0.00    +0.000 A 
ATOM     20  C   UNL     1       2.076   7.952  18.635  0.00  0.00    +0.000 A 
ATOM     21  C   UNL     1       2.032   9.077  17.825  0.00  0.00    +0.000 A 
ATOM     22  C   UNL     1       1.310  10.207  18.223  0.00  0.00    +0.000 A 
BRANCH  17  23
ATOM     23  O   UNL     1       0.043  11.422  19.753  0.00  0.00    +0.000 OA
BRANCH  23  24
ATOM     24  C   UNL     1      -0.722  11.932  18.658  0.00  0.00    +0.000 C 
BRANCH  24  25
ATOM     25  C   UNL     1      -2.154  11.429  18.792  0.00  0.00    +0.000 C 
BRANCH  25  27
ATOM     26  O   UNL     1      -3.974  11.030  17.237  0.00  0.00    +0.000 OA
ATOM     27  C   UNL     1      -2.820  11.388  17.451  0.00  0.00    +0.000 C 
BRANCH  27  28
ATOM     28  O   UNL     1      -2.006  11.786  16.440  0.00  0.00    +0.000 OA
ATOM     29  H   UNL     1      -1.103  11.401  16.496  0.00  0.00    +0.000 HD
ENDBRANCH  27  28
ENDBRANCH  25  27
ENDBRANCH  24  25
ENDBRANCH  23  24
ENDBRANCH  17  23
ENDBRANCH   1  20
TORSDOF 7
ENDMDL
MODEL 7
REMARK VINA RESULT:      -8.7      1.206      3.663
REMARK  Name = 
REMARK  7 active torsions:
REMARK  status: ('A' for Active; 'I' for Inactive)
REMARK    1  A    between atoms: C_2  and  O_3
REMARK    2  A    between atoms: C_2  and  C_4
REMARK    3  A    between atoms: C_4  and  C_5
REMARK    4  A    between atoms: C_5  and  O_6
REMARK    5  A    between atoms: O_6  and  C_7
REMARK    6  A    between atoms: C_10  and  N_11
REMARK    7  A    between atoms: N_11  and  C_12
REMARK                            x       y       z     vdW  Elec       q    Type
REMARK                         _______ _______ _______ _____ _____    ______ ____
ROOT
ATOM      1  N   UNL     1       2.915   7.219  19.284  0.00  0.00    +0.000 N 
ATOM      2  H   UNL     1       3.152   7.080  20.265  0.00  0.00    +0.000 HD
ENDROOT
BRANCH   1   3
ATOM      3  C   UNL     1       2.985   5.954  18.608  0.00  0.00    +0.000 A 
ATOM      4  C   UNL     1       2.335   4.729  19.013  0.00  0.00    +0.000 A 
ATOM      5  C   UNL     1       1.741   4.394  20.249  0.00  0.00    +0.000 A 
ATOM      6  C   UNL     1       0.982   3.233  20.436  0.00  0.00    +0.000 A 
ATOM      7  C   UNL     1       0.853   2.337  19.388  0.00  0.00    +0.000 A 
ATOM      8  C   UNL     1       1.605   2.543  18.240  0.00  0.00    +0.000 A 
ATOM      9  C   UNL     1       2.428   3.654  18.116  0.00  0.00    +0.000 A 
ATOM     10  N   UNL     1       3.442   3.577  17.261  0.00  0.00    +0.000 NA
ATOM     11  C   UNL     1       4.318   4.581  17.304  0.00  0.00    +0.000 A 
ATOM     12  C   UNL     1       5.649   4.359  17.618  0.00  0.00    +0.000 A 
ATOM     13  C   UNL     1       6.542   5.426  17.747  0.00  0.00    +0.000 A 
ATOM     14  C   UNL     1       6.134   6.688  17.335  0.00  0.00    +0.000 A 
ATOM     15  C   UNL     1       4.779   6.905  17.134  0.00  0.00    +0.000 A 
ATOM     16  C   UNL     1       3.912   5.872  17.530  0.00  0.00    +0.000 A 
ENDBRANCH   1   3
BRANCH   1  20
ATOM     17  C   UNL     1      -0.106  10.119  18.830  0.00  0.00    +0.000 A 
ATOM     18  C   UNL     1       0.161   9.574  20.085  0.00  0.00    +0.000 A 
ATOM     19  C   UNL     1       1.214   8.668  20.246  0.00  0.00    +0.000 A 
ATOM     20  C   UNL     1       2.030   8.317  19.158  0.00  0.00    +0.000 A 
ATOM     21  C   UNL     1       1.881   9.026  17.975  0.00  0.00    +0.000 A 
ATOM     22  C   UNL     1       0.771   9.855  17.783  0.00  0.00    +0.000 A 
BRANCH  17  23
ATOM     23  O   UNL     1      -1.182  10.899  18.503  0.00  0.00    +0.000 OA
BRANCH  23  24
ATOM     24  C   UNL     1      -2.394  10.205  18.197  0.00  0.00    +0.000 C 
BRANCH  24  25
ATOM     25  C   UNL     1      -2.407   9.886  16.708  0.00  0.00    +0.000 C 
BRANCH  25  27
ATOM     26  O   UNL     1      -3.312  10.975  14.737  0.00  0.00    +0.000 OA
ATOM     27  C   UNL     1      -3.152  10.944  15.953  0.00  0.00    +0.000 C 
BRANCH  27  28
ATOM     28  O   UNL     1      -3.652  11.918  16.756  0.00  0.00    +0.000 OA
ATOM     29  H   UNL     1      -3.395  11.811  17.699  0.00  0.00    +0.000 HD
ENDBRANCH  27  28
ENDBRANCH  25  27
ENDBRANCH  24  25
ENDBRANCH  23  24
ENDBRANCH  17  23
ENDBRANCH   1  20
TORSDOF 7
ENDMDL
MODEL 8
REMARK VINA RESULT:      -8.6      1.897      2.477
REMARK  Name = 
REMARK  7 active torsions:
REMARK  status: ('A' for Active; 'I' for Inactive)
REMARK    1  A    between atoms: C_2  and  O_3
REMARK    2  A    between atoms: C_2  and  C_4
REMARK    3  A    between atoms: C_4  and  C_5
REMARK    4  A    between atoms: C_5  and  O_6
REMARK    5  A    between atoms: O_6  and  C_7
REMARK    6  A    between atoms: C_10  and  N_11
REMARK    7  A    between atoms: N_11  and  C_12
REMARK                            x       y       z     vdW  Elec       q    Type
REMARK                         _______ _______ _______ _____ _____    ______ ____
ROOT
ATOM      1  N   UNL     1       2.577   6.758  18.003  0.00  0.00    +0.000 N 
ATOM      2  H   UNL     1       2.643   6.850  16.992  0.00  0.00    +0.000 HD
ENDROOT
BRANCH   1   3
ATOM      3  C   UNL     1       3.619   5.880  18.457  0.00  0.00    +0.000 A 
ATOM      4  C   UNL     1       5.038   6.054  18.247  0.00  0.00    +0.000 A 
ATOM      5  C   UNL     1       5.714   6.913  17.353  0.00  0.00    +0.000 A 
ATOM      6  C   UNL     1       7.099   7.109  17.392  0.00  0.00    +0.000 A 
ATOM      7  C   UNL     1       7.856   6.388  18.301  0.00  0.00    +0.000 A 
ATOM      8  C   UNL     1       7.238   5.386  19.035  0.00  0.00    +0.000 A 
ATOM      9  C   UNL     1       5.878   5.144  18.907  0.00  0.00    +0.000 A 
ATOM     10  N   UNL     1       5.432   3.937  19.239  0.00  0.00    +0.000 NA
ATOM     11  C   UNL     1       4.162   3.679  18.928  0.00  0.00    +0.000 A 
ATOM     12  C   UNL     1       3.831   2.652  18.059  0.00  0.00    +0.000 A 
ATOM     13  C   UNL     1       2.505   2.444  17.669  0.00  0.00    +0.000 A 
ATOM     14  C   UNL     1       1.500   3.129  18.338  0.00  0.00    +0.000 A 
ATOM     15  C   UNL     1       1.858   4.220  19.116  0.00  0.00    +0.000 A 
ATOM     16  C   UNL     1       3.193   4.646  19.025  0.00  0.00    +0.000 A 
ENDBRANCH   1   3
BRANCH   1  20
ATOM     17  C   UNL     1       0.451  10.004  19.641  0.00  0.00    +0.000 A 
ATOM     18  C   UNL     1       0.990   9.026  20.475  0.00  0.00    +0.000 A 
ATOM     19  C   UNL     1       1.759   7.990  19.935  0.00  0.00    +0.000 A 
ATOM     20  C   UNL     1       2.021   7.937  18.555  0.00  0.00    +0.000 A 
ATOM     21  C   UNL     1       1.655   9.027  17.779  0.00  0.00    +0.000 A 
ATOM     22  C   UNL     1       0.804  10.009  18.296  0.00  0.00    +0.000 A 
BRANCH  17  23
ATOM     23  O   UNL     1      -0.430  10.984  20.013  0.00  0.00    +0.000 OA
BRANCH  23  24
ATOM     24  C   UNL     1       0.148  12.207  20.478  0.00  0.00    +0.000 C 
BRANCH  24  25
ATOM     25  C   UNL     1      -0.787  13.353  20.113  0.00  0.00    +0.000 C 
BRANCH  25  27
ATOM     26  O   UNL     1       0.132  14.948  18.531  0.00  0.00    +0.000 OA
ATOM     27  C   UNL     1      -0.448  13.890  18.756  0.00  0.00    +0.000 C 
BRANCH  27  28
ATOM     28  O   UNL     1      -0.864  13.084  17.746  0.00  0.00    +0.000 OA
ATOM     29  H   UNL     1      -0.793  12.127  17.961  0.00  0.00    +0.000 HD
ENDBRANCH  27  28
ENDBRANCH  25  27
ENDBRANCH  24  25
ENDBRANCH  23  24
ENDBRANCH  17  23
ENDBRANCH   1  20
TORSDOF 7
ENDMDL
MODEL 9
REMARK VINA RESULT:      -8.6      0.486      1.041
REMARK  Name = 
REMARK  7 active torsions:
REMARK  status: ('A' for Active; 'I' for Inactive)
REMARK    1  A    between atoms: C_2  and  O_3
REMARK    2  A    between atoms: C_2  and  C_4
REMARK    3  A    between atoms: C_4  and  C_5
REMARK    4  A    between atoms: C_5  and  O_6
REMARK    5  A    between atoms: O_6  and  C_7
REMARK    6  A    between atoms: C_10  and  N_11
REMARK    7  A    between atoms: N_11  and  C_12
REMARK                            x       y       z     vdW  Elec       q    Type
REMARK                         _______ _______ _______ _____ _____    ______ ____
ROOT
ATOM      1  N   UNL     1       3.257   6.315  19.851  0.00  0.00    +0.000 N 
ATOM      2  H   UNL     1       3.077   6.022  20.809  0.00  0.00    +0.000 HD
ENDROOT
BRANCH   1   3
ATOM      3  C   UNL     1       3.587   5.157  19.067  0.00  0.00    +0.000 A 
ATOM      4  C   UNL     1       4.234   5.154  17.776  0.00  0.00    +0.000 A 
ATOM      5  C   UNL     1       4.436   6.218  16.870  0.00  0.00    +0.000 A 
ATOM      6  C   UNL     1       5.247   6.103  15.735  0.00  0.00    +0.000 A 
ATOM      7  C   UNL     1       5.832   4.882  15.445  0.00  0.00    +0.000 A 
ATOM      8  C   UNL     1       5.472   3.775  16.202  0.00  0.00    +0.000 A 
ATOM      9  C   UNL     1       4.587   3.896  17.265  0.00  0.00    +0.000 A 
ATOM     10  N   UNL     1       3.926   2.807  17.642  0.00  0.00    +0.000 NA
ATOM     11  C   UNL     1       2.954   2.996  18.534  0.00  0.00    +0.000 A 
ATOM     12  C   UNL     1       1.638   2.682  18.236  0.00  0.00    +0.000 A 
ATOM     13  C   UNL     1       0.611   2.964  19.142  0.00  0.00    +0.000 A 
ATOM     14  C   UNL     1       0.951   3.350  20.432  0.00  0.00    +0.000 A 
ATOM     15  C   UNL     1       2.254   3.762  20.670  0.00  0.00    +0.000 A 
ATOM     16  C   UNL     1       3.080   3.915  19.544  0.00  0.00    +0.000 A 
ENDBRANCH   1   3
BRANCH   1  20
ATOM     17  C   UNL     1       0.596   9.441  18.908  0.00  0.00    +0.000 A 
ATOM     18  C   UNL     1       0.722   9.000  20.225  0.00  0.00    +0.000 A 
ATOM     19  C   UNL     1       1.660   8.014  20.547  0.00  0.00    +0.000 A 
ATOM     20  C   UNL     1       2.503   7.477  19.558  0.00  0.00    +0.000 A 
ATOM     21  C   UNL     1       2.506   8.076  18.307  0.00  0.00    +0.000 A 
ATOM     22  C   UNL     1       1.504   8.988  17.958  0.00  0.00    +0.000 A 
BRANCH  17  23
ATOM     23  O   UNL     1      -0.368  10.288  18.431  0.00  0.00    +0.000 OA
BRANCH  23  24
ATOM     24  C   UNL     1      -0.837  11.286  19.342  0.00  0.00    +0.000 C 
BRANCH  24  25
ATOM     25  C   UNL     1      -1.738  12.251  18.581  0.00  0.00    +0.000 C 
BRANCH  25  27
ATOM     26  O   UNL     1      -3.600  10.873  17.858  0.00  0.00    +0.000 OA
ATOM     27  C   UNL     1      -2.583  11.507  17.594  0.00  0.00    +0.000 C 
BRANCH  27  28
ATOM     28  O   UNL     1      -2.109  11.583  16.324  0.00  0.00    +0.000 OA
ATOM     29  H   UNL     1      -2.816  11.723  15.655  0.00  0.00    +0.000 HD
ENDBRANCH  27  28
ENDBRANCH  25  27
ENDBRANCH  24  25
ENDBRANCH  23  24
ENDBRANCH  17  23
ENDBRANCH   1  20
TORSDOF 7
ENDMDL
