MODEL 1
REMARK VINA RESULT:      -8.3      0.000      0.000
REMARK  Name = 
REMARK  7 active torsions:
REMARK  status: ('A' for Active; 'I' for Inactive)
REMARK    1  A    between atoms: C_1  and  C_2
REMARK    2  A    between atoms: C_5  and  C_6
REMARK    3  A    between atoms: N_8  and  C_9
REMARK    4  A    between atoms: N_16  and  S_17
REMARK    5  A    between atoms: S_17  and  C_20
REMARK    6  A    between atoms: C_20  and  C_21
REMARK    7  A    between atoms: C_20  and  C_22
REMARK                            x       y       z     vdW  Elec       q    Type
REMARK                         _______ _______ _______ _____ _____    ______ ____
ROOT
ATOM      1  C   UNL     1       2.334   6.175  19.086  0.00  0.00    +0.000 A 
ATOM      2  C   UNL     1       1.757   4.900  19.118  0.00  0.00    +0.000 A 
ATOM      3  C   UNL     1       2.317   3.819  18.425  0.00  0.00    +0.000 A 
ATOM      4  C   UNL     1       3.477   4.026  17.674  0.00  0.00    +0.000 A 
ATOM      5  N   UNL     1       4.213   3.108  16.973  0.00  0.00    +0.000 NA
ATOM      6  C   UNL     1       5.249   3.765  16.513  0.00  0.00    +0.000 A 
ATOM      7  N   UNL     1       6.267   3.162  15.860  0.00  0.00    +0.000 N 
ATOM      8  N   UNL     1       5.120   5.111  16.768  0.00  0.00    +0.000 N 
ATOM      9  C   UNL     1       4.029   5.303  17.596  0.00  0.00    +0.000 A 
ATOM     10  C   UNL     1       3.470   6.403  18.286  0.00  0.00    +0.000 A 
ATOM     11  H   UNL     1       6.132   2.150  15.829  0.00  0.00    +0.000 HD
ATOM     12  H   UNL     1       7.211   3.334  16.204  0.00  0.00    +0.000 HD
ENDROOT
BRANCH   1  15
ATOM     13  C   UNL     1       1.461   8.494  19.343  0.00  0.00    +0.000 C 
ATOM     14  O   UNL     1       1.508   8.834  18.165  0.00  0.00    +0.000 OA
ATOM     15  N   UNL     1       1.827   7.257  19.855  0.00  0.00    +0.000 N 
ATOM     16  H   UNL     1       1.567   7.051  20.812  0.00  0.00    +0.000 HD
BRANCH  13  21
ATOM     17  C   UNL     1      -1.120  12.120  23.049  0.00  0.00    +0.000 C 
ATOM     18  C   UNL     1      -0.409  11.200  22.099  0.00  0.00    +0.000 A 
ATOM     19  C   UNL     1      -0.311   9.834  22.378  0.00  0.00    +0.000 A 
ATOM     20  C   UNL     1       0.325   8.980  21.478  0.00  0.00    +0.000 A 
ATOM     21  C   UNL     1       0.886   9.480  20.293  0.00  0.00    +0.000 A 
ATOM     22  C   UNL     1       0.797  10.845  20.007  0.00  0.00    +0.000 A 
ATOM     23  C   UNL     1       0.151  11.699  20.912  0.00  0.00    +0.000 A 
ENDBRANCH  13  21
ENDBRANCH   1  15
BRANCH   8  24
ATOM     24  S   UNL     1       6.280   6.283  16.427  0.00  0.00    +0.000 S 
ATOM     25  O   UNL     1       7.342   5.572  15.735  0.00  0.00    +0.000 OA
ATOM     26  O   UNL     1       5.521   7.321  15.750  0.00  0.00    +0.000 OA
BRANCH  24  27
ATOM     27  C   UNL     1       6.982   6.999  17.912  0.00  0.00    +0.000 C 
ATOM     28  C   UNL     1       7.766   5.985  18.734  0.00  0.00    +0.000 C 
ATOM     29  C   UNL     1       7.870   8.189  17.546  0.00  0.00    +0.000 C 
ENDBRANCH  24  27
ENDBRANCH   8  24
TORSDOF 4
ENDMDL
MODEL 2
REMARK VINA RESULT:      -8.2      2.327      2.910
REMARK  Name = 
REMARK  7 active torsions:
REMARK  status: ('A' for Active; 'I' for Inactive)
REMARK    1  A    between atoms: C_1  and  C_2
REMARK    2  A    between atoms: C_5  and  C_6
REMARK    3  A    between atoms: N_8  and  C_9
REMARK    4  A    between atoms: N_16  and  S_17
REMARK    5  A    between atoms: S_17  and  C_20
REMARK    6  A    between atoms: C_20  and  C_21
REMARK    7  A    between atoms: C_20  and  C_22
REMARK                            x       y       z     vdW  Elec       q    Type
REMARK                         _______ _______ _______ _____ _____    ______ ____
ROOT
ATOM      1  C   UNL     1       2.014   7.165  19.848  0.00  0.00    +0.000 A 
ATOM      2  C   UNL     1       1.165   6.310  20.559  0.00  0.00    +0.000 A 
ATOM      3  C   UNL     1       1.461   4.952  20.733  0.00  0.00    +0.000 A 
ATOM      4  C   UNL     1       2.633   4.439  20.170  0.00  0.00    +0.000 A 
ATOM      5  N   UNL     1       3.138   3.168  20.264  0.00  0.00    +0.000 NA
ATOM      6  C   UNL     1       4.291   3.202  19.644  0.00  0.00    +0.000 A 
ATOM      7  N   UNL     1       5.143   2.153  19.625  0.00  0.00    +0.000 N 
ATOM      8  N   UNL     1       4.471   4.417  19.023  0.00  0.00    +0.000 N 
ATOM      9  C   UNL     1       3.458   5.272  19.418  0.00  0.00    +0.000 A 
ATOM     10  C   UNL     1       3.167   6.642  19.230  0.00  0.00    +0.000 A 
ATOM     11  H   UNL     1       4.782   1.381  20.188  0.00  0.00    +0.000 HD
ATOM     12  H   UNL     1       6.104   2.324  19.918  0.00  0.00    +0.000 HD
ENDROOT
BRANCH   1  15
ATOM     13  C   UNL     1       1.703   9.267  18.548  0.00  0.00    +0.000 C 
ATOM     14  O   UNL     1       1.832   8.800  17.421  0.00  0.00    +0.000 OA
ATOM     15  N   UNL     1       1.770   8.561  19.741  0.00  0.00    +0.000 N 
ATOM     16  H   UNL     1       1.467   9.035  20.583  0.00  0.00    +0.000 HD
BRANCH  13  21
ATOM     17  C   UNL     1       0.078  14.825  18.647  0.00  0.00    +0.000 C 
ATOM     18  C   UNL     1       0.530  13.393  18.657  0.00  0.00    +0.000 A 
ATOM     19  C   UNL     1      -0.337  12.382  19.080  0.00  0.00    +0.000 A 
ATOM     20  C   UNL     1       0.079  11.051  19.059  0.00  0.00    +0.000 A 
ATOM     21  C   UNL     1       1.370  10.712  18.631  0.00  0.00    +0.000 A 
ATOM     22  C   UNL     1       2.246  11.717  18.211  0.00  0.00    +0.000 A 
ATOM     23  C   UNL     1       1.822  13.053  18.227  0.00  0.00    +0.000 A 
ENDBRANCH  13  21
ENDBRANCH   1  15
BRANCH   8  24
ATOM     24  S   UNL     1       5.864   4.898  18.206  0.00  0.00    +0.000 S 
ATOM     25  O   UNL     1       6.900   4.947  19.225  0.00  0.00    +0.000 OA
ATOM     26  O   UNL     1       5.952   3.953  17.107  0.00  0.00    +0.000 OA
BRANCH  24  27
ATOM     27  C   UNL     1       5.710   6.540  17.507  0.00  0.00    +0.000 C 
ATOM     28  C   UNL     1       7.043   7.274  17.442  0.00  0.00    +0.000 C 
ATOM     29  C   UNL     1       5.081   6.455  16.114  0.00  0.00    +0.000 C 
ENDBRANCH  24  27
ENDBRANCH   8  24
TORSDOF 4
ENDMDL
MODEL 3
REMARK VINA RESULT:      -8.1      0.974      1.258
REMARK  Name = 
REMARK  7 active torsions:
REMARK  status: ('A' for Active; 'I' for Inactive)
REMARK    1  A    between atoms: C_1  and  C_2
REMARK    2  A    between atoms: C_5  and  C_6
REMARK    3  A    between atoms: N_8  and  C_9
REMARK    4  A    between atoms: N_16  and  S_17
REMARK    5  A    between atoms: S_17  and  C_20
REMARK    6  A    between atoms: C_20  and  C_21
REMARK    7  A    between atoms: C_20  and  C_22
REMARK                            x       y       z     vdW  Elec       q    Type
REMARK                         _______ _______ _______ _____ _____    ______ ____
ROOT
ATOM      1  C   UNL     1       2.024   6.437  20.089  0.00  0.00    +0.000 A 
ATOM      2  C   UNL     1       1.650   5.128  20.414  0.00  0.00    +0.000 A 
ATOM      3  C   UNL     1       2.242   4.017  19.800  0.00  0.00    +0.000 A 
ATOM      4  C   UNL     1       3.226   4.227  18.830  0.00  0.00    +0.000 A 
ATOM      5  N   UNL     1       3.967   3.294  18.152  0.00  0.00    +0.000 NA
ATOM      6  C   UNL     1       4.810   3.979  17.420  0.00  0.00    +0.000 A 
ATOM      7  N   UNL     1       5.787   3.397  16.692  0.00  0.00    +0.000 N 
ATOM      8  N   UNL     1       4.529   5.325  17.491  0.00  0.00    +0.000 N 
ATOM      9  C   UNL     1       3.568   5.526  18.465  0.00  0.00    +0.000 A 
ATOM     10  C   UNL     1       2.973   6.656  19.072  0.00  0.00    +0.000 A 
ATOM     11  H   UNL     1       5.797   2.385  16.837  0.00  0.00    +0.000 HD
ATOM     12  H   UNL     1       6.739   3.734  16.830  0.00  0.00    +0.000 HD
ENDROOT
BRANCH   1  15
ATOM     13  C   UNL     1       1.175   8.778  20.166  0.00  0.00    +0.000 C 
ATOM     14  O   UNL     1       1.288   9.048  18.976  0.00  0.00    +0.000 OA
ATOM     15  N   UNL     1       1.495   7.569  20.768  0.00  0.00    +0.000 N 
ATOM     16  H   UNL     1       1.183   7.422  21.720  0.00  0.00    +0.000 HD
BRANCH  13  21
ATOM     17  C   UNL     1      -1.548  12.665  23.487  0.00  0.00    +0.000 C 
ATOM     18  C   UNL     1      -0.800  11.675  22.641  0.00  0.00    +0.000 A 
ATOM     19  C   UNL     1      -0.833  10.312  22.952  0.00  0.00    +0.000 A 
ATOM     20  C   UNL     1      -0.161   9.394  22.146  0.00  0.00    +0.000 A 
ATOM     21  C   UNL     1       0.567   9.825  21.027  0.00  0.00    +0.000 A 
ATOM     22  C   UNL     1       0.610  11.185  20.711  0.00  0.00    +0.000 A 
ATOM     23  C   UNL     1      -0.073  12.104  21.520  0.00  0.00    +0.000 A 
ENDBRANCH  13  21
ENDBRANCH   1  15
BRANCH   8  24
ATOM     24  S   UNL     1       5.439   6.548  16.776  0.00  0.00    +0.000 S 
ATOM     25  O   UNL     1       5.516   6.188  15.370  0.00  0.00    +0.000 OA
ATOM     26  O   UNL     1       4.757   7.762  17.192  0.00  0.00    +0.000 OA
BRANCH  24  27
ATOM     27  C   UNL     1       7.112   6.614  17.414  0.00  0.00    +0.000 C 
ATOM     28  C   UNL     1       7.653   8.036  17.487  0.00  0.00    +0.000 C 
ATOM     29  C   UNL     1       7.169   5.951  18.792  0.00  0.00    +0.000 C 
ENDBRANCH  24  27
ENDBRANCH   8  24
TORSDOF 4
ENDMDL
MODEL 4
REMARK VINA RESULT:      -7.9      2.499      3.785
REMARK  Name = 
REMARK  7 active torsions:
REMARK  status: ('A' for Active; 'I' for Inactive)
REMARK    1  A    between atoms: C_1  and  C_2
REMARK    2  A    between atoms: C_5  and  C_6
REMARK    3  A    between atoms: N_8  and  C_9
REMARK    4  A    between atoms: N_16  and  S_17
REMARK    5  A    between atoms: S_17  and  C_20
REMARK    6  A    between atoms: C_20  and  C_21
REMARK    7  A    between atoms: C_20  and  C_22
REMARK                            x       y       z     vdW  Elec       q    Type
REMARK                         _______ _______ _______ _____ _____    ______ ____
ROOT
ATOM      1  C   UNL     1       2.613   7.477  19.010  0.00  0.00    +0.000 A 
ATOM      2  C   UNL     1       3.199   8.064  17.882  0.00  0.00    +0.000 A 
ATOM      3  C   UNL     1       3.964   7.319  16.975  0.00  0.00    +0.000 A 
ATOM      4  C   UNL     1       4.153   5.955  17.213  0.00  0.00    +0.000 A 
ATOM      5  N   UNL     1       4.811   5.038  16.435  0.00  0.00    +0.000 NA
ATOM      6  C   UNL     1       4.642   3.885  17.033  0.00  0.00    +0.000 A 
ATOM      7  N   UNL     1       5.056   2.716  16.497  0.00  0.00    +0.000 N 
ATOM      8  N   UNL     1       4.027   4.057  18.252  0.00  0.00    +0.000 N 
ATOM      9  C   UNL     1       3.616   5.373  18.359  0.00  0.00    +0.000 A 
ATOM     10  C   UNL     1       2.848   6.116  19.284  0.00  0.00    +0.000 A 
ATOM     11  H   UNL     1       5.459   2.861  15.569  0.00  0.00    +0.000 HD
ATOM     12  H   UNL     1       4.370   1.967  16.419  0.00  0.00    +0.000 HD
ENDROOT
BRANCH   1  15
ATOM     13  C   UNL     1       1.041   9.335  19.540  0.00  0.00    +0.000 C 
ATOM     14  O   UNL     1       1.018   9.871  18.437  0.00  0.00    +0.000 OA
ATOM     15  N   UNL     1       1.763   8.202  19.888  0.00  0.00    +0.000 N 
ATOM     16  H   UNL     1       1.549   7.764  20.776  0.00  0.00    +0.000 HD
BRANCH  13  21
ATOM     17  C   UNL     1      -2.243  11.964  23.522  0.00  0.00    +0.000 C 
ATOM     18  C   UNL     1      -1.422  11.245  22.490  0.00  0.00    +0.000 A 
ATOM     19  C   UNL     1      -1.344  11.735  21.183  0.00  0.00    +0.000 A 
ATOM     20  C   UNL     1      -0.557  11.080  20.236  0.00  0.00    +0.000 A 
ATOM     21  C   UNL     1       0.151   9.918  20.576  0.00  0.00    +0.000 A 
ATOM     22  C   UNL     1       0.075   9.418  21.879  0.00  0.00    +0.000 A 
ATOM     23  C   UNL     1      -0.712  10.083  22.829  0.00  0.00    +0.000 A 
ENDBRANCH  13  21
ENDBRANCH   1  15
BRANCH   8  24
ATOM     24  S   UNL     1       3.543   2.817  19.283  0.00  0.00    +0.000 S 
ATOM     25  O   UNL     1       3.065   1.762  18.405  0.00  0.00    +0.000 OA
ATOM     26  O   UNL     1       4.707   2.607  20.127  0.00  0.00    +0.000 OA
BRANCH  24  27
ATOM     27  C   UNL     1       2.181   3.304  20.341  0.00  0.00    +0.000 C 
ATOM     28  C   UNL     1       0.825   2.955  19.743  0.00  0.00    +0.000 C 
ATOM     29  C   UNL     1       2.337   2.659  21.720  0.00  0.00    +0.000 C 
ENDBRANCH  24  27
ENDBRANCH   8  24
TORSDOF 4
ENDMDL
MODEL 5
REMARK VINA RESULT:      -7.7      0.781      1.396
REMARK  Name = 
REMARK  7 active torsions:
REMARK  status: ('A' for Active; 'I' for Inactive)
REMARK    1  A    between atoms: C_1  and  C_2
REMARK    2  A    between atoms: C_5  and  C_6
REMARK    3  A    between atoms: N_8  and  C_9
REMARK    4  A    between atoms: N_16  and  S_17
REMARK    5  A    between atoms: S_17  and  C_20
REMARK    6  A    between atoms: C_20  and  C_21
REMARK    7  A    between atoms: C_20  and  C_22
REMARK                            x       y       z     vdW  Elec       q    Type
REMARK                         _______ _______ _______ _____ _____    ______ ____
ROOT
ATOM      1  C   UNL     1       2.042   6.009  19.736  0.00  0.00    +0.000 A 
ATOM      2  C   UNL     1       1.718   4.661  19.924  0.00  0.00    +0.000 A 
ATOM      3  C   UNL     1       2.406   3.636  19.261  0.00  0.00    +0.000 A 
ATOM      4  C   UNL     1       3.437   3.975  18.380  0.00  0.00    +0.000 A 
ATOM      5  N   UNL     1       4.267   3.141  17.679  0.00  0.00    +0.000 NA
ATOM      6  C   UNL     1       5.117   3.926  17.065  0.00  0.00    +0.000 A 
ATOM      7  N   UNL     1       6.169   3.456  16.358  0.00  0.00    +0.000 N 
ATOM      8  N   UNL     1       4.762   5.246  17.229  0.00  0.00    +0.000 N 
ATOM      9  C   UNL     1       3.732   5.317  18.149  0.00  0.00    +0.000 A 
ATOM     10  C   UNL     1       3.041   6.359  18.806  0.00  0.00    +0.000 A 
ATOM     11  H   UNL     1       6.223   2.437  16.419  0.00  0.00    +0.000 HD
ATOM     12  H   UNL     1       7.090   3.825  16.588  0.00  0.00    +0.000 HD
ENDROOT
BRANCH   1  15
ATOM     13  C   UNL     1       1.272   8.360  20.029  0.00  0.00    +0.000 C 
ATOM     14  O   UNL     1       1.656   8.809  18.954  0.00  0.00    +0.000 OA
ATOM     15  N   UNL     1       1.412   7.051  20.468  0.00  0.00    +0.000 N 
ATOM     16  H   UNL     1       0.892   6.776  21.293  0.00  0.00    +0.000 HD
BRANCH  13  21
ATOM     17  C   UNL     1      -1.406  12.303  23.319  0.00  0.00    +0.000 C 
ATOM     18  C   UNL     1      -0.748  11.250  22.474  0.00  0.00    +0.000 A 
ATOM     19  C   UNL     1      -0.617  11.433  21.094  0.00  0.00    +0.000 A 
ATOM     20  C   UNL     1       0.021  10.465  20.319  0.00  0.00    +0.000 A 
ATOM     21  C   UNL     1       0.523   9.295  20.906  0.00  0.00    +0.000 A 
ATOM     22  C   UNL     1       0.392   9.101  22.284  0.00  0.00    +0.000 A 
ATOM     23  C   UNL     1      -0.244  10.079  23.061  0.00  0.00    +0.000 A 
ENDBRANCH  13  21
ENDBRANCH   1  15
BRANCH   8  24
ATOM     24  S   UNL     1       5.649   6.568  16.681  0.00  0.00    +0.000 S 
ATOM     25  O   UNL     1       5.826   6.340  15.256  0.00  0.00    +0.000 OA
ATOM     26  O   UNL     1       4.884   7.707  17.158  0.00  0.00    +0.000 OA
BRANCH  24  27
ATOM     27  C   UNL     1       7.277   6.652  17.425  0.00  0.00    +0.000 C 
ATOM     28  C   UNL     1       7.790   8.080  17.547  0.00  0.00    +0.000 C 
ATOM     29  C   UNL     1       7.257   5.974  18.796  0.00  0.00    +0.000 C 
ENDBRANCH  24  27
ENDBRANCH   8  24
TORSDOF 4
ENDMDL
MODEL 6
REMARK VINA RESULT:      -7.7      2.588      3.846
REMARK  Name = 
REMARK  7 active torsions:
REMARK  status: ('A' for Active; 'I' for Inactive)
REMARK    1  A    between atoms: C_1  and  C_2
REMARK    2  A    between atoms: C_5  and  C_6
REMARK    3  A    between atoms: N_8  and  C_9
REMARK    4  A    between atoms: N_16  and  S_17
REMARK    5  A    between atoms: S_17  and  C_20
REMARK    6  A    between atoms: C_20  and  C_21
REMARK    7  A    between atoms: C_20  and  C_22
REMARK                            x       y       z     vdW  Elec       q    Type
REMARK                         _______ _______ _______ _____ _____    ______ ____
ROOT
ATOM      1  C   UNL     1       2.638   7.417  19.014  0.00  0.00    +0.000 A 
ATOM      2  C   UNL     1       3.270   7.881  17.854  0.00  0.00    +0.000 A 
ATOM      3  C   UNL     1       3.963   7.019  16.995  0.00  0.00    +0.000 A 
ATOM      4  C   UNL     1       4.032   5.660  17.314  0.00  0.00    +0.000 A 
ATOM      5  N   UNL     1       4.603   4.644  16.594  0.00  0.00    +0.000 NA
ATOM      6  C   UNL     1       4.335   3.548  17.259  0.00  0.00    +0.000 A 
ATOM      7  N   UNL     1       4.642   2.317  16.796  0.00  0.00    +0.000 N 
ATOM      8  N   UNL     1       3.741   3.847  18.465  0.00  0.00    +0.000 N 
ATOM      9  C   UNL     1       3.448   5.198  18.492  0.00  0.00    +0.000 A 
ATOM     10  C   UNL     1       2.752   6.060  19.370  0.00  0.00    +0.000 A 
ATOM     11  H   UNL     1       5.053   2.370  15.862  0.00  0.00    +0.000 HD
ATOM     12  H   UNL     1       3.891   1.628  16.761  0.00  0.00    +0.000 HD
ENDROOT
BRANCH   1  15
ATOM     13  C   UNL     1       1.061   9.308  19.393  0.00  0.00    +0.000 C 
ATOM     14  O   UNL     1       0.901   9.645  18.224  0.00  0.00    +0.000 OA
ATOM     15  N   UNL     1       1.858   8.266  19.845  0.00  0.00    +0.000 N 
ATOM     16  H   UNL     1       1.756   7.984  20.813  0.00  0.00    +0.000 HD
BRANCH  13  21
ATOM     17  C   UNL     1      -2.245  11.828  23.426  0.00  0.00    +0.000 C 
ATOM     18  C   UNL     1      -1.359  11.213  22.381  0.00  0.00    +0.000 A 
ATOM     19  C   UNL     1      -0.597  10.079  22.679  0.00  0.00    +0.000 A 
ATOM     20  C   UNL     1       0.201   9.495  21.697  0.00  0.00    +0.000 A 
ATOM     21  C   UNL     1       0.264  10.043  20.407  0.00  0.00    +0.000 A 
ATOM     22  C   UNL     1      -0.490  11.179  20.101  0.00  0.00    +0.000 A 
ATOM     23  C   UNL     1      -1.297  11.760  21.090  0.00  0.00    +0.000 A 
ENDBRANCH  13  21
ENDBRANCH   1  15
BRANCH   8  24
ATOM     24  S   UNL     1       3.152   2.718  19.567  0.00  0.00    +0.000 S 
ATOM     25  O   UNL     1       2.701   1.599  18.756  0.00  0.00    +0.000 OA
ATOM     26  O   UNL     1       4.251   2.558  20.504  0.00  0.00    +0.000 OA
BRANCH  24  27
ATOM     27  C   UNL     1       1.738   3.332  20.481  0.00  0.00    +0.000 C 
ATOM     28  C   UNL     1       0.430   3.151  19.724  0.00  0.00    +0.000 C 
ATOM     29  C   UNL     1       1.663   2.645  21.846  0.00  0.00    +0.000 C 
ENDBRANCH  24  27
ENDBRANCH   8  24
TORSDOF 4
ENDMDL
MODEL 7
REMARK VINA RESULT:      -7.7      2.154      2.918
REMARK  Name = 
REMARK  7 active torsions:
REMARK  status: ('A' for Active; 'I' for Inactive)
REMARK    1  A    between atoms: C_1  and  C_2
REMARK    2  A    between atoms: C_5  and  C_6
REMARK    3  A    between atoms: N_8  and  C_9
REMARK    4  A    between atoms: N_16  and  S_17
REMARK    5  A    between atoms: S_17  and  C_20
REMARK    6  A    between atoms: C_20  and  C_21
REMARK    7  A    between atoms: C_20  and  C_22
REMARK                            x       y       z     vdW  Elec       q    Type
REMARK                         _______ _______ _______ _____ _____    ______ ____
ROOT
ATOM      1  C   UNL     1       2.045   7.043  19.782  0.00  0.00    +0.000 A 
ATOM      2  C   UNL     1       1.275   6.265  20.653  0.00  0.00    +0.000 A 
ATOM      3  C   UNL     1       1.580   4.922  20.910  0.00  0.00    +0.000 A 
ATOM      4  C   UNL     1       2.680   4.345  20.269  0.00  0.00    +0.000 A 
ATOM      5  N   UNL     1       3.185   3.080  20.418  0.00  0.00    +0.000 NA
ATOM      6  C   UNL     1       4.263   3.043  19.676  0.00  0.00    +0.000 A 
ATOM      7  N   UNL     1       5.101   1.983  19.655  0.00  0.00    +0.000 N 
ATOM      8  N   UNL     1       4.381   4.197  18.935  0.00  0.00    +0.000 N 
ATOM      9  C   UNL     1       3.422   5.098  19.363  0.00  0.00    +0.000 A 
ATOM     10  C   UNL     1       3.120   6.451  19.090  0.00  0.00    +0.000 A 
ATOM     11  H   UNL     1       4.801   1.267  20.319  0.00  0.00    +0.000 HD
ATOM     12  H   UNL     1       6.089   2.164  19.826  0.00  0.00    +0.000 HD
ENDROOT
BRANCH   1  15
ATOM     13  C   UNL     1       0.962   9.208  20.366  0.00  0.00    +0.000 C 
ATOM     14  O   UNL     1       0.324   8.832  21.343  0.00  0.00    +0.000 OA
ATOM     15  N   UNL     1       1.799   8.428  19.581  0.00  0.00    +0.000 N 
ATOM     16  H   UNL     1       2.401   8.905  18.921  0.00  0.00    +0.000 HD
BRANCH  13  21
ATOM     17  C   UNL     1       1.055  14.848  19.049  0.00  0.00    +0.000 C 
ATOM     18  C   UNL     1       0.983  13.386  19.385  0.00  0.00    +0.000 A 
ATOM     19  C   UNL     1       1.510  12.433  18.509  0.00  0.00    +0.000 A 
ATOM     20  C   UNL     1       1.467  11.079  18.840  0.00  0.00    +0.000 A 
ATOM     21  C   UNL     1       0.883  10.656  20.042  0.00  0.00    +0.000 A 
ATOM     22  C   UNL     1       0.349  11.601  20.923  0.00  0.00    +0.000 A 
ATOM     23  C   UNL     1       0.400  12.962  20.589  0.00  0.00    +0.000 A 
ENDBRANCH  13  21
ENDBRANCH   1  15
BRANCH   8  24
ATOM     24  S   UNL     1       5.678   4.585  17.934  0.00  0.00    +0.000 S 
ATOM     25  O   UNL     1       6.860   4.400  18.759  0.00  0.00    +0.000 OA
ATOM     26  O   UNL     1       5.457   3.755  16.762  0.00  0.00    +0.000 OA
BRANCH  24  27
ATOM     27  C   UNL     1       5.644   6.297  17.407  0.00  0.00    +0.000 C 
ATOM     28  C   UNL     1       7.001   6.975  17.538  0.00  0.00    +0.000 C 
ATOM     29  C   UNL     1       5.140   6.387  15.965  0.00  0.00    +0.000 C 
ENDBRANCH  24  27
ENDBRANCH   8  24
TORSDOF 4
ENDMDL
MODEL 8
REMARK VINA RESULT:      -7.7      2.661      3.884
REMARK  Name = 
REMARK  7 active torsions:
REMARK  status: ('A' for Active; 'I' for Inactive)
REMARK    1  A    between atoms: C_1  and  C_2
REMARK    2  A    between atoms: C_5  and  C_6
REMARK    3  A    between atoms: N_8  and  C_9
REMARK    4  A    between atoms: N_16  and  S_17
REMARK    5  A    between atoms: S_17  and  C_20
REMARK    6  A    between atoms: C_20  and  C_21
REMARK    7  A    between atoms: C_20  and  C_22
REMARK                            x       y       z     vdW  Elec       q    Type
REMARK                         _______ _______ _______ _____ _____    ______ ____
ROOT
ATOM      1  C   UNL     1       2.582   7.635  18.660  0.00  0.00    +0.000 A 
ATOM      2  C   UNL     1       3.388   8.157  17.643  0.00  0.00    +0.000 A 
ATOM      3  C   UNL     1       4.221   7.340  16.867  0.00  0.00    +0.000 A 
ATOM      4  C   UNL     1       4.251   5.967  17.127  0.00  0.00    +0.000 A 
ATOM      5  N   UNL     1       4.943   4.989  16.462  0.00  0.00    +0.000 NA
ATOM      6  C   UNL     1       4.582   3.861  17.021  0.00  0.00    +0.000 A 
ATOM      7  N   UNL     1       4.974   2.655  16.555  0.00  0.00    +0.000 N 
ATOM      8  N   UNL     1       3.797   4.099  18.127  0.00  0.00    +0.000 N 
ATOM      9  C   UNL     1       3.490   5.446  18.170  0.00  0.00    +0.000 A 
ATOM     10  C   UNL     1       2.651   6.262  18.964  0.00  0.00    +0.000 A 
ATOM     11  H   UNL     1       5.530   2.756  15.704  0.00  0.00    +0.000 HD
ATOM     12  H   UNL     1       4.246   1.967  16.365  0.00  0.00    +0.000 HD
ENDROOT
BRANCH   1  15
ATOM     13  C   UNL     1       1.272   8.201  20.702  0.00  0.00    +0.000 C 
ATOM     14  O   UNL     1       1.650   7.280  21.418  0.00  0.00    +0.000 OA
ATOM     15  N   UNL     1       1.668   8.439  19.393  0.00  0.00    +0.000 N 
ATOM     16  H   UNL     1       1.419   9.332  18.984  0.00  0.00    +0.000 HD
BRANCH  13  21
ATOM     17  C   UNL     1      -2.035  12.357  23.012  0.00  0.00    +0.000 C 
ATOM     18  C   UNL     1      -1.214  11.249  22.418  0.00  0.00    +0.000 A 
ATOM     19  C   UNL     1      -0.866  11.275  21.065  0.00  0.00    +0.000 A 
ATOM     20  C   UNL     1      -0.078  10.258  20.526  0.00  0.00    +0.000 A 
ATOM     21  C   UNL     1       0.359   9.192  21.326  0.00  0.00    +0.000 A 
ATOM     22  C   UNL     1       0.011   9.155  22.680  0.00  0.00    +0.000 A 
ATOM     23  C   UNL     1      -0.775  10.183  23.219  0.00  0.00    +0.000 A 
ENDBRANCH  13  21
ENDBRANCH   1  15
BRANCH   8  24
ATOM     24  S   UNL     1       3.049   2.916  19.063  0.00  0.00    +0.000 S 
ATOM     25  O   UNL     1       2.107   2.266  18.167  0.00  0.00    +0.000 OA
ATOM     26  O   UNL     1       4.166   2.176  19.625  0.00  0.00    +0.000 OA
BRANCH  24  27
ATOM     27  C   UNL     1       2.115   3.614  20.423  0.00  0.00    +0.000 C 
ATOM     28  C   UNL     1       0.615   3.606  20.164  0.00  0.00    +0.000 C 
ATOM     29  C   UNL     1       2.436   2.860  21.715  0.00  0.00    +0.000 C 
ENDBRANCH  24  27
ENDBRANCH   8  24
TORSDOF 4
ENDMDL
MODEL 9
REMARK VINA RESULT:      -7.7      2.471      3.212
REMARK  Name = 
REMARK  7 active torsions:
REMARK  status: ('A' for Active; 'I' for Inactive)
REMARK    1  A    between atoms: C_1  and  C_2
REMARK    2  A    between atoms: C_5  and  C_6
REMARK    3  A    between atoms: N_8  and  C_9
REMARK    4  A    between atoms: N_16  and  S_17
REMARK    5  A    between atoms: S_17  and  C_20
REMARK    6  A    between atoms: C_20  and  C_21
REMARK    7  A    between atoms: C_20  and  C_22
REMARK                            x       y       z     vdW  Elec       q    Type
REMARK                         _______ _______ _______ _____ _____    ______ ____
ROOT
ATOM      1  C   UNL     1       1.980   7.224  19.805  0.00  0.00    +0.000 A 
ATOM      2  C   UNL     1       1.153   6.369  20.542  0.00  0.00    +0.000 A 
ATOM      3  C   UNL     1       1.474   5.020  20.741  0.00  0.00    +0.000 A 
ATOM      4  C   UNL     1       2.649   4.516  20.177  0.00  0.00    +0.000 A 
ATOM      5  N   UNL     1       3.178   3.257  20.292  0.00  0.00    +0.000 NA
ATOM      6  C   UNL     1       4.325   3.298  19.660  0.00  0.00    +0.000 A 
ATOM      7  N   UNL     1       5.194   2.264  19.654  0.00  0.00    +0.000 N 
ATOM      8  N   UNL     1       4.477   4.503  19.012  0.00  0.00    +0.000 N 
ATOM      9  C   UNL     1       3.453   5.347  19.400  0.00  0.00    +0.000 A 
ATOM     10  C   UNL     1       3.136   6.708  19.187  0.00  0.00    +0.000 A 
ATOM     11  H   UNL     1       4.853   1.497  20.237  0.00  0.00    +0.000 HD
ATOM     12  H   UNL     1       6.154   2.457  19.935  0.00  0.00    +0.000 HD
ENDROOT
BRANCH   1  15
ATOM     13  C   UNL     1       1.702   9.309  18.471  0.00  0.00    +0.000 C 
ATOM     14  O   UNL     1       1.912   8.839  17.358  0.00  0.00    +0.000 OA
ATOM     15  N   UNL     1       1.710   8.613  19.672  0.00  0.00    +0.000 N 
ATOM     16  H   UNL     1       1.343   9.084  20.489  0.00  0.00    +0.000 HD
BRANCH  13  21
ATOM     17  C   UNL     1       0.589  14.978  18.891  0.00  0.00    +0.000 C 
ATOM     18  C   UNL     1       0.845  13.505  18.747  0.00  0.00    +0.000 A 
ATOM     19  C   UNL     1       2.064  13.045  18.240  0.00  0.00    +0.000 A 
ATOM     20  C   UNL     1       2.307  11.676  18.136  0.00  0.00    +0.000 A 
ATOM     21  C   UNL     1       1.331  10.746  18.522  0.00  0.00    +0.000 A 
ATOM     22  C   UNL     1       0.107  11.196  19.026  0.00  0.00    +0.000 A 
ATOM     23  C   UNL     1      -0.130  12.573  19.134  0.00  0.00    +0.000 A 
ENDBRANCH  13  21
ENDBRANCH   1  15
BRANCH   8  24
ATOM     24  S   UNL     1       5.853   4.990  18.173  0.00  0.00    +0.000 S 
ATOM     25  O   UNL     1       5.635   6.397  17.877  0.00  0.00    +0.000 OA
ATOM     26  O   UNL     1       6.941   4.577  19.041  0.00  0.00    +0.000 OA
BRANCH  24  27
ATOM     27  C   UNL     1       6.040   4.129  16.613  0.00  0.00    +0.000 C 
ATOM     28  C   UNL     1       4.745   4.083  15.813  0.00  0.00    +0.000 C 
ATOM     29  C   UNL     1       7.152   4.780  15.789  0.00  0.00    +0.000 C 
ENDBRANCH  24  27
ENDBRANCH   8  24
TORSDOF 4
ENDMDL
