MODEL 1
REMARK VINA RESULT:      -6.5      0.000      0.000
REMARK  Name = 
REMARK  6 active torsions:
REMARK  status: ('A' for Active; 'I' for Inactive)
REMARK    1  A    between atoms: C_1  and  C_2
REMARK    2  A    between atoms: C_9  and  C_10
REMARK    3  A    between atoms: C_10  and  N_11
REMARK    4  A    between atoms: N_11  and  C_12
REMARK    5  A    between atoms: N_11  and  S_13
REMARK    6  A    between atoms: S_13  and  C_16
REMARK                            x       y       z     vdW  Elec       q    Type
REMARK                         _______ _______ _______ _____ _____    ______ ____
ROOT
ATOM      1  C   UNL     1       2.701   7.380  17.954  0.00  0.00    +0.000 C 
ATOM      2  C   UNL     1       2.915   5.926  18.151  0.00  0.00    +0.000 A 
ATOM      3  N   UNL     1       1.822   5.077  18.143  0.00  0.00    +0.000 NA
ATOM      4  C   UNL     1       2.349   3.902  18.328  0.00  0.00    +0.000 A 
ATOM      5  S   UNL     1       1.719   2.288  18.440  0.00  0.00    +0.000 S 
ATOM      6  C   UNL     1       3.375   1.695  18.641  0.00  0.00    +0.000 A 
ATOM      7  C   UNL     1       4.291   2.681  18.628  0.00  0.00    +0.000 A 
ATOM      8  N   UNL     1       3.706   3.917  18.455  0.00  0.00    +0.000 N 
ATOM      9  C   UNL     1       4.106   5.225  18.359  0.00  0.00    +0.000 A 
ENDROOT
BRANCH   9  10
ATOM     10  C   UNL     1       5.518   5.682  18.484  0.00  0.00    +0.000 C 
BRANCH  10  11
ATOM     11  N   UNL     1       6.024   6.203  17.190  0.00  0.00    +0.000 NA
ATOM     12  C   UNL     1       6.656   7.548  17.296  0.00  0.00    +0.000 C 
BRANCH  11  13
ATOM     13  S   UNL     1       7.070   5.095  16.388  0.00  0.00    +0.000 S 
ATOM     14  O   UNL     1       7.744   5.827  15.337  0.00  0.00    +0.000 OA
ATOM     15  O   UNL     1       7.818   4.400  17.413  0.00  0.00    +0.000 OA
BRANCH  13  16
ATOM     16  C   UNL     1       6.006   3.892  15.536  0.00  0.00    +0.000 C 
ATOM     17  C   UNL     1       5.031   4.526  14.574  0.00  0.00    +0.000 C 
ATOM     18  C   UNL     1       6.216   3.761  14.052  0.00  0.00    +0.000 C 
ENDBRANCH  13  16
ENDBRANCH  11  13
ENDBRANCH  10  11
ENDBRANCH   9  10
TORSDOF 4
ENDMDL
MODEL 2
REMARK VINA RESULT:      -6.3      1.286      2.613
REMARK  Name = 
REMARK  6 active torsions:
REMARK  status: ('A' for Active; 'I' for Inactive)
REMARK    1  A    between atoms: C_1  and  C_2
REMARK    2  A    between atoms: C_9  and  C_10
REMARK    3  A    between atoms: C_10  and  N_11
REMARK    4  A    between atoms: N_11  and  C_12
REMARK    5  A    between atoms: N_11  and  S_13
REMARK    6  A    between atoms: S_13  and  C_16
REMARK                            x       y       z     vdW  Elec       q    Type
REMARK                         _______ _______ _______ _____ _____    ______ ____
ROOT
ATOM      1  C   UNL     1       2.941   7.527  18.225  0.00  0.00    +0.000 C 
ATOM      2  C   UNL     1       2.863   6.050  18.318  0.00  0.00    +0.000 A 
ATOM      3  N   UNL     1       2.031   5.477  19.264  0.00  0.00    +0.000 NA
ATOM      4  C   UNL     1       2.187   4.199  19.072  0.00  0.00    +0.000 A 
ATOM      5  S   UNL     1       1.525   2.768  19.799  0.00  0.00    +0.000 S 
ATOM      6  C   UNL     1       2.475   1.797  18.663  0.00  0.00    +0.000 A 
ATOM      7  C   UNL     1       3.224   2.545  17.831  0.00  0.00    +0.000 A 
ATOM      8  N   UNL     1       3.059   3.892  18.070  0.00  0.00    +0.000 N 
ATOM      9  C   UNL     1       3.529   5.077  17.566  0.00  0.00    +0.000 A 
ENDROOT
BRANCH   9  10
ATOM     10  C   UNL     1       4.537   5.185  16.476  0.00  0.00    +0.000 C 
BRANCH  10  11
ATOM     11  N   UNL     1       5.630   4.197  16.661  0.00  0.00    +0.000 NA
ATOM     12  C   UNL     1       6.275   3.779  15.385  0.00  0.00    +0.000 C 
BRANCH  11  13
ATOM     13  S   UNL     1       6.807   4.711  17.807  0.00  0.00    +0.000 S 
ATOM     14  O   UNL     1       6.371   4.248  19.106  0.00  0.00    +0.000 OA
ATOM     15  O   UNL     1       8.103   4.343  17.277  0.00  0.00    +0.000 OA
BRANCH  13  16
ATOM     16  C   UNL     1       6.710   6.525  17.880  0.00  0.00    +0.000 C 
ATOM     17  C   UNL     1       7.975   7.176  18.384  0.00  0.00    +0.000 C 
ATOM     18  C   UNL     1       7.607   7.272  16.929  0.00  0.00    +0.000 C 
ENDBRANCH  13  16
ENDBRANCH  11  13
ENDBRANCH  10  11
ENDBRANCH   9  10
TORSDOF 4
ENDMDL
MODEL 3
REMARK VINA RESULT:      -6.3      1.490      1.589
REMARK  Name = 
REMARK  6 active torsions:
REMARK  status: ('A' for Active; 'I' for Inactive)
REMARK    1  A    between atoms: C_1  and  C_2
REMARK    2  A    between atoms: C_9  and  C_10
REMARK    3  A    between atoms: C_10  and  N_11
REMARK    4  A    between atoms: N_11  and  C_12
REMARK    5  A    between atoms: N_11  and  S_13
REMARK    6  A    between atoms: S_13  and  C_16
REMARK                            x       y       z     vdW  Elec       q    Type
REMARK                         _______ _______ _______ _____ _____    ______ ____
ROOT
ATOM      1  C   UNL     1       3.893   7.013  17.639  0.00  0.00    +0.000 C 
ATOM      2  C   UNL     1       3.457   5.852  18.452  0.00  0.00    +0.000 A 
ATOM      3  N   UNL     1       2.165   5.824  18.946  0.00  0.00    +0.000 NA
ATOM      4  C   UNL     1       2.109   4.694  19.588  0.00  0.00    +0.000 A 
ATOM      5  S   UNL     1       0.879   3.862  20.488  0.00  0.00    +0.000 S 
ATOM      6  C   UNL     1       2.025   2.539  20.759  0.00  0.00    +0.000 A 
ATOM      7  C   UNL     1       3.229   2.765  20.202  0.00  0.00    +0.000 A 
ATOM      8  N   UNL     1       3.269   3.978  19.550  0.00  0.00    +0.000 N 
ATOM      9  C   UNL     1       4.174   4.713  18.828  0.00  0.00    +0.000 A 
ENDROOT
BRANCH   9  10
ATOM     10  C   UNL     1       5.583   4.301  18.580  0.00  0.00    +0.000 C 
BRANCH  10  11
ATOM     11  N   UNL     1       6.445   5.481  18.322  0.00  0.00    +0.000 NA
ATOM     12  C   UNL     1       7.414   5.761  19.418  0.00  0.00    +0.000 C 
BRANCH  11  13
ATOM     13  S   UNL     1       7.245   5.404  16.799  0.00  0.00    +0.000 S 
ATOM     14  O   UNL     1       7.744   6.731  16.510  0.00  0.00    +0.000 OA
ATOM     15  O   UNL     1       8.135   4.263  16.846  0.00  0.00    +0.000 OA
BRANCH  13  16
ATOM     16  C   UNL     1       5.964   5.083  15.550  0.00  0.00    +0.000 C 
ATOM     17  C   UNL     1       6.520   4.805  14.175  0.00  0.00    +0.000 C 
ATOM     18  C   UNL     1       5.926   3.688  14.988  0.00  0.00    +0.000 C 
ENDBRANCH  13  16
ENDBRANCH  11  13
ENDBRANCH  10  11
ENDBRANCH   9  10
TORSDOF 4
ENDMDL
MODEL 4
REMARK VINA RESULT:      -6.2      1.281      1.477
REMARK  Name = 
REMARK  6 active torsions:
REMARK  status: ('A' for Active; 'I' for Inactive)
REMARK    1  A    between atoms: C_1  and  C_2
REMARK    2  A    between atoms: C_9  and  C_10
REMARK    3  A    between atoms: C_10  and  N_11
REMARK    4  A    between atoms: N_11  and  C_12
REMARK    5  A    between atoms: N_11  and  S_13
REMARK    6  A    between atoms: S_13  and  C_16
REMARK                            x       y       z     vdW  Elec       q    Type
REMARK                         _______ _______ _______ _____ _____    ______ ____
ROOT
ATOM      1  C   UNL     1       2.378   7.487  19.540  0.00  0.00    +0.000 C 
ATOM      2  C   UNL     1       2.496   6.033  19.276  0.00  0.00    +0.000 A 
ATOM      3  N   UNL     1       1.751   5.148  20.036  0.00  0.00    +0.000 NA
ATOM      4  C   UNL     1       2.074   3.984  19.551  0.00  0.00    +0.000 A 
ATOM      5  S   UNL     1       1.610   2.348  19.898  0.00  0.00    +0.000 S 
ATOM      6  C   UNL     1       2.675   1.808  18.590  0.00  0.00    +0.000 A 
ATOM      7  C   UNL     1       3.314   2.824  17.980  0.00  0.00    +0.000 A 
ATOM      8  N   UNL     1       2.974   4.042  18.528  0.00  0.00    +0.000 N 
ATOM      9  C   UNL     1       3.281   5.364  18.333  0.00  0.00    +0.000 A 
ENDROOT
BRANCH   9  10
ATOM     10  C   UNL     1       4.261   5.859  17.327  0.00  0.00    +0.000 C 
BRANCH  10  11
ATOM     11  N   UNL     1       5.605   6.028  17.932  0.00  0.00    +0.000 NA
ATOM     12  C   UNL     1       5.819   5.196  19.149  0.00  0.00    +0.000 C 
BRANCH  11  13
ATOM     13  S   UNL     1       6.881   5.800  16.799  0.00  0.00    +0.000 S 
ATOM     14  O   UNL     1       7.487   7.094  16.570  0.00  0.00    +0.000 OA
ATOM     15  O   UNL     1       7.667   4.677  17.265  0.00  0.00    +0.000 OA
BRANCH  13  16
ATOM     16  C   UNL     1       6.104   5.342  15.220  0.00  0.00    +0.000 C 
ATOM     17  C   UNL     1       7.083   4.827  14.194  0.00  0.00    +0.000 C 
ATOM     18  C   UNL     1       6.133   3.878  14.872  0.00  0.00    +0.000 C 
ENDBRANCH  13  16
ENDBRANCH  11  13
ENDBRANCH  10  11
ENDBRANCH   9  10
TORSDOF 4
ENDMDL
MODEL 5
REMARK VINA RESULT:      -6.1      1.748      1.972
REMARK  Name = 
REMARK  6 active torsions:
REMARK  status: ('A' for Active; 'I' for Inactive)
REMARK    1  A    between atoms: C_1  and  C_2
REMARK    2  A    between atoms: C_9  and  C_10
REMARK    3  A    between atoms: C_10  and  N_11
REMARK    4  A    between atoms: N_11  and  C_12
REMARK    5  A    between atoms: N_11  and  S_13
REMARK    6  A    between atoms: S_13  and  C_16
REMARK                            x       y       z     vdW  Elec       q    Type
REMARK                         _______ _______ _______ _____ _____    ______ ____
ROOT
ATOM      1  C   UNL     1       2.348   7.715  18.841  0.00  0.00    +0.000 C 
ATOM      2  C   UNL     1       2.524   6.309  19.276  0.00  0.00    +0.000 A 
ATOM      3  N   UNL     1       1.916   5.884  20.444  0.00  0.00    +0.000 NA
ATOM      4  C   UNL     1       2.255   4.630  20.525  0.00  0.00    +0.000 A 
ATOM      5  S   UNL     1       1.928   3.349  21.650  0.00  0.00    +0.000 S 
ATOM      6  C   UNL     1       2.882   2.260  20.630  0.00  0.00    +0.000 A 
ATOM      7  C   UNL     1       3.394   2.871  19.545  0.00  0.00    +0.000 A 
ATOM      8  N   UNL     1       3.040   4.202  19.496  0.00  0.00    +0.000 N 
ATOM      9  C   UNL     1       3.246   5.276  18.670  0.00  0.00    +0.000 A 
ENDROOT
BRANCH   9  10
ATOM     10  C   UNL     1       4.086   5.242  17.441  0.00  0.00    +0.000 C 
BRANCH  10  11
ATOM     11  N   UNL     1       5.456   5.739  17.718  0.00  0.00    +0.000 NA
ATOM     12  C   UNL     1       6.301   4.767  18.467  0.00  0.00    +0.000 C 
BRANCH  11  13
ATOM     13  S   UNL     1       6.264   6.294  16.302  0.00  0.00    +0.000 S 
ATOM     14  O   UNL     1       5.247   6.746  15.378  0.00  0.00    +0.000 OA
ATOM     15  O   UNL     1       7.324   7.178  16.738  0.00  0.00    +0.000 OA
BRANCH  13  16
ATOM     16  C   UNL     1       7.016   4.835  15.522  0.00  0.00    +0.000 C 
ATOM     17  C   UNL     1       6.024   3.964  14.791  0.00  0.00    +0.000 C 
ATOM     18  C   UNL     1       6.998   4.809  14.017  0.00  0.00    +0.000 C 
ENDBRANCH  13  16
ENDBRANCH  11  13
ENDBRANCH  10  11
ENDBRANCH   9  10
TORSDOF 4
ENDMDL
MODEL 6
REMARK VINA RESULT:      -6.1      2.593      5.174
REMARK  Name = 
REMARK  6 active torsions:
REMARK  status: ('A' for Active; 'I' for Inactive)
REMARK    1  A    between atoms: C_1  and  C_2
REMARK    2  A    between atoms: C_9  and  C_10
REMARK    3  A    between atoms: C_10  and  N_11
REMARK    4  A    between atoms: N_11  and  C_12
REMARK    5  A    between atoms: N_11  and  S_13
REMARK    6  A    between atoms: S_13  and  C_16
REMARK                            x       y       z     vdW  Elec       q    Type
REMARK                         _______ _______ _______ _____ _____    ______ ____
ROOT
ATOM      1  C   UNL     1       8.022   7.231  18.565  0.00  0.00    +0.000 C 
ATOM      2  C   UNL     1       7.343   6.284  17.649  0.00  0.00    +0.000 A 
ATOM      3  N   UNL     1       7.660   6.305  16.302  0.00  0.00    +0.000 NA
ATOM      4  C   UNL     1       6.912   5.366  15.799  0.00  0.00    +0.000 A 
ATOM      5  S   UNL     1       6.682   4.713  14.207  0.00  0.00    +0.000 S 
ATOM      6  C   UNL     1       5.517   3.565  14.886  0.00  0.00    +0.000 A 
ATOM      7  C   UNL     1       5.345   3.715  16.213  0.00  0.00    +0.000 A 
ATOM      8  N   UNL     1       6.130   4.731  16.716  0.00  0.00    +0.000 N 
ATOM      9  C   UNL     1       6.375   5.315  17.932  0.00  0.00    +0.000 A 
ENDROOT
BRANCH   9  10
ATOM     10  C   UNL     1       5.693   4.936  19.199  0.00  0.00    +0.000 C 
BRANCH  10  11
ATOM     11  N   UNL     1       4.297   5.440  19.224  0.00  0.00    +0.000 NA
ATOM     12  C   UNL     1       4.030   6.500  18.211  0.00  0.00    +0.000 C 
BRANCH  11  13
ATOM     13  S   UNL     1       3.129   4.179  19.117  0.00  0.00    +0.000 S 
ATOM     14  O   UNL     1       2.322   4.442  17.946  0.00  0.00    +0.000 OA
ATOM     15  O   UNL     1       3.842   2.928  19.270  0.00  0.00    +0.000 OA
BRANCH  13  16
ATOM     16  C   UNL     1       2.009   4.381  20.535  0.00  0.00    +0.000 C 
ATOM     17  C   UNL     1       0.972   3.290  20.642  0.00  0.00    +0.000 C 
ATOM     18  C   UNL     1       2.119   3.338  21.614  0.00  0.00    +0.000 C 
ENDBRANCH  13  16
ENDBRANCH  11  13
ENDBRANCH  10  11
ENDBRANCH   9  10
TORSDOF 4
ENDMDL
MODEL 7
REMARK VINA RESULT:      -6.1      2.719      5.597
REMARK  Name = 
REMARK  6 active torsions:
REMARK  status: ('A' for Active; 'I' for Inactive)
REMARK    1  A    between atoms: C_1  and  C_2
REMARK    2  A    between atoms: C_9  and  C_10
REMARK    3  A    between atoms: C_10  and  N_11
REMARK    4  A    between atoms: N_11  and  C_12
REMARK    5  A    between atoms: N_11  and  S_13
REMARK    6  A    between atoms: S_13  and  C_16
REMARK                            x       y       z     vdW  Elec       q    Type
REMARK                         _______ _______ _______ _____ _____    ______ ____
ROOT
ATOM      1  C   UNL     1       5.749   4.193  14.137  0.00  0.00    +0.000 C 
ATOM      2  C   UNL     1       6.001   4.544  15.555  0.00  0.00    +0.000 A 
ATOM      3  N   UNL     1       7.038   5.408  15.861  0.00  0.00    +0.000 NA
ATOM      4  C   UNL     1       6.977   5.509  17.157  0.00  0.00    +0.000 A 
ATOM      5  S   UNL     1       7.880   6.383  18.355  0.00  0.00    +0.000 S 
ATOM      6  C   UNL     1       6.812   5.709  19.597  0.00  0.00    +0.000 A 
ATOM      7  C   UNL     1       5.874   4.886  19.093  0.00  0.00    +0.000 A 
ATOM      8  N   UNL     1       5.976   4.778  17.723  0.00  0.00    +0.000 N 
ATOM      9  C   UNL     1       5.328   4.124  16.706  0.00  0.00    +0.000 A 
ENDROOT
BRANCH   9  10
ATOM     10  C   UNL     1       4.189   3.185  16.902  0.00  0.00    +0.000 C 
BRANCH  10  11
ATOM     11  N   UNL     1       3.326   3.623  18.028  0.00  0.00    +0.000 NA
ATOM     12  C   UNL     1       2.217   4.526  17.611  0.00  0.00    +0.000 C 
BRANCH  11  13
ATOM     13  S   UNL     1       2.729   2.306  18.962  0.00  0.00    +0.000 S 
ATOM     14  O   UNL     1       1.298   2.246  18.751  0.00  0.00    +0.000 OA
ATOM     15  O   UNL     1       3.575   1.167  18.678  0.00  0.00    +0.000 OA
BRANCH  13  16
ATOM     16  C   UNL     1       2.943   2.762  20.709  0.00  0.00    +0.000 C 
ATOM     17  C   UNL     1       2.123   3.958  21.124  0.00  0.00    +0.000 C 
ATOM     18  C   UNL     1       1.737   2.581  21.590  0.00  0.00    +0.000 C 
ENDBRANCH  13  16
ENDBRANCH  11  13
ENDBRANCH  10  11
ENDBRANCH   9  10
TORSDOF 4
ENDMDL
MODEL 8
REMARK VINA RESULT:      -6.0      2.746      5.426
REMARK  Name = 
REMARK  6 active torsions:
REMARK  status: ('A' for Active; 'I' for Inactive)
REMARK    1  A    between atoms: C_1  and  C_2
REMARK    2  A    between atoms: C_9  and  C_10
REMARK    3  A    between atoms: C_10  and  N_11
REMARK    4  A    between atoms: N_11  and  C_12
REMARK    5  A    between atoms: N_11  and  S_13
REMARK    6  A    between atoms: S_13  and  C_16
REMARK                            x       y       z     vdW  Elec       q    Type
REMARK                         _______ _______ _______ _____ _____    ______ ____
ROOT
ATOM      1  C   UNL     1       7.151   6.528  17.603  0.00  0.00    +0.000 C 
ATOM      2  C   UNL     1       6.758   5.775  16.387  0.00  0.00    +0.000 A 
ATOM      3  N   UNL     1       7.622   5.743  15.306  0.00  0.00    +0.000 NA
ATOM      4  C   UNL     1       6.993   5.008  14.436  0.00  0.00    +0.000 A 
ATOM      5  S   UNL     1       7.346   4.449  12.830  0.00  0.00    +0.000 S 
ATOM      6  C   UNL     1       5.798   3.590  12.830  0.00  0.00    +0.000 A 
ATOM      7  C   UNL     1       5.105   3.755  13.971  0.00  0.00    +0.000 A 
ATOM      8  N   UNL     1       5.781   4.556  14.866  0.00  0.00    +0.000 N 
ATOM      9  C   UNL     1       5.590   5.050  16.131  0.00  0.00    +0.000 A 
ENDROOT
BRANCH   9  10
ATOM     10  C   UNL     1       4.367   4.819  16.947  0.00  0.00    +0.000 C 
BRANCH  10  11
ATOM     11  N   UNL     1       4.555   3.677  17.877  0.00  0.00    +0.000 NA
ATOM     12  C   UNL     1       5.048   4.081  19.223  0.00  0.00    +0.000 C 
BRANCH  11  13
ATOM     13  S   UNL     1       3.155   2.684  18.006  0.00  0.00    +0.000 S 
ATOM     14  O   UNL     1       2.233   3.109  16.975  0.00  0.00    +0.000 OA
ATOM     15  O   UNL     1       3.613   1.313  18.083  0.00  0.00    +0.000 OA
BRANCH  13  16
ATOM     16  C   UNL     1       2.353   3.112  19.580  0.00  0.00    +0.000 C 
ATOM     17  C   UNL     1       1.389   4.268  19.471  0.00  0.00    +0.000 C 
ATOM     18  C   UNL     1       0.869   2.869  19.651  0.00  0.00    +0.000 C 
ENDBRANCH  13  16
ENDBRANCH  11  13
ENDBRANCH  10  11
ENDBRANCH   9  10
TORSDOF 4
ENDMDL
MODEL 9
REMARK VINA RESULT:      -5.9      2.808      5.230
REMARK  Name = 
REMARK  6 active torsions:
REMARK  status: ('A' for Active; 'I' for Inactive)
REMARK    1  A    between atoms: C_1  and  C_2
REMARK    2  A    between atoms: C_9  and  C_10
REMARK    3  A    between atoms: C_10  and  N_11
REMARK    4  A    between atoms: N_11  and  C_12
REMARK    5  A    between atoms: N_11  and  S_13
REMARK    6  A    between atoms: S_13  and  C_16
REMARK                            x       y       z     vdW  Elec       q    Type
REMARK                         _______ _______ _______ _____ _____    ______ ____
ROOT
ATOM      1  C   UNL     1       7.701   5.818  19.568  0.00  0.00    +0.000 C 
ATOM      2  C   UNL     1       7.102   5.334  18.301  0.00  0.00    +0.000 A 
ATOM      3  N   UNL     1       7.696   5.678  17.099  0.00  0.00    +0.000 NA
ATOM      4  C   UNL     1       6.945   5.096  16.211  0.00  0.00    +0.000 A 
ATOM      5  S   UNL     1       6.965   4.990  14.478  0.00  0.00    +0.000 S 
ATOM      6  C   UNL     1       5.530   3.957  14.561  0.00  0.00    +0.000 A 
ATOM      7  C   UNL     1       5.104   3.749  15.821  0.00  0.00    +0.000 A 
ATOM      8  N   UNL     1       5.903   4.395  16.740  0.00  0.00    +0.000 N 
ATOM      9  C   UNL     1       5.967   4.542  18.102  0.00  0.00    +0.000 A 
ENDROOT
BRANCH   9  10
ATOM     10  C   UNL     1       4.984   3.960  19.057  0.00  0.00    +0.000 C 
BRANCH  10  11
ATOM     11  N   UNL     1       4.008   4.984  19.506  0.00  0.00    +0.000 NA
ATOM     12  C   UNL     1       3.670   5.984  18.456  0.00  0.00    +0.000 C 
BRANCH  11  13
ATOM     13  S   UNL     1       2.582   4.295  20.182  0.00  0.00    +0.000 S 
ATOM     14  O   UNL     1       2.966   3.054  20.819  0.00  0.00    +0.000 OA
ATOM     15  O   UNL     1       1.917   5.343  20.927  0.00  0.00    +0.000 OA
BRANCH  13  16
ATOM     16  C   UNL     1       1.519   3.817  18.787  0.00  0.00    +0.000 C 
ATOM     17  C   UNL     1       1.973   2.560  18.087  0.00  0.00    +0.000 C 
ATOM     18  C   UNL     1       0.746   2.537  18.957  0.00  0.00    +0.000 C 
ENDBRANCH  13  16
ENDBRANCH  11  13
ENDBRANCH  10  11
ENDBRANCH   9  10
TORSDOF 4
ENDMDL
