MODEL 1
REMARK VINA RESULT:      -9.1      0.000      0.000
REMARK  Name = 
REMARK  14 active torsions:
REMARK  status: ('A' for Active; 'I' for Inactive)
REMARK    1  A    between atoms: C_1  and  C_2
REMARK    2  A    between atoms: C_2  and  C_3
REMARK    3  A    between atoms: C_2  and  N_20
REMARK    4  A    between atoms: C_3  and  C_4
REMARK    5  A    between atoms: C_7  and  O_8
REMARK    6  A    between atoms: O_8  and  C_9
REMARK    7  A    between atoms: C_12  and  C_13
REMARK    8  A    between atoms: N_20  and  C_21
REMARK    9  A    between atoms: C_21  and  C_22
REMARK   10  A    between atoms: C_22  and  O_23
REMARK   11  A    between atoms: C_22  and  C_24
REMARK   12  A    between atoms: C_24  and  O_25
REMARK   13  A    between atoms: O_25  and  C_26
REMARK   14  A    between atoms: N_34  and  C_35
REMARK                            x       y       z     vdW  Elec       q    Type
REMARK                         _______ _______ _______ _____ _____    ______ ____
ROOT
ATOM      1  C   UNL     1       1.385   3.127  21.229  0.00  0.00    +0.000 C 
ATOM      2  C   UNL     1       1.189   4.404  20.394  0.00  0.00    +0.000 C 
ENDROOT
BRANCH   2   3
ATOM      3  N   UNL     1       1.168   4.081  18.956  0.00  0.00    +0.000 NA
ATOM      4  H   UNL     1       2.014   4.466  18.533  0.00  0.00    +0.000 HD
BRANCH   3   5
ATOM      5  C   UNL     1       1.144   2.627  18.693  0.00  0.00    +0.000 C 
BRANCH   5   6
ATOM      6  C   UNL     1       2.290   2.223  17.748  0.00  0.00    +0.000 C 
BRANCH   6   7
ATOM      7  O   UNL     1       3.136   1.284  18.433  0.00  0.00    +0.000 OA
ATOM      8  H   UNL     1       3.989   1.728  18.579  0.00  0.00    +0.000 HD
ENDBRANCH   6   7
BRANCH   6   9
ATOM      9  C   UNL     1       3.077   3.470  17.328  0.00  0.00    +0.000 C 
BRANCH   9  10
ATOM     10  O   UNL     1       4.493   3.283  17.480  0.00  0.00    +0.000 OA
BRANCH  10  11
ATOM     11  C   UNL     1       5.213   3.870  16.472  0.00  0.00    +0.000 A 
ATOM     12  C   UNL     1       5.102   3.489  15.120  0.00  0.00    +0.000 A 
ATOM     13  C   UNL     1       5.904   4.065  14.111  0.00  0.00    +0.000 A 
ATOM     14  C   UNL     1       6.824   5.058  14.423  0.00  0.00    +0.000 A 
ATOM     15  C   UNL     1       6.890   5.448  15.743  0.00  0.00    +0.000 A 
ATOM     16  N   UNL     1       7.703   6.429  16.298  0.00  0.00    +0.000 N 
ATOM     17  C   UNL     1       7.430   6.524  17.667  0.00  0.00    +0.000 A 
ATOM     18  O   UNL     1       7.951   7.318  18.432  0.00  0.00    +0.000 OA
ATOM     19  N   UNL     1       6.451   5.556  17.953  0.00  0.00    +0.000 N 
ATOM     20  C   UNL     1       5.819   5.405  19.230  0.00  0.00    +0.000 C 
ATOM     21  C   UNL     1       6.103   4.890  16.759  0.00  0.00    +0.000 A 
ATOM     22  H   UNL     1       8.365   7.014  15.819  0.00  0.00    +0.000 HD
ENDBRANCH  10  11
ENDBRANCH   9  10
ENDBRANCH   6   9
ENDBRANCH   5   6
ENDBRANCH   3   5
ENDBRANCH   2   3
BRANCH   2  23
ATOM     23  C   UNL     1       2.322   5.439  20.648  0.00  0.00    +0.000 C 
BRANCH  23  24
ATOM     24  C   UNL     1       2.050   6.830  20.117  0.00  0.00    +0.000 A 
ATOM     25  C   UNL     1       1.345   7.758  20.899  0.00  0.00    +0.000 A 
ATOM     26  C   UNL     1       1.014   9.015  20.381  0.00  0.00    +0.000 A 
ATOM     27  C   UNL     1       1.387   9.355  19.082  0.00  0.00    +0.000 A 
ATOM     28  C   UNL     1       2.089   8.434  18.303  0.00  0.00    +0.000 A 
ATOM     29  C   UNL     1       2.469   7.210  18.838  0.00  0.00    +0.000 A 
BRANCH  27  30
ATOM     30  O   UNL     1       0.981  10.587  18.620  0.00  0.00    +0.000 OA
BRANCH  30  31
ATOM     31  C   UNL     1      -0.385  10.799  18.488  0.00  0.00    +0.000 A 
ATOM     32  C   UNL     1      -1.067   9.968  17.614  0.00  0.00    +0.000 A 
ATOM     33  C   UNL     1      -2.429  10.191  17.424  0.00  0.00    +0.000 A 
ATOM     34  C   UNL     1      -3.055  11.232  18.113  0.00  0.00    +0.000 A 
ATOM     35  C   UNL     1      -2.292  12.005  18.973  0.00  0.00    +0.000 A 
ATOM     36  N   UNL     1      -0.976  11.789  19.198  0.00  0.00    +0.000 NA
BRANCH  34  37
ATOM     37  C   UNL     1      -4.483  11.564  17.950  0.00  0.00    +0.000 C 
ATOM     38  N   UNL     1      -5.201  11.787  19.090  0.00  0.00    +0.000 N 
ATOM     39  O   UNL     1      -4.994  11.671  16.844  0.00  0.00    +0.000 OA
ATOM     40  H   UNL     1      -4.770  11.949  19.988  0.00  0.00    +0.000 HD
ATOM     41  H   UNL     1      -6.148  12.117  18.962  0.00  0.00    +0.000 HD
ENDBRANCH  34  37
ENDBRANCH  30  31
ENDBRANCH  27  30
ENDBRANCH  23  24
ENDBRANCH   2  23
TORSDOF 12
ENDMDL
MODEL 2
REMARK VINA RESULT:      -7.9      2.666      4.168
REMARK  Name = 
REMARK  14 active torsions:
REMARK  status: ('A' for Active; 'I' for Inactive)
REMARK    1  A    between atoms: C_1  and  C_2
REMARK    2  A    between atoms: C_2  and  C_3
REMARK    3  A    between atoms: C_2  and  N_20
REMARK    4  A    between atoms: C_3  and  C_4
REMARK    5  A    between atoms: C_7  and  O_8
REMARK    6  A    between atoms: O_8  and  C_9
REMARK    7  A    between atoms: C_12  and  C_13
REMARK    8  A    between atoms: N_20  and  C_21
REMARK    9  A    between atoms: C_21  and  C_22
REMARK   10  A    between atoms: C_22  and  O_23
REMARK   11  A    between atoms: C_22  and  C_24
REMARK   12  A    between atoms: C_24  and  O_25
REMARK   13  A    between atoms: O_25  and  C_26
REMARK   14  A    between atoms: N_34  and  C_35
REMARK                            x       y       z     vdW  Elec       q    Type
REMARK                         _______ _______ _______ _____ _____    ______ ____
ROOT
ATOM      1  C   UNL     1       2.198   3.721  21.534  0.00  0.00    +0.000 C 
ATOM      2  C   UNL     1       1.538   4.721  20.569  0.00  0.00    +0.000 C 
ENDROOT
BRANCH   2   3
ATOM      3  N   UNL     1       1.126   4.043  19.327  0.00  0.00    +0.000 NA
ATOM      4  H   UNL     1       1.641   4.463  18.552  0.00  0.00    +0.000 HD
BRANCH   3   5
ATOM      5  C   UNL     1       1.414   2.594  19.340  0.00  0.00    +0.000 C 
BRANCH   5   6
ATOM      6  C   UNL     1       2.162   2.174  18.061  0.00  0.00    +0.000 C 
BRANCH   6   7
ATOM      7  O   UNL     1       3.178   1.222  18.419  0.00  0.00    +0.000 OA
ATOM      8  H   UNL     1       3.739   1.102  17.634  0.00  0.00    +0.000 HD
ENDBRANCH   6   7
BRANCH   6   9
ATOM      9  C   UNL     1       2.775   3.409  17.391  0.00  0.00    +0.000 C 
BRANCH   9  10
ATOM     10  O   UNL     1       4.094   3.145  16.890  0.00  0.00    +0.000 OA
BRANCH  10  11
ATOM     11  C   UNL     1       5.034   4.002  17.401  0.00  0.00    +0.000 A 
ATOM     12  C   UNL     1       5.134   4.309  18.772  0.00  0.00    +0.000 A 
ATOM     13  C   UNL     1       6.070   5.246  19.264  0.00  0.00    +0.000 A 
ATOM     14  C   UNL     1       6.950   5.882  18.398  0.00  0.00    +0.000 A 
ATOM     15  C   UNL     1       6.867   5.539  17.067  0.00  0.00    +0.000 A 
ATOM     16  N   UNL     1       7.646   6.012  16.019  0.00  0.00    +0.000 N 
ATOM     17  C   UNL     1       7.248   5.379  14.835  0.00  0.00    +0.000 A 
ATOM     18  O   UNL     1       7.762   5.550  13.743  0.00  0.00    +0.000 OA
ATOM     19  N   UNL     1       6.183   4.526  15.171  0.00  0.00    +0.000 N 
ATOM     20  C   UNL     1       5.564   3.614  14.255  0.00  0.00    +0.000 C 
ATOM     21  C   UNL     1       5.947   4.612  16.559  0.00  0.00    +0.000 A 
ATOM     22  H   UNL     1       8.399   6.675  16.071  0.00  0.00    +0.000 HD
ENDBRANCH  10  11
ENDBRANCH   9  10
ENDBRANCH   6   9
ENDBRANCH   5   6
ENDBRANCH   3   5
ENDBRANCH   2   3
BRANCH   2  23
ATOM     23  C   UNL     1       2.502   5.884  20.196  0.00  0.00    +0.000 C 
BRANCH  23  24
ATOM     24  C   UNL     1       1.854   7.249  20.102  0.00  0.00    +0.000 A 
ATOM     25  C   UNL     1       2.105   8.074  18.995  0.00  0.00    +0.000 A 
ATOM     26  C   UNL     1       1.581   9.370  18.943  0.00  0.00    +0.000 A 
ATOM     27  C   UNL     1       0.801   9.850  19.994  0.00  0.00    +0.000 A 
ATOM     28  C   UNL     1       0.549   9.031  21.096  0.00  0.00    +0.000 A 
ATOM     29  C   UNL     1       1.020   7.725  21.119  0.00  0.00    +0.000 A 
BRANCH  27  30
ATOM     30  O   UNL     1       0.364  11.152  19.901  0.00  0.00    +0.000 OA
BRANCH  30  31
ATOM     31  C   UNL     1       1.308  12.120  19.584  0.00  0.00    +0.000 A 
ATOM     32  C   UNL     1       1.950  12.738  20.644  0.00  0.00    +0.000 A 
ATOM     33  C   UNL     1       2.866  13.749  20.359  0.00  0.00    +0.000 A 
ATOM     34  C   UNL     1       3.103  14.101  19.028  0.00  0.00    +0.000 A 
ATOM     35  C   UNL     1       2.419  13.419  18.034  0.00  0.00    +0.000 A 
ATOM     36  N   UNL     1       1.549  12.414  18.285  0.00  0.00    +0.000 NA
BRANCH  34  37
ATOM     37  C   UNL     1       4.028  15.179  18.631  0.00  0.00    +0.000 C 
ATOM     38  N   UNL     1       4.295  16.141  19.563  0.00  0.00    +0.000 N 
ATOM     39  O   UNL     1       4.561  15.194  17.529  0.00  0.00    +0.000 OA
ATOM     40  H   UNL     1       4.076  16.032  20.543  0.00  0.00    +0.000 HD
ATOM     41  H   UNL     1       5.010  16.812  19.317  0.00  0.00    +0.000 HD
ENDBRANCH  34  37
ENDBRANCH  30  31
ENDBRANCH  27  30
ENDBRANCH  23  24
ENDBRANCH   2  23
TORSDOF 12
ENDMDL
MODEL 3
REMARK VINA RESULT:      -7.8      2.938      4.287
REMARK  Name = 
REMARK  14 active torsions:
REMARK  status: ('A' for Active; 'I' for Inactive)
REMARK    1  A    between atoms: C_1  and  C_2
REMARK    2  A    between atoms: C_2  and  C_3
REMARK    3  A    between atoms: C_2  and  N_20
REMARK    4  A    between atoms: C_3  and  C_4
REMARK    5  A    between atoms: C_7  and  O_8
REMARK    6  A    between atoms: O_8  and  C_9
REMARK    7  A    between atoms: C_12  and  C_13
REMARK    8  A    between atoms: N_20  and  C_21
REMARK    9  A    between atoms: C_21  and  C_22
REMARK   10  A    between atoms: C_22  and  O_23
REMARK   11  A    between atoms: C_22  and  C_24
REMARK   12  A    between atoms: C_24  and  O_25
REMARK   13  A    between atoms: O_25  and  C_26
REMARK   14  A    between atoms: N_34  and  C_35
REMARK                            x       y       z     vdW  Elec       q    Type
REMARK                         _______ _______ _______ _____ _____    ______ ____
ROOT
ATOM      1  C   UNL     1       2.317   4.313  21.107  0.00  0.00    +0.000 C 
ATOM      2  C   UNL     1       1.689   5.249  20.061  0.00  0.00    +0.000 C 
ENDROOT
BRANCH   2   3
ATOM      3  N   UNL     1       1.427   4.520  18.808  0.00  0.00    +0.000 NA
ATOM      4  H   UNL     1       2.181   4.735  18.153  0.00  0.00    +0.000 HD
BRANCH   3   5
ATOM      5  C   UNL     1       1.381   3.055  18.993  0.00  0.00    +0.000 C 
BRANCH   5   6
ATOM      6  C   UNL     1       2.161   2.338  17.876  0.00  0.00    +0.000 C 
BRANCH   6   7
ATOM      7  O   UNL     1       3.015   1.351  18.479  0.00  0.00    +0.000 OA
ATOM      8  H   UNL     1       2.991   0.569  17.901  0.00  0.00    +0.000 HD
ENDBRANCH   6   7
BRANCH   6   9
ATOM      9  C   UNL     1       2.979   3.360  17.078  0.00  0.00    +0.000 C 
BRANCH   9  10
ATOM     10  O   UNL     1       4.358   2.976  16.973  0.00  0.00    +0.000 OA
BRANCH  10  11
ATOM     11  C   UNL     1       5.210   3.926  17.475  0.00  0.00    +0.000 A 
ATOM     12  C   UNL     1       5.261   4.275  18.838  0.00  0.00    +0.000 A 
ATOM     13  C   UNL     1       6.102   5.303  19.318  0.00  0.00    +0.000 A 
ATOM     14  C   UNL     1       6.935   5.994  18.447  0.00  0.00    +0.000 A 
ATOM     15  C   UNL     1       6.904   5.612  17.124  0.00  0.00    +0.000 A 
ATOM     16  N   UNL     1       7.654   6.126  16.074  0.00  0.00    +0.000 N 
ATOM     17  C   UNL     1       7.333   5.431  14.903  0.00  0.00    +0.000 A 
ATOM     18  O   UNL     1       7.846   5.620  13.813  0.00  0.00    +0.000 OA
ATOM     19  N   UNL     1       6.342   4.495  15.246  0.00  0.00    +0.000 N 
ATOM     20  C   UNL     1       5.821   3.509  14.347  0.00  0.00    +0.000 C 
ATOM     21  C   UNL     1       6.078   4.594  16.628  0.00  0.00    +0.000 A 
ATOM     22  H   UNL     1       8.344   6.855  16.119  0.00  0.00    +0.000 HD
ENDBRANCH  10  11
ENDBRANCH   9  10
ENDBRANCH   6   9
ENDBRANCH   5   6
ENDBRANCH   3   5
ENDBRANCH   2   3
BRANCH   2  23
ATOM     23  C   UNL     1       2.614   6.459  19.741  0.00  0.00    +0.000 C 
BRANCH  23  24
ATOM     24  C   UNL     1       1.915   7.799  19.665  0.00  0.00    +0.000 A 
ATOM     25  C   UNL     1       1.895   8.517  18.459  0.00  0.00    +0.000 A 
ATOM     26  C   UNL     1       1.328   9.794  18.404  0.00  0.00    +0.000 A 
ATOM     27  C   UNL     1       0.774  10.362  19.551  0.00  0.00    +0.000 A 
ATOM     28  C   UNL     1       0.792   9.650  20.750  0.00  0.00    +0.000 A 
ATOM     29  C   UNL     1       1.301   8.359  20.790  0.00  0.00    +0.000 A 
BRANCH  27  30
ATOM     30  O   UNL     1       0.283  11.644  19.436  0.00  0.00    +0.000 OA
BRANCH  30  31
ATOM     31  C   UNL     1       0.935  12.642  20.147  0.00  0.00    +0.000 A 
ATOM     32  C   UNL     1       0.206  13.287  21.133  0.00  0.00    +0.000 A 
ATOM     33  C   UNL     1       0.818  14.328  21.829  0.00  0.00    +0.000 A 
ATOM     34  C   UNL     1       2.131  14.683  21.513  0.00  0.00    +0.000 A 
ATOM     35  C   UNL     1       2.784  13.973  20.517  0.00  0.00    +0.000 A 
ATOM     36  N   UNL     1       2.222  12.940  19.849  0.00  0.00    +0.000 NA
BRANCH  34  37
ATOM     37  C   UNL     1       2.848  15.791  22.171  0.00  0.00    +0.000 C 
ATOM     38  N   UNL     1       3.496  16.678  21.360  0.00  0.00    +0.000 N 
ATOM     39  O   UNL     1       2.834  15.931  23.386  0.00  0.00    +0.000 OA
ATOM     40  H   UNL     1       3.328  16.737  20.366  0.00  0.00    +0.000 HD
ATOM     41  H   UNL     1       3.892  17.490  21.815  0.00  0.00    +0.000 HD
ENDBRANCH  34  37
ENDBRANCH  30  31
ENDBRANCH  27  30
ENDBRANCH  23  24
ENDBRANCH   2  23
TORSDOF 12
ENDMDL
MODEL 4
REMARK VINA RESULT:      -7.7      1.296      1.635
REMARK  Name = 
REMARK  14 active torsions:
REMARK  status: ('A' for Active; 'I' for Inactive)
REMARK    1  A    between atoms: C_1  and  C_2
REMARK    2  A    between atoms: C_2  and  C_3
REMARK    3  A    between atoms: C_2  and  N_20
REMARK    4  A    between atoms: C_3  and  C_4
REMARK    5  A    between atoms: C_7  and  O_8
REMARK    6  A    between atoms: O_8  and  C_9
REMARK    7  A    between atoms: C_12  and  C_13
REMARK    8  A    between atoms: N_20  and  C_21
REMARK    9  A    between atoms: C_21  and  C_22
REMARK   10  A    between atoms: C_22  and  O_23
REMARK   11  A    between atoms: C_22  and  C_24
REMARK   12  A    between atoms: C_24  and  O_25
REMARK   13  A    between atoms: O_25  and  C_26
REMARK   14  A    between atoms: N_34  and  C_35
REMARK                            x       y       z     vdW  Elec       q    Type
REMARK                         _______ _______ _______ _____ _____    ______ ____
ROOT
ATOM      1  C   UNL     1       1.457   3.024  21.627  0.00  0.00    +0.000 C 
ATOM      2  C   UNL     1       1.553   4.006  20.448  0.00  0.00    +0.000 C 
ENDROOT
BRANCH   2   3
ATOM      3  N   UNL     1       2.041   3.316  19.241  0.00  0.00    +0.000 NA
ATOM      4  H   UNL     1       2.342   4.026  18.571  0.00  0.00    +0.000 HD
BRANCH   3   5
ATOM      5  C   UNL     1       3.188   2.424  19.512  0.00  0.00    +0.000 C 
BRANCH   5   6
ATOM      6  C   UNL     1       3.375   1.412  18.368  0.00  0.00    +0.000 C 
BRANCH   6   7
ATOM      7  O   UNL     1       4.139   0.300  18.864  0.00  0.00    +0.000 OA
ATOM      8  H   UNL     1       4.370  -0.248  18.095  0.00  0.00    +0.000 HD
ENDBRANCH   6   7
BRANCH   6   9
ATOM      9  C   UNL     1       4.088   2.088  17.190  0.00  0.00    +0.000 C 
BRANCH   9  10
ATOM     10  O   UNL     1       4.245   3.500  17.401  0.00  0.00    +0.000 OA
BRANCH  10  11
ATOM     11  C   UNL     1       5.033   4.090  16.447  0.00  0.00    +0.000 A 
ATOM     12  C   UNL     1       4.889   3.848  15.067  0.00  0.00    +0.000 A 
ATOM     13  C   UNL     1       5.757   4.420  14.111  0.00  0.00    +0.000 A 
ATOM     14  C   UNL     1       6.780   5.271  14.510  0.00  0.00    +0.000 A 
ATOM     15  C   UNL     1       6.881   5.531  15.858  0.00  0.00    +0.000 A 
ATOM     16  N   UNL     1       7.793   6.360  16.497  0.00  0.00    +0.000 N 
ATOM     17  C   UNL     1       7.524   6.361  17.870  0.00  0.00    +0.000 A 
ATOM     18  O   UNL     1       8.125   7.019  18.702  0.00  0.00    +0.000 OA
ATOM     19  N   UNL     1       6.441   5.487  18.071  0.00  0.00    +0.000 N 
ATOM     20  C   UNL     1       5.787   5.293  19.331  0.00  0.00    +0.000 C 
ATOM     21  C   UNL     1       6.029   4.975  16.823  0.00  0.00    +0.000 A 
ATOM     22  H   UNL     1       8.520   6.908  16.071  0.00  0.00    +0.000 HD
ENDBRANCH  10  11
ENDBRANCH   9  10
ENDBRANCH   6   9
ENDBRANCH   5   6
ENDBRANCH   3   5
ENDBRANCH   2   3
BRANCH   2  23
ATOM     23  C   UNL     1       2.515   5.189  20.759  0.00  0.00    +0.000 C 
BRANCH  23  24
ATOM     24  C   UNL     1       2.075   6.533  20.222  0.00  0.00    +0.000 A 
ATOM     25  C   UNL     1       2.413   6.916  18.915  0.00  0.00    +0.000 A 
ATOM     26  C   UNL     1       2.086   8.191  18.442  0.00  0.00    +0.000 A 
ATOM     27  C   UNL     1       1.416   9.091  19.269  0.00  0.00    +0.000 A 
ATOM     28  C   UNL     1       1.078   8.713  20.569  0.00  0.00    +0.000 A 
ATOM     29  C   UNL     1       1.350   7.427  21.017  0.00  0.00    +0.000 A 
BRANCH  27  30
ATOM     30  O   UNL     1       1.175  10.346  18.756  0.00  0.00    +0.000 OA
BRANCH  30  31
ATOM     31  C   UNL     1       0.026  10.998  19.182  0.00  0.00    +0.000 A 
ATOM     32  C   UNL     1      -1.119  10.807  18.425  0.00  0.00    +0.000 A 
ATOM     33  C   UNL     1      -2.275  11.490  18.799  0.00  0.00    +0.000 A 
ATOM     34  C   UNL     1      -2.242  12.334  19.912  0.00  0.00    +0.000 A 
ATOM     35  C   UNL     1      -1.052  12.454  20.612  0.00  0.00    +0.000 A 
ATOM     36  N   UNL     1       0.074  11.779  20.287  0.00  0.00    +0.000 NA
BRANCH  34  37
ATOM     37  C   UNL     1      -3.405  13.122  20.362  0.00  0.00    +0.000 C 
ATOM     38  N   UNL     1      -4.515  13.097  19.567  0.00  0.00    +0.000 N 
ATOM     39  O   UNL     1      -3.390  13.740  21.418  0.00  0.00    +0.000 OA
ATOM     40  H   UNL     1      -4.651  12.417  18.833  0.00  0.00    +0.000 HD
ATOM     41  H   UNL     1      -5.338  13.552  19.939  0.00  0.00    +0.000 HD
ENDBRANCH  34  37
ENDBRANCH  30  31
ENDBRANCH  27  30
ENDBRANCH  23  24
ENDBRANCH   2  23
TORSDOF 12
ENDMDL
MODEL 5
REMARK VINA RESULT:      -7.7      0.919      1.219
REMARK  Name = 
REMARK  14 active torsions:
REMARK  status: ('A' for Active; 'I' for Inactive)
REMARK    1  A    between atoms: C_1  and  C_2
REMARK    2  A    between atoms: C_2  and  C_3
REMARK    3  A    between atoms: C_2  and  N_20
REMARK    4  A    between atoms: C_3  and  C_4
REMARK    5  A    between atoms: C_7  and  O_8
REMARK    6  A    between atoms: O_8  and  C_9
REMARK    7  A    between atoms: C_12  and  C_13
REMARK    8  A    between atoms: N_20  and  C_21
REMARK    9  A    between atoms: C_21  and  C_22
REMARK   10  A    between atoms: C_22  and  O_23
REMARK   11  A    between atoms: C_22  and  C_24
REMARK   12  A    between atoms: C_24  and  O_25
REMARK   13  A    between atoms: O_25  and  C_26
REMARK   14  A    between atoms: N_34  and  C_35
REMARK                            x       y       z     vdW  Elec       q    Type
REMARK                         _______ _______ _______ _____ _____    ______ ____
ROOT
ATOM      1  C   UNL     1       2.001   3.296  21.543  0.00  0.00    +0.000 C 
ATOM      2  C   UNL     1       1.395   4.549  20.892  0.00  0.00    +0.000 C 
ENDROOT
BRANCH   2   3
ATOM      3  N   UNL     1       1.021   4.273  19.493  0.00  0.00    +0.000 NA
ATOM      4  H   UNL     1       1.625   4.833  18.888  0.00  0.00    +0.000 HD
BRANCH   3   5
ATOM      5  C   UNL     1       1.188   2.852  19.123  0.00  0.00    +0.000 C 
BRANCH   5   6
ATOM      6  C   UNL     1       2.139   2.709  17.921  0.00  0.00    +0.000 C 
BRANCH   6   7
ATOM      7  O   UNL     1       2.460   1.317  17.757  0.00  0.00    +0.000 OA
ATOM      8  H   UNL     1       2.050   1.031  16.923  0.00  0.00    +0.000 HD
ENDBRANCH   6   7
BRANCH   6   9
ATOM      9  C   UNL     1       3.404   3.542  18.160  0.00  0.00    +0.000 C 
BRANCH   9  10
ATOM     10  O   UNL     1       3.510   4.631  17.230  0.00  0.00    +0.000 OA
BRANCH  10  11
ATOM     11  C   UNL     1       4.647   4.565  16.467  0.00  0.00    +0.000 A 
ATOM     12  C   UNL     1       4.631   4.375  15.072  0.00  0.00    +0.000 A 
ATOM     13  C   UNL     1       5.819   4.246  14.319  0.00  0.00    +0.000 A 
ATOM     14  C   UNL     1       7.058   4.329  14.941  0.00  0.00    +0.000 A 
ATOM     15  C   UNL     1       7.056   4.557  16.299  0.00  0.00    +0.000 A 
ATOM     16  N   UNL     1       8.155   4.703  17.136  0.00  0.00    +0.000 N 
ATOM     17  C   UNL     1       7.705   4.952  18.438  0.00  0.00    +0.000 A 
ATOM     18  O   UNL     1       8.424   5.162  19.400  0.00  0.00    +0.000 OA
ATOM     19  N   UNL     1       6.300   4.923  18.393  0.00  0.00    +0.000 N 
ATOM     20  C   UNL     1       5.453   5.242  19.504  0.00  0.00    +0.000 C 
ATOM     21  C   UNL     1       5.889   4.689  17.064  0.00  0.00    +0.000 A 
ATOM     22  H   UNL     1       9.126   4.673  16.878  0.00  0.00    +0.000 HD
ENDBRANCH  10  11
ENDBRANCH   9  10
ENDBRANCH   6   9
ENDBRANCH   5   6
ENDBRANCH   3   5
ENDBRANCH   2   3
BRANCH   2  23
ATOM     23  C   UNL     1       2.389   5.746  20.906  0.00  0.00    +0.000 C 
BRANCH  23  24
ATOM     24  C   UNL     1       1.830   7.052  20.385  0.00  0.00    +0.000 A 
ATOM     25  C   UNL     1       2.185   7.511  19.107  0.00  0.00    +0.000 A 
ATOM     26  C   UNL     1       1.742   8.758  18.653  0.00  0.00    +0.000 A 
ATOM     27  C   UNL     1       0.940   9.553  19.470  0.00  0.00    +0.000 A 
ATOM     28  C   UNL     1       0.585   9.099  20.740  0.00  0.00    +0.000 A 
ATOM     29  C   UNL     1       0.975   7.836  21.166  0.00  0.00    +0.000 A 
BRANCH  27  30
ATOM     30  O   UNL     1       0.588  10.791  18.980  0.00  0.00    +0.000 OA
BRANCH  30  31
ATOM     31  C   UNL     1      -0.765  11.039  18.789  0.00  0.00    +0.000 A 
ATOM     32  C   UNL     1      -1.408  10.290  17.817  0.00  0.00    +0.000 A 
ATOM     33  C   UNL     1      -2.754  10.553  17.568  0.00  0.00    +0.000 A 
ATOM     34  C   UNL     1      -3.403  11.551  18.300  0.00  0.00    +0.000 A 
ATOM     35  C   UNL     1      -2.678  12.241  19.259  0.00  0.00    +0.000 A 
ATOM     36  N   UNL     1      -1.381  11.983  19.540  0.00  0.00    +0.000 NA
BRANCH  34  37
ATOM     37  C   UNL     1      -4.814  11.921  18.084  0.00  0.00    +0.000 C 
ATOM     38  N   UNL     1      -5.274  13.021  18.749  0.00  0.00    +0.000 N 
ATOM     39  O   UNL     1      -5.531  11.295  17.315  0.00  0.00    +0.000 OA
ATOM     40  H   UNL     1      -4.662  13.694  19.188  0.00  0.00    +0.000 HD
ATOM     41  H   UNL     1      -6.208  13.327  18.511  0.00  0.00    +0.000 HD
ENDBRANCH  34  37
ENDBRANCH  30  31
ENDBRANCH  27  30
ENDBRANCH  23  24
ENDBRANCH   2  23
TORSDOF 12
ENDMDL
MODEL 6
REMARK VINA RESULT:      -7.6      1.525      1.849
REMARK  Name = 
REMARK  14 active torsions:
REMARK  status: ('A' for Active; 'I' for Inactive)
REMARK    1  A    between atoms: C_1  and  C_2
REMARK    2  A    between atoms: C_2  and  C_3
REMARK    3  A    between atoms: C_2  and  N_20
REMARK    4  A    between atoms: C_3  and  C_4
REMARK    5  A    between atoms: C_7  and  O_8
REMARK    6  A    between atoms: O_8  and  C_9
REMARK    7  A    between atoms: C_12  and  C_13
REMARK    8  A    between atoms: N_20  and  C_21
REMARK    9  A    between atoms: C_21  and  C_22
REMARK   10  A    between atoms: C_22  and  O_23
REMARK   11  A    between atoms: C_22  and  C_24
REMARK   12  A    between atoms: C_24  and  O_25
REMARK   13  A    between atoms: O_25  and  C_26
REMARK   14  A    between atoms: N_34  and  C_35
REMARK                            x       y       z     vdW  Elec       q    Type
REMARK                         _______ _______ _______ _____ _____    ______ ____
ROOT
ATOM      1  C   UNL     1       2.193   3.921  21.795  0.00  0.00    +0.000 C 
ATOM      2  C   UNL     1       1.369   4.646  20.718  0.00  0.00    +0.000 C 
ENDROOT
BRANCH   2   3
ATOM      3  N   UNL     1       0.745   3.672  19.804  0.00  0.00    +0.000 NA
ATOM      4  H   UNL     1      -0.257   3.864  19.774  0.00  0.00    +0.000 HD
BRANCH   3   5
ATOM      5  C   UNL     1       1.272   3.758  18.426  0.00  0.00    +0.000 C 
BRANCH   5   6
ATOM      6  C   UNL     1       1.885   2.414  17.991  0.00  0.00    +0.000 C 
BRANCH   6   7
ATOM      7  O   UNL     1       1.940   1.547  19.137  0.00  0.00    +0.000 OA
ATOM      8  H   UNL     1       2.657   1.877  19.704  0.00  0.00    +0.000 HD
ENDBRANCH   6   7
BRANCH   6   9
ATOM      9  C   UNL     1       3.283   2.648  17.409  0.00  0.00    +0.000 C 
BRANCH   9  10
ATOM     10  O   UNL     1       3.505   4.030  17.090  0.00  0.00    +0.000 OA
BRANCH  10  11
ATOM     11  C   UNL     1       4.669   4.231  16.394  0.00  0.00    +0.000 A 
ATOM     12  C   UNL     1       4.756   4.133  14.991  0.00  0.00    +0.000 A 
ATOM     13  C   UNL     1       5.982   4.280  14.305  0.00  0.00    +0.000 A 
ATOM     14  C   UNL     1       7.151   4.555  15.002  0.00  0.00    +0.000 A 
ATOM     15  C   UNL     1       7.040   4.690  16.369  0.00  0.00    +0.000 A 
ATOM     16  N   UNL     1       8.049   4.986  17.276  0.00  0.00    +0.000 N 
ATOM     17  C   UNL     1       7.498   5.059  18.561  0.00  0.00    +0.000 A 
ATOM     18  O   UNL     1       8.116   5.338  19.574  0.00  0.00    +0.000 OA
ATOM     19  N   UNL     1       6.129   4.769  18.431  0.00  0.00    +0.000 N 
ATOM     20  C   UNL     1       5.184   4.848  19.506  0.00  0.00    +0.000 C 
ATOM     21  C   UNL     1       5.834   4.548  17.069  0.00  0.00    +0.000 A 
ATOM     22  H   UNL     1       9.019   5.157  17.075  0.00  0.00    +0.000 HD
ENDBRANCH  10  11
ENDBRANCH   9  10
ENDBRANCH   6   9
ENDBRANCH   5   6
ENDBRANCH   3   5
ENDBRANCH   2   3
BRANCH   2  23
ATOM     23  C   UNL     1       2.246   5.616  19.875  0.00  0.00    +0.000 C 
BRANCH  23  24
ATOM     24  C   UNL     1       1.796   7.061  19.886  0.00  0.00    +0.000 A 
ATOM     25  C   UNL     1       1.991   7.869  18.755  0.00  0.00    +0.000 A 
ATOM     26  C   UNL     1       1.659   9.227  18.788  0.00  0.00    +0.000 A 
ATOM     27  C   UNL     1       1.127   9.788  19.949  0.00  0.00    +0.000 A 
ATOM     28  C   UNL     1       0.932   8.987  21.074  0.00  0.00    +0.000 A 
ATOM     29  C   UNL     1       1.206   7.626  21.021  0.00  0.00    +0.000 A 
BRANCH  27  30
ATOM     30  O   UNL     1       0.875  11.141  19.927  0.00  0.00    +0.000 OA
BRANCH  30  31
ATOM     31  C   UNL     1      -0.429  11.550  20.174  0.00  0.00    +0.000 A 
ATOM     32  C   UNL     1      -1.295  11.566  19.093  0.00  0.00    +0.000 A 
ATOM     33  C   UNL     1      -2.596  12.021  19.299  0.00  0.00    +0.000 A 
ATOM     34  C   UNL     1      -2.980  12.441  20.575  0.00  0.00    +0.000 A 
ATOM     35  C   UNL     1      -2.045  12.380  21.597  0.00  0.00    +0.000 A 
ATOM     36  N   UNL     1      -0.787  11.913  21.428  0.00  0.00    +0.000 NA
BRANCH  34  37
ATOM     37  C   UNL     1      -4.322  12.968  20.882  0.00  0.00    +0.000 C 
ATOM     38  N   UNL     1      -4.951  12.458  21.982  0.00  0.00    +0.000 N 
ATOM     39  O   UNL     1      -4.836  13.848  20.205  0.00  0.00    +0.000 OA
ATOM     40  H   UNL     1      -4.471  11.925  22.692  0.00  0.00    +0.000 HD
ATOM     41  H   UNL     1      -5.822  12.903  22.242  0.00  0.00    +0.000 HD
ENDBRANCH  34  37
ENDBRANCH  30  31
ENDBRANCH  27  30
ENDBRANCH  23  24
ENDBRANCH   2  23
TORSDOF 12
ENDMDL
MODEL 7
REMARK VINA RESULT:      -7.5      2.593      3.487
REMARK  Name = 
REMARK  14 active torsions:
REMARK  status: ('A' for Active; 'I' for Inactive)
REMARK    1  A    between atoms: C_1  and  C_2
REMARK    2  A    between atoms: C_2  and  C_3
REMARK    3  A    between atoms: C_2  and  N_20
REMARK    4  A    between atoms: C_3  and  C_4
REMARK    5  A    between atoms: C_7  and  O_8
REMARK    6  A    between atoms: O_8  and  C_9
REMARK    7  A    between atoms: C_12  and  C_13
REMARK    8  A    between atoms: N_20  and  C_21
REMARK    9  A    between atoms: C_21  and  C_22
REMARK   10  A    between atoms: C_22  and  O_23
REMARK   11  A    between atoms: C_22  and  C_24
REMARK   12  A    between atoms: C_24  and  O_25
REMARK   13  A    between atoms: O_25  and  C_26
REMARK   14  A    between atoms: N_34  and  C_35
REMARK                            x       y       z     vdW  Elec       q    Type
REMARK                         _______ _______ _______ _____ _____    ______ ____
ROOT
ATOM      1  C   UNL     1       1.838   7.652  20.420  0.00  0.00    +0.000 C 
ATOM      2  C   UNL     1       1.898   7.471  18.894  0.00  0.00    +0.000 C 
ENDROOT
BRANCH   2   3
ATOM      3  N   UNL     1       2.971   6.529  18.529  0.00  0.00    +0.000 NA
ATOM      4  H   UNL     1       3.809   6.784  19.054  0.00  0.00    +0.000 HD
BRANCH   3   5
ATOM      5  C   UNL     1       2.638   5.125  18.848  0.00  0.00    +0.000 C 
BRANCH   5   6
ATOM      6  C   UNL     1       2.403   4.313  17.561  0.00  0.00    +0.000 C 
BRANCH   6   7
ATOM      7  O   UNL     1       1.007   3.979  17.483  0.00  0.00    +0.000 OA
ATOM      8  H   UNL     1       0.951   3.107  17.055  0.00  0.00    +0.000 HD
ENDBRANCH   6   7
BRANCH   6   9
ATOM      9  C   UNL     1       3.272   3.050  17.580  0.00  0.00    +0.000 C 
BRANCH   9  10
ATOM     10  O   UNL     1       4.651   3.355  17.838  0.00  0.00    +0.000 OA
BRANCH  10  11
ATOM     11  C   UNL     1       5.267   3.957  16.771  0.00  0.00    +0.000 A 
ATOM     12  C   UNL     1       5.015   3.601  15.431  0.00  0.00    +0.000 A 
ATOM     13  C   UNL     1       5.711   4.193  14.355  0.00  0.00    +0.000 A 
ATOM     14  C   UNL     1       6.662   5.177  14.588  0.00  0.00    +0.000 A 
ATOM     15  C   UNL     1       6.866   5.544  15.899  0.00  0.00    +0.000 A 
ATOM     16  N   UNL     1       7.736   6.512  16.384  0.00  0.00    +0.000 N 
ATOM     17  C   UNL     1       7.607   6.584  17.776  0.00  0.00    +0.000 A 
ATOM     18  O   UNL     1       8.208   7.363  18.496  0.00  0.00    +0.000 OA
ATOM     19  N   UNL     1       6.659   5.614  18.145  0.00  0.00    +0.000 N 
ATOM     20  C   UNL     1       6.161   5.442  19.478  0.00  0.00    +0.000 C 
ATOM     21  C   UNL     1       6.186   4.970  16.982  0.00  0.00    +0.000 A 
ATOM     22  H   UNL     1       8.348   7.104  15.849  0.00  0.00    +0.000 HD
ENDBRANCH  10  11
ENDBRANCH   9  10
ENDBRANCH   6   9
ENDBRANCH   5   6
ENDBRANCH   3   5
ENDBRANCH   2   3
BRANCH   2  23
ATOM     23  C   UNL     1       2.159   8.819  18.162  0.00  0.00    +0.000 C 
BRANCH  23  24
ATOM     24  C   UNL     1       1.054   9.844  18.292  0.00  0.00    +0.000 A 
ATOM     25  C   UNL     1       1.347  11.145  18.729  0.00  0.00    +0.000 A 
ATOM     26  C   UNL     1       0.320  12.072  18.937  0.00  0.00    +0.000 A 
ATOM     27  C   UNL     1      -1.005  11.708  18.706  0.00  0.00    +0.000 A 
ATOM     28  C   UNL     1      -1.299  10.415  18.270  0.00  0.00    +0.000 A 
ATOM     29  C   UNL     1      -0.275   9.515  18.008  0.00  0.00    +0.000 A 
BRANCH  27  30
ATOM     30  O   UNL     1      -1.968  12.653  18.982  0.00  0.00    +0.000 OA
BRANCH  30  31
ATOM     31  C   UNL     1      -2.421  12.736  20.292  0.00  0.00    +0.000 A 
ATOM     32  C   UNL     1      -1.585  12.236  21.277  0.00  0.00    +0.000 A 
ATOM     33  C   UNL     1      -2.035  12.260  22.596  0.00  0.00    +0.000 A 
ATOM     34  C   UNL     1      -3.300  12.782  22.878  0.00  0.00    +0.000 A 
ATOM     35  C   UNL     1      -4.061  13.268  21.826  0.00  0.00    +0.000 A 
ATOM     36  N   UNL     1      -3.633  13.284  20.543  0.00  0.00    +0.000 NA
BRANCH  34  37
ATOM     37  C   UNL     1      -3.874  12.818  24.236  0.00  0.00    +0.000 C 
ATOM     38  N   UNL     1      -4.748  11.822  24.565  0.00  0.00    +0.000 N 
ATOM     39  O   UNL     1      -3.555  13.680  25.043  0.00  0.00    +0.000 OA
ATOM     40  H   UNL     1      -4.843  10.974  24.026  0.00  0.00    +0.000 HD
ATOM     41  H   UNL     1      -5.050  11.797  25.530  0.00  0.00    +0.000 HD
ENDBRANCH  34  37
ENDBRANCH  30  31
ENDBRANCH  27  30
ENDBRANCH  23  24
ENDBRANCH   2  23
TORSDOF 12
ENDMDL
MODEL 8
REMARK VINA RESULT:      -7.5      2.138     10.609
REMARK  Name = 
REMARK  14 active torsions:
REMARK  status: ('A' for Active; 'I' for Inactive)
REMARK    1  A    between atoms: C_1  and  C_2
REMARK    2  A    between atoms: C_2  and  C_3
REMARK    3  A    between atoms: C_2  and  N_20
REMARK    4  A    between atoms: C_3  and  C_4
REMARK    5  A    between atoms: C_7  and  O_8
REMARK    6  A    between atoms: O_8  and  C_9
REMARK    7  A    between atoms: C_12  and  C_13
REMARK    8  A    between atoms: N_20  and  C_21
REMARK    9  A    between atoms: C_21  and  C_22
REMARK   10  A    between atoms: C_22  and  O_23
REMARK   11  A    between atoms: C_22  and  C_24
REMARK   12  A    between atoms: C_24  and  O_25
REMARK   13  A    between atoms: O_25  and  C_26
REMARK   14  A    between atoms: N_34  and  C_35
REMARK                            x       y       z     vdW  Elec       q    Type
REMARK                         _______ _______ _______ _____ _____    ______ ____
ROOT
ATOM      1  C   UNL     1       1.179   9.252  22.518  0.00  0.00    +0.000 C 
ATOM      2  C   UNL     1       1.333   8.856  21.041  0.00  0.00    +0.000 C 
ENDROOT
BRANCH   2   3
ATOM      3  N   UNL     1       0.614   9.807  20.175  0.00  0.00    +0.000 NA
ATOM      4  H   UNL     1       0.069   9.270  19.498  0.00  0.00    +0.000 HD
BRANCH   3   5
ATOM      5  C   UNL     1      -0.313  10.680  20.924  0.00  0.00    +0.000 C 
BRANCH   5   6
ATOM      6  C   UNL     1      -0.027  12.164  20.626  0.00  0.00    +0.000 C 
BRANCH   6   7
ATOM      7  O   UNL     1      -0.145  12.905  21.852  0.00  0.00    +0.000 OA
ATOM      8  H   UNL     1      -0.584  13.744  21.632  0.00  0.00    +0.000 HD
ENDBRANCH   6   7
BRANCH   6   9
ATOM      9  C   UNL     1      -1.015  12.679  19.573  0.00  0.00    +0.000 C 
BRANCH   9  10
ATOM     10  O   UNL     1      -2.309  12.074  19.713  0.00  0.00    +0.000 OA
BRANCH  10  11
ATOM     11  C   UNL     1      -2.833  11.665  18.514  0.00  0.00    +0.000 A 
ATOM     12  C   UNL     1      -2.051  11.130  17.472  0.00  0.00    +0.000 A 
ATOM     13  C   UNL     1      -2.607  10.778  16.222  0.00  0.00    +0.000 A 
ATOM     14  C   UNL     1      -3.968  10.929  15.990  0.00  0.00    +0.000 A 
ATOM     15  C   UNL     1      -4.725  11.414  17.033  0.00  0.00    +0.000 A 
ATOM     16  N   UNL     1      -6.097  11.628  17.059  0.00  0.00    +0.000 N 
ATOM     17  C   UNL     1      -6.460  12.100  18.325  0.00  0.00    +0.000 A 
ATOM     18  O   UNL     1      -7.600  12.349  18.679  0.00  0.00    +0.000 OA
ATOM     19  N   UNL     1      -5.275  12.203  19.074  0.00  0.00    +0.000 N 
ATOM     20  C   UNL     1      -5.230  12.548  20.464  0.00  0.00    +0.000 C 
ATOM     21  C   UNL     1      -4.193  11.768  18.281  0.00  0.00    +0.000 A 
ATOM     22  H   UNL     1      -6.754  11.454  16.318  0.00  0.00    +0.000 HD
ENDBRANCH  10  11
ENDBRANCH   9  10
ENDBRANCH   6   9
ENDBRANCH   5   6
ENDBRANCH   3   5
ENDBRANCH   2   3
BRANCH   2  23
ATOM     23  C   UNL     1       0.779   7.428  20.766  0.00  0.00    +0.000 C 
BRANCH  23  24
ATOM     24  C   UNL     1       1.824   6.388  20.427  0.00  0.00    +0.000 A 
ATOM     25  C   UNL     1       2.885   6.709  19.566  0.00  0.00    +0.000 A 
ATOM     26  C   UNL     1       3.805   5.729  19.179  0.00  0.00    +0.000 A 
ATOM     27  C   UNL     1       3.674   4.424  19.649  0.00  0.00    +0.000 A 
ATOM     28  C   UNL     1       2.621   4.102  20.506  0.00  0.00    +0.000 A 
ATOM     29  C   UNL     1       1.743   5.088  20.937  0.00  0.00    +0.000 A 
BRANCH  27  30
ATOM     30  O   UNL     1       4.583   3.500  19.184  0.00  0.00    +0.000 OA
BRANCH  30  31
ATOM     31  C   UNL     1       5.225   3.785  17.986  0.00  0.00    +0.000 A 
ATOM     32  C   UNL     1       6.471   4.384  18.071  0.00  0.00    +0.000 A 
ATOM     33  C   UNL     1       7.118   4.728  16.885  0.00  0.00    +0.000 A 
ATOM     34  C   UNL     1       6.494   4.461  15.663  0.00  0.00    +0.000 A 
ATOM     35  C   UNL     1       5.249   3.851  15.679  0.00  0.00    +0.000 A 
ATOM     36  N   UNL     1       4.617   3.479  16.815  0.00  0.00    +0.000 NA
BRANCH  34  37
ATOM     37  C   UNL     1       7.084   4.819  14.360  0.00  0.00    +0.000 C 
ATOM     38  N   UNL     1       6.546   4.228  13.253  0.00  0.00    +0.000 N 
ATOM     39  O   UNL     1       7.991   5.636  14.270  0.00  0.00    +0.000 OA
ATOM     40  H   UNL     1       5.657   3.750  13.263  0.00  0.00    +0.000 HD
ATOM     41  H   UNL     1       6.887   4.561  12.361  0.00  0.00    +0.000 HD
ENDBRANCH  34  37
ENDBRANCH  30  31
ENDBRANCH  27  30
ENDBRANCH  23  24
ENDBRANCH   2  23
TORSDOF 12
ENDMDL
MODEL 9
REMARK VINA RESULT:      -7.5      1.204      1.303
REMARK  Name = 
REMARK  14 active torsions:
REMARK  status: ('A' for Active; 'I' for Inactive)
REMARK    1  A    between atoms: C_1  and  C_2
REMARK    2  A    between atoms: C_2  and  C_3
REMARK    3  A    between atoms: C_2  and  N_20
REMARK    4  A    between atoms: C_3  and  C_4
REMARK    5  A    between atoms: C_7  and  O_8
REMARK    6  A    between atoms: O_8  and  C_9
REMARK    7  A    between atoms: C_12  and  C_13
REMARK    8  A    between atoms: N_20  and  C_21
REMARK    9  A    between atoms: C_21  and  C_22
REMARK   10  A    between atoms: C_22  and  O_23
REMARK   11  A    between atoms: C_22  and  C_24
REMARK   12  A    between atoms: C_24  and  O_25
REMARK   13  A    between atoms: O_25  and  C_26
REMARK   14  A    between atoms: N_34  and  C_35
REMARK                            x       y       z     vdW  Elec       q    Type
REMARK                         _______ _______ _______ _____ _____    ______ ____
ROOT
ATOM      1  C   UNL     1       1.410   3.686  21.249  0.00  0.00    +0.000 C 
ATOM      2  C   UNL     1       1.645   4.773  20.188  0.00  0.00    +0.000 C 
ENDROOT
BRANCH   2   3
ATOM      3  N   UNL     1       2.488   4.254  19.096  0.00  0.00    +0.000 NA
ATOM      4  H   UNL     1       3.168   3.609  19.501  0.00  0.00    +0.000 HD
BRANCH   3   5
ATOM      5  C   UNL     1       1.715   3.524  18.070  0.00  0.00    +0.000 C 
BRANCH   5   6
ATOM      6  C   UNL     1       2.327   2.136  17.810  0.00  0.00    +0.000 C 
BRANCH   6   7
ATOM      7  O   UNL     1       2.617   1.522  19.077  0.00  0.00    +0.000 OA
ATOM      8  H   UNL     1       3.233   2.114  19.541  0.00  0.00    +0.000 HD
ENDBRANCH   6   7
BRANCH   6   9
ATOM      9  C   UNL     1       3.598   2.280  16.964  0.00  0.00    +0.000 C 
BRANCH   9  10
ATOM     10  O   UNL     1       4.463   3.308  17.471  0.00  0.00    +0.000 OA
BRANCH  10  11
ATOM     11  C   UNL     1       5.205   3.907  16.486  0.00  0.00    +0.000 A 
ATOM     12  C   UNL     1       5.081   3.583  15.121  0.00  0.00    +0.000 A 
ATOM     13  C   UNL     1       5.905   4.168  14.134  0.00  0.00    +0.000 A 
ATOM     14  C   UNL     1       6.859   5.114  14.485  0.00  0.00    +0.000 A 
ATOM     15  C   UNL     1       6.939   5.450  15.818  0.00  0.00    +0.000 A 
ATOM     16  N   UNL     1       7.786   6.378  16.410  0.00  0.00    +0.000 N 
ATOM     17  C   UNL     1       7.515   6.430  17.782  0.00  0.00    +0.000 A 
ATOM     18  O   UNL     1       8.065   7.174  18.577  0.00  0.00    +0.000 OA
ATOM     19  N   UNL     1       6.502   5.488  18.031  0.00  0.00    +0.000 N 
ATOM     20  C   UNL     1       5.863   5.310  19.302  0.00  0.00    +0.000 C 
ATOM     21  C   UNL     1       6.131   4.882  16.813  0.00  0.00    +0.000 A 
ATOM     22  H   UNL     1       8.470   6.957  15.954  0.00  0.00    +0.000 HD
ENDBRANCH  10  11
ENDBRANCH   9  10
ENDBRANCH   6   9
ENDBRANCH   5   6
ENDBRANCH   3   5
ENDBRANCH   2   3
BRANCH   2  23
ATOM     23  C   UNL     1       2.341   6.028  20.790  0.00  0.00    +0.000 C 
BRANCH  23  24
ATOM     24  C   UNL     1       1.953   7.345  20.155  0.00  0.00    +0.000 A 
ATOM     25  C   UNL     1       1.175   8.270  20.868  0.00  0.00    +0.000 A 
ATOM     26  C   UNL     1       0.739   9.450  20.257  0.00  0.00    +0.000 A 
ATOM     27  C   UNL     1       1.077   9.716  18.930  0.00  0.00    +0.000 A 
ATOM     28  C   UNL     1       1.851   8.798  18.219  0.00  0.00    +0.000 A 
ATOM     29  C   UNL     1       2.333   7.656  18.845  0.00  0.00    +0.000 A 
BRANCH  27  30
ATOM     30  O   UNL     1       0.568  10.869  18.377  0.00  0.00    +0.000 OA
BRANCH  30  31
ATOM     31  C   UNL     1      -0.604  11.375  18.924  0.00  0.00    +0.000 A 
ATOM     32  C   UNL     1      -1.791  11.007  18.311  0.00  0.00    +0.000 A 
ATOM     33  C   UNL     1      -2.979  11.540  18.807  0.00  0.00    +0.000 A 
ATOM     34  C   UNL     1      -2.935  12.417  19.894  0.00  0.00    +0.000 A 
ATOM     35  C   UNL     1      -1.700  12.718  20.447  0.00  0.00    +0.000 A 
ATOM     36  N   UNL     1      -0.537  12.190  20.003  0.00  0.00    +0.000 NA
BRANCH  34  37
ATOM     37  C   UNL     1      -4.135  13.056  20.465  0.00  0.00    +0.000 C 
ATOM     38  N   UNL     1      -4.474  14.285  19.977  0.00  0.00    +0.000 N 
ATOM     39  O   UNL     1      -4.818  12.495  21.311  0.00  0.00    +0.000 OA
ATOM     40  H   UNL     1      -4.089  14.663  19.123  0.00  0.00    +0.000 HD
ATOM     41  H   UNL     1      -5.355  14.664  20.298  0.00  0.00    +0.000 HD
ENDBRANCH  34  37
ENDBRANCH  30  31
ENDBRANCH  27  30
ENDBRANCH  23  24
ENDBRANCH   2  23
TORSDOF 12
ENDMDL
