MODEL 1
REMARK VINA RESULT:      -7.6      0.000      0.000
REMARK  Name = 
REMARK  9 active torsions:
REMARK  status: ('A' for Active; 'I' for Inactive)
REMARK    1  A    between atoms: C_1  and  C_2
REMARK    2  A    between atoms: C_2  and  C_3
REMARK    3  A    between atoms: C_7  and  N_8
REMARK    4  A    between atoms: N_8  and  C_9
REMARK    5  A    between atoms: N_17  and  C1*_18
REMARK    6  A    between atoms: C4*_20  and  C5*_21
REMARK    7  A    between atoms: C5*_21  and  O5*_22
REMARK    8  A    between atoms: C3*_23  and  O3*_24
REMARK    9  A    between atoms: C2*_25  and  O2*_26
REMARK                            x       y       z     vdW  Elec       q    Type
REMARK                         _______ _______ _______ _____ _____    ______ ____
ROOT
ATOM      1  C   UNL     1       6.618   5.465  16.576  0.00  0.00    +0.000 A 
ATOM      2  N   UNL     1       7.699   5.125  17.335  0.00  0.00    +0.000 NA
ATOM      3  C   UNL     1       7.519   4.573  18.545  0.00  0.00    +0.000 A 
ATOM      4  N   UNL     1       6.357   4.287  19.152  0.00  0.00    +0.000 NA
ATOM      5  C   UNL     1       5.313   4.649  18.393  0.00  0.00    +0.000 A 
ATOM      6  C   UNL     1       5.348   5.233  17.136  0.00  0.00    +0.000 A 
ATOM      7  N   UNL     1       4.069   5.438  16.659  0.00  0.00    +0.000 NA
ATOM      8  C   UNL     1       3.279   4.980  17.609  0.00  0.00    +0.000 A 
ATOM      9  N   UNL     1       3.987   4.488  18.675  0.00  0.00    +0.000 N 
ENDROOT
BRANCH   9  10
ATOM     10  C1* UNL     1       3.422   3.879  19.861  0.00  0.00    +0.000 C 
ATOM     11  O4* UNL     1       3.120   2.491  19.586  0.00  0.00    +0.000 OA
ATOM     12  C4* UNL     1       1.824   2.176  20.155  0.00  0.00    +0.000 C 
ATOM     13  C3* UNL     1       1.440   3.360  21.038  0.00  0.00    +0.000 C 
ATOM     14  C2* UNL     1       2.139   4.537  20.373  0.00  0.00    +0.000 C 
BRANCH  13  15
ATOM     15  O3* UNL     1       1.977   3.231  22.369  0.00  0.00    +0.000 OA
ATOM     16  H3* UNL     1       2.887   3.581  22.381  0.00  0.00    +0.000 HD
ENDBRANCH  13  15
BRANCH  14  17
ATOM     17  O2* UNL     1       2.397   5.585  21.308  0.00  0.00    +0.000 OA
ATOM     18  H2* UNL     1       3.270   5.384  21.709  0.00  0.00    +0.000 HD
ENDBRANCH  14  17
BRANCH  12  19
ATOM     19  C5* UNL     1       0.809   1.913  19.038  0.00  0.00    +0.000 C 
BRANCH  19  20
ATOM     20  O5* UNL     1       1.473   1.864  17.778  0.00  0.00    +0.000 OA
ATOM     21  H5* UNL     1       0.775   1.709  17.111  0.00  0.00    +0.000 HD
ENDBRANCH  19  20
ENDBRANCH  12  19
ENDBRANCH   9  10
BRANCH   1  22
ATOM     22  N   UNL     1       6.747   5.968  15.268  0.00  0.00    +0.000 N 
ATOM     23  H   UNL     1       6.306   6.879  15.187  0.00  0.00    +0.000 HD
BRANCH  22  28
ATOM     24  C   UNL     1       6.072   3.626  12.415  0.00  0.00    +0.000 A 
ATOM     25  C   UNL     1       7.134   3.950  11.570  0.00  0.00    +0.000 A 
ATOM     26  C   UNL     1       8.079   4.892  11.973  0.00  0.00    +0.000 A 
ATOM     27  C   UNL     1       7.957   5.530  13.212  0.00  0.00    +0.000 A 
ATOM     28  C   UNL     1       6.877   5.255  14.062  0.00  0.00    +0.000 A 
ATOM     29  C   UNL     1       5.968   4.272  13.654  0.00  0.00    +0.000 A 
BRANCH  24  31
ATOM     30  C   UNL     1       3.970   3.143  11.162  0.00  0.00    +0.000 C 
ATOM     31  C   UNL     1       5.067   2.567  12.046  0.00  0.00    +0.000 C 
ENDBRANCH  24  31
ENDBRANCH  22  28
ENDBRANCH   1  22
TORSDOF 8
ENDMDL
MODEL 2
REMARK VINA RESULT:      -7.5      5.564      8.182
REMARK  Name = 
REMARK  9 active torsions:
REMARK  status: ('A' for Active; 'I' for Inactive)
REMARK    1  A    between atoms: C_1  and  C_2
REMARK    2  A    between atoms: C_2  and  C_3
REMARK    3  A    between atoms: C_7  and  N_8
REMARK    4  A    between atoms: N_8  and  C_9
REMARK    5  A    between atoms: N_17  and  C1*_18
REMARK    6  A    between atoms: C4*_20  and  C5*_21
REMARK    7  A    between atoms: C5*_21  and  O5*_22
REMARK    8  A    between atoms: C3*_23  and  O3*_24
REMARK    9  A    between atoms: C2*_25  and  O2*_26
REMARK                            x       y       z     vdW  Elec       q    Type
REMARK                         _______ _______ _______ _____ _____    ______ ____
ROOT
ATOM      1  C   UNL     1       0.749   9.440  19.588  0.00  0.00    +0.000 A 
ATOM      2  N   UNL     1       0.499   8.980  20.846  0.00  0.00    +0.000 NA
ATOM      3  C   UNL     1       1.134   7.885  21.296  0.00  0.00    +0.000 A 
ATOM      4  N   UNL     1       2.035   7.135  20.647  0.00  0.00    +0.000 NA
ATOM      5  C   UNL     1       2.247   7.597  19.407  0.00  0.00    +0.000 A 
ATOM      6  C   UNL     1       1.661   8.703  18.809  0.00  0.00    +0.000 A 
ATOM      7  N   UNL     1       2.148   8.880  17.529  0.00  0.00    +0.000 NA
ATOM      8  C   UNL     1       3.015   7.902  17.362  0.00  0.00    +0.000 A 
ATOM      9  N   UNL     1       3.113   7.104  18.474  0.00  0.00    +0.000 N 
ENDROOT
BRANCH   9  10
ATOM     10  C1* UNL     1       4.000   5.971  18.629  0.00  0.00    +0.000 C 
ATOM     11  O4* UNL     1       5.211   6.208  17.873  0.00  0.00    +0.000 OA
ATOM     12  C4* UNL     1       5.573   4.985  17.182  0.00  0.00    +0.000 C 
ATOM     13  C3* UNL     1       4.682   3.886  17.753  0.00  0.00    +0.000 C 
ATOM     14  C2* UNL     1       3.422   4.632  18.167  0.00  0.00    +0.000 C 
BRANCH  13  15
ATOM     15  O3* UNL     1       5.250   3.300  18.940  0.00  0.00    +0.000 OA
ATOM     16  H3* UNL     1       6.163   3.624  19.051  0.00  0.00    +0.000 HD
ENDBRANCH  13  15
BRANCH  14  17
ATOM     17  O2* UNL     1       2.730   3.946  19.210  0.00  0.00    +0.000 OA
ATOM     18  H2* UNL     1       1.773   4.091  19.043  0.00  0.00    +0.000 HD
ENDBRANCH  14  17
BRANCH  12  19
ATOM     19  C5* UNL     1       5.403   5.165  15.670  0.00  0.00    +0.000 C 
BRANCH  19  20
ATOM     20  O5* UNL     1       5.480   6.547  15.332  0.00  0.00    +0.000 OA
ATOM     21  H5* UNL     1       4.596   6.920  15.516  0.00  0.00    +0.000 HD
ENDBRANCH  19  20
ENDBRANCH  12  19
ENDBRANCH   9  10
BRANCH   1  22
ATOM     22  N   UNL     1       0.177  10.628  19.094  0.00  0.00    +0.000 N 
ATOM     23  H   UNL     1       0.596  11.440  19.537  0.00  0.00    +0.000 HD
BRANCH  22  28
ATOM     24  C   UNL     1      -2.908  10.303  16.983  0.00  0.00    +0.000 A 
ATOM     25  C   UNL     1      -3.755  11.194  17.641  0.00  0.00    +0.000 A 
ATOM     26  C   UNL     1      -3.284  11.922  18.733  0.00  0.00    +0.000 A 
ATOM     27  C   UNL     1      -1.972  11.748  19.184  0.00  0.00    +0.000 A 
ATOM     28  C   UNL     1      -1.112  10.829  18.568  0.00  0.00    +0.000 A 
ATOM     29  C   UNL     1      -1.594  10.144  17.447  0.00  0.00    +0.000 A 
BRANCH  24  31
ATOM     30  C   UNL     1      -3.071  10.340  14.494  0.00  0.00    +0.000 C 
ATOM     31  C   UNL     1      -3.356   9.545  15.760  0.00  0.00    +0.000 C 
ENDBRANCH  24  31
ENDBRANCH  22  28
ENDBRANCH   1  22
TORSDOF 8
ENDMDL
MODEL 3
REMARK VINA RESULT:      -7.5      0.943      1.189
REMARK  Name = 
REMARK  9 active torsions:
REMARK  status: ('A' for Active; 'I' for Inactive)
REMARK    1  A    between atoms: C_1  and  C_2
REMARK    2  A    between atoms: C_2  and  C_3
REMARK    3  A    between atoms: C_7  and  N_8
REMARK    4  A    between atoms: N_8  and  C_9
REMARK    5  A    between atoms: N_17  and  C1*_18
REMARK    6  A    between atoms: C4*_20  and  C5*_21
REMARK    7  A    between atoms: C5*_21  and  O5*_22
REMARK    8  A    between atoms: C3*_23  and  O3*_24
REMARK    9  A    between atoms: C2*_25  and  O2*_26
REMARK                            x       y       z     vdW  Elec       q    Type
REMARK                         _______ _______ _______ _____ _____    ______ ____
ROOT
ATOM      1  C   UNL     1       6.669   4.847  15.743  0.00  0.00    +0.000 A 
ATOM      2  N   UNL     1       7.792   4.713  16.503  0.00  0.00    +0.000 NA
ATOM      3  C   UNL     1       7.684   4.424  17.810  0.00  0.00    +0.000 A 
ATOM      4  N   UNL     1       6.562   4.234  18.518  0.00  0.00    +0.000 NA
ATOM      5  C   UNL     1       5.474   4.391  17.752  0.00  0.00    +0.000 A 
ATOM      6  C   UNL     1       5.433   4.696  16.400  0.00  0.00    +0.000 A 
ATOM      7  N   UNL     1       4.128   4.752  15.953  0.00  0.00    +0.000 NA
ATOM      8  C   UNL     1       3.397   4.480  17.015  0.00  0.00    +0.000 A 
ATOM      9  N   UNL     1       4.168   4.248  18.125  0.00  0.00    +0.000 N 
ENDROOT
BRANCH   9  10
ATOM     10  C1* UNL     1       3.677   3.886  19.438  0.00  0.00    +0.000 C 
ATOM     11  O4* UNL     1       3.286   2.493  19.432  0.00  0.00    +0.000 OA
ATOM     12  C4* UNL     1       2.029   2.361  20.144  0.00  0.00    +0.000 C 
ATOM     13  C3* UNL     1       1.781   3.700  20.834  0.00  0.00    +0.000 C 
ATOM     14  C2* UNL     1       2.477   4.701  19.924  0.00  0.00    +0.000 C 
BRANCH  13  15
ATOM     15  O3* UNL     1       2.423   3.764  22.123  0.00  0.00    +0.000 OA
ATOM     16  H3* UNL     1       3.327   4.112  22.012  0.00  0.00    +0.000 HD
ENDBRANCH  13  15
BRANCH  14  17
ATOM     17  O2* UNL     1       2.865   5.874  20.640  0.00  0.00    +0.000 OA
ATOM     18  H2* UNL     1       2.035   6.361  20.834  0.00  0.00    +0.000 HD
ENDBRANCH  14  17
BRANCH  12  19
ATOM     19  C5* UNL     1       0.911   1.977  19.171  0.00  0.00    +0.000 C 
BRANCH  19  20
ATOM     20  O5* UNL     1       1.458   1.707  17.882  0.00  0.00    +0.000 OA
ATOM     21  H5* UNL     1       2.373   1.402  18.036  0.00  0.00    +0.000 HD
ENDBRANCH  19  20
ENDBRANCH  12  19
ENDBRANCH   9  10
BRANCH   1  22
ATOM     22  N   UNL     1       6.723   5.066  14.354  0.00  0.00    +0.000 N 
ATOM     23  H   UNL     1       6.608   6.051  14.139  0.00  0.00    +0.000 HD
BRANCH  22  28
ATOM     24  C   UNL     1       4.782   3.206  11.735  0.00  0.00    +0.000 A 
ATOM     25  C   UNL     1       5.809   2.475  11.137  0.00  0.00    +0.000 A 
ATOM     26  C   UNL     1       7.107   2.566  11.635  0.00  0.00    +0.000 A 
ATOM     27  C   UNL     1       7.391   3.403  12.719  0.00  0.00    +0.000 A 
ATOM     28  C   UNL     1       6.387   4.181  13.312  0.00  0.00    +0.000 A 
ATOM     29  C   UNL     1       5.084   4.037  12.823  0.00  0.00    +0.000 A 
BRANCH  24  31
ATOM     30  C   UNL     1       3.155   3.798   9.939  0.00  0.00    +0.000 C 
ATOM     31  C   UNL     1       3.354   3.087  11.269  0.00  0.00    +0.000 C 
ENDBRANCH  24  31
ENDBRANCH  22  28
ENDBRANCH   1  22
TORSDOF 8
ENDMDL
MODEL 4
REMARK VINA RESULT:      -7.4      5.035      6.997
REMARK  Name = 
REMARK  9 active torsions:
REMARK  status: ('A' for Active; 'I' for Inactive)
REMARK    1  A    between atoms: C_1  and  C_2
REMARK    2  A    between atoms: C_2  and  C_3
REMARK    3  A    between atoms: C_7  and  N_8
REMARK    4  A    between atoms: N_8  and  C_9
REMARK    5  A    between atoms: N_17  and  C1*_18
REMARK    6  A    between atoms: C4*_20  and  C5*_21
REMARK    7  A    between atoms: C5*_21  and  O5*_22
REMARK    8  A    between atoms: C3*_23  and  O3*_24
REMARK    9  A    between atoms: C2*_25  and  O2*_26
REMARK                            x       y       z     vdW  Elec       q    Type
REMARK                         _______ _______ _______ _____ _____    ______ ____
ROOT
ATOM      1  C   UNL     1       2.622   6.232  18.715  0.00  0.00    +0.000 A 
ATOM      2  N   UNL     1       2.279   5.710  19.926  0.00  0.00    +0.000 NA
ATOM      3  C   UNL     1       1.651   6.478  20.832  0.00  0.00    +0.000 A 
ATOM      4  N   UNL     1       1.288   7.763  20.707  0.00  0.00    +0.000 NA
ATOM      5  C   UNL     1       1.655   8.256  19.516  0.00  0.00    +0.000 A 
ATOM      6  C   UNL     1       2.312   7.587  18.494  0.00  0.00    +0.000 A 
ATOM      7  N   UNL     1       2.497   8.420  17.408  0.00  0.00    +0.000 NA
ATOM      8  C   UNL     1       1.957   9.566  17.769  0.00  0.00    +0.000 A 
ATOM      9  N   UNL     1       1.429   9.513  19.034  0.00  0.00    +0.000 N 
ENDROOT
BRANCH   9  10
ATOM     10  C1* UNL     1       0.733  10.588  19.708  0.00  0.00    +0.000 C 
ATOM     11  O4* UNL     1      -0.693  10.350  19.638  0.00  0.00    +0.000 OA
ATOM     12  C4* UNL     1      -1.357  11.601  19.329  0.00  0.00    +0.000 C 
ATOM     13  C3* UNL     1      -0.305  12.697  19.474  0.00  0.00    +0.000 C 
ATOM     14  C2* UNL     1       0.996  11.983  19.139  0.00  0.00    +0.000 C 
BRANCH  13  15
ATOM     15  O3* UNL     1      -0.206  13.167  20.832  0.00  0.00    +0.000 OA
ATOM     16  H3* UNL     1      -1.058  13.022  21.283  0.00  0.00    +0.000 HD
ENDBRANCH  13  15
BRANCH  14  17
ATOM     17  O2* UNL     1       2.114  12.623  19.754  0.00  0.00    +0.000 OA
ATOM     18  H2* UNL     1       1.779  13.474  20.111  0.00  0.00    +0.000 HD
ENDBRANCH  14  17
BRANCH  12  19
ATOM     19  C5* UNL     1      -1.965  11.540  17.924  0.00  0.00    +0.000 C 
BRANCH  19  20
ATOM     20  O5* UNL     1      -1.481  12.625  17.137  0.00  0.00    +0.000 OA
ATOM     21  H5* UNL     1      -0.667  12.303  16.704  0.00  0.00    +0.000 HD
ENDBRANCH  19  20
ENDBRANCH  12  19
ENDBRANCH   9  10
BRANCH   1  22
ATOM     22  N   UNL     1       3.204   5.453  17.698  0.00  0.00    +0.000 N 
ATOM     23  H   UNL     1       2.647   4.624  17.515  0.00  0.00    +0.000 HD
BRANCH  22  28
ATOM     24  C   UNL     1       6.922   5.957  17.610  0.00  0.00    +0.000 A 
ATOM     25  C   UNL     1       7.277   5.021  16.638  0.00  0.00    +0.000 A 
ATOM     26  C   UNL     1       6.288   4.279  15.994  0.00  0.00    +0.000 A 
ATOM     27  C   UNL     1       4.942   4.454  16.332  0.00  0.00    +0.000 A 
ATOM     28  C   UNL     1       4.560   5.356  17.334  0.00  0.00    +0.000 A 
ATOM     29  C   UNL     1       5.568   6.121  17.933  0.00  0.00    +0.000 A 
BRANCH  24  31
ATOM     30  C   UNL     1       7.928   8.237  17.716  0.00  0.00    +0.000 C 
ATOM     31  C   UNL     1       7.953   6.825  18.282  0.00  0.00    +0.000 C 
ENDBRANCH  24  31
ENDBRANCH  22  28
ENDBRANCH   1  22
TORSDOF 8
ENDMDL
MODEL 5
REMARK VINA RESULT:      -7.3      4.254      6.172
REMARK  Name = 
REMARK  9 active torsions:
REMARK  status: ('A' for Active; 'I' for Inactive)
REMARK    1  A    between atoms: C_1  and  C_2
REMARK    2  A    between atoms: C_2  and  C_3
REMARK    3  A    between atoms: C_7  and  N_8
REMARK    4  A    between atoms: N_8  and  C_9
REMARK    5  A    between atoms: N_17  and  C1*_18
REMARK    6  A    between atoms: C4*_20  and  C5*_21
REMARK    7  A    between atoms: C5*_21  and  O5*_22
REMARK    8  A    between atoms: C3*_23  and  O3*_24
REMARK    9  A    between atoms: C2*_25  and  O2*_26
REMARK                            x       y       z     vdW  Elec       q    Type
REMARK                         _______ _______ _______ _____ _____    ______ ____
ROOT
ATOM      1  C   UNL     1       7.574   7.427  18.000  0.00  0.00    +0.000 A 
ATOM      2  N   UNL     1       8.399   6.778  18.870  0.00  0.00    +0.000 NA
ATOM      3  C   UNL     1       8.107   5.526  19.260  0.00  0.00    +0.000 A 
ATOM      4  N   UNL     1       7.058   4.776  18.892  0.00  0.00    +0.000 NA
ATOM      5  C   UNL     1       6.255   5.445  18.054  0.00  0.00    +0.000 A 
ATOM      6  C   UNL     1       6.424   6.736  17.576  0.00  0.00    +0.000 A 
ATOM      7  N   UNL     1       5.401   7.073  16.711  0.00  0.00    +0.000 NA
ATOM      8  C   UNL     1       4.634   6.002  16.666  0.00  0.00    +0.000 A 
ATOM      9  N   UNL     1       5.114   4.990  17.458  0.00  0.00    +0.000 N 
ENDROOT
BRANCH   9  10
ATOM     10  C1* UNL     1       4.528   3.674  17.599  0.00  0.00    +0.000 C 
ATOM     11  O4* UNL     1       3.302   3.614  16.833  0.00  0.00    +0.000 OA
ATOM     12  C4* UNL     1       2.295   2.932  17.623  0.00  0.00    +0.000 C 
ATOM     13  C3* UNL     1       3.022   2.324  18.819  0.00  0.00    +0.000 C 
ATOM     14  C2* UNL     1       4.195   3.268  19.036  0.00  0.00    +0.000 C 
BRANCH  13  15
ATOM     15  O3* UNL     1       3.560   1.024  18.513  0.00  0.00    +0.000 OA
ATOM     16  H3* UNL     1       3.309   0.780  17.603  0.00  0.00    +0.000 HD
ENDBRANCH  13  15
BRANCH  14  17
ATOM     17  O2* UNL     1       5.282   2.607  19.684  0.00  0.00    +0.000 OA
ATOM     18  H2* UNL     1       5.299   1.694  19.325  0.00  0.00    +0.000 HD
ENDBRANCH  14  17
BRANCH  12  19
ATOM     19  C5* UNL     1       1.193   3.915  18.032  0.00  0.00    +0.000 C 
BRANCH  19  20
ATOM     20  O5* UNL     1       1.110   3.991  19.452  0.00  0.00    +0.000 OA
ATOM     21  H5* UNL     1       0.624   3.193  19.738  0.00  0.00    +0.000 HD
ENDBRANCH  19  20
ENDBRANCH  12  19
ENDBRANCH   9  10
BRANCH   1  22
ATOM     22  N   UNL     1       7.873   8.705  17.494  0.00  0.00    +0.000 N 
ATOM     23  H   UNL     1       8.048   8.665  16.494  0.00  0.00    +0.000 HD
BRANCH  22  28
ATOM     24  C   UNL     1       8.952  12.193  18.363  0.00  0.00    +0.000 A 
ATOM     25  C   UNL     1       9.529  11.970  19.614  0.00  0.00    +0.000 A 
ATOM     26  C   UNL     1       9.599  10.676  20.126  0.00  0.00    +0.000 A 
ATOM     27  C   UNL     1       9.076   9.600  19.401  0.00  0.00    +0.000 A 
ATOM     28  C   UNL     1       8.453   9.800  18.161  0.00  0.00    +0.000 A 
ATOM     29  C   UNL     1       8.436  11.103  17.649  0.00  0.00    +0.000 A 
BRANCH  24  31
ATOM     30  C   UNL     1      10.317  14.143  17.616  0.00  0.00    +0.000 C 
ATOM     31  C   UNL     1       8.915  13.566  17.746  0.00  0.00    +0.000 C 
ENDBRANCH  24  31
ENDBRANCH  22  28
ENDBRANCH   1  22
TORSDOF 8
ENDMDL
MODEL 6
REMARK VINA RESULT:      -7.3      7.295      9.944
REMARK  Name = 
REMARK  9 active torsions:
REMARK  status: ('A' for Active; 'I' for Inactive)
REMARK    1  A    between atoms: C_1  and  C_2
REMARK    2  A    between atoms: C_2  and  C_3
REMARK    3  A    between atoms: C_7  and  N_8
REMARK    4  A    between atoms: N_8  and  C_9
REMARK    5  A    between atoms: N_17  and  C1*_18
REMARK    6  A    between atoms: C4*_20  and  C5*_21
REMARK    7  A    between atoms: C5*_21  and  O5*_22
REMARK    8  A    between atoms: C3*_23  and  O3*_24
REMARK    9  A    between atoms: C2*_25  and  O2*_26
REMARK                            x       y       z     vdW  Elec       q    Type
REMARK                         _______ _______ _______ _____ _____    ______ ____
ROOT
ATOM      1  C   UNL     1       1.047   9.165  20.468  0.00  0.00    +0.000 A 
ATOM      2  N   UNL     1       1.151   9.718  19.226  0.00  0.00    +0.000 NA
ATOM      3  C   UNL     1       0.494  10.856  18.945  0.00  0.00    +0.000 A 
ATOM      4  N   UNL     1      -0.295  11.571  19.760  0.00  0.00    +0.000 NA
ATOM      5  C   UNL     1      -0.395  10.994  20.965  0.00  0.00    +0.000 A 
ATOM      6  C   UNL     1       0.215   9.824  21.392  0.00  0.00    +0.000 A 
ATOM      7  N   UNL     1      -0.106   9.560  22.709  0.00  0.00    +0.000 NA
ATOM      8  C   UNL     1      -0.890  10.556  23.069  0.00  0.00    +0.000 A 
ATOM      9  N   UNL     1      -1.088  11.451  22.049  0.00  0.00    +0.000 N 
ENDROOT
BRANCH   9  10
ATOM     10  C1* UNL     1      -1.864  12.671  22.129  0.00  0.00    +0.000 C 
ATOM     11  O4* UNL     1      -2.159  12.956  23.517  0.00  0.00    +0.000 OA
ATOM     12  C4* UNL     1      -3.542  13.382  23.619  0.00  0.00    +0.000 C 
ATOM     13  C3* UNL     1      -4.030  13.611  22.191  0.00  0.00    +0.000 C 
ATOM     14  C2* UNL     1      -3.192  12.641  21.372  0.00  0.00    +0.000 C 
BRANCH  13  15
ATOM     15  O3* UNL     1      -3.728  14.942  21.730  0.00  0.00    +0.000 OA
ATOM     16  H3* UNL     1      -2.912  14.918  21.198  0.00  0.00    +0.000 HD
ENDBRANCH  13  15
BRANCH  14  17
ATOM     17  O2* UNL     1      -3.061  13.079  20.019  0.00  0.00    +0.000 OA
ATOM     18  H2* UNL     1      -3.820  13.680  19.853  0.00  0.00    +0.000 HD
ENDBRANCH  14  17
BRANCH  12  19
ATOM     19  C5* UNL     1      -4.363  12.326  24.367  0.00  0.00    +0.000 C 
BRANCH  19  20
ATOM     20  O5* UNL     1      -4.383  12.623  25.761  0.00  0.00    +0.000 OA
ATOM     21  H5* UNL     1      -3.453  12.587  26.058  0.00  0.00    +0.000 HD
ENDBRANCH  19  20
ENDBRANCH  12  19
ENDBRANCH   9  10
BRANCH   1  22
ATOM     22  N   UNL     1       1.778   8.023  20.845  0.00  0.00    +0.000 N 
ATOM     23  H   UNL     1       2.551   8.274  21.453  0.00  0.00    +0.000 HD
BRANCH  22  28
ATOM     24  C   UNL     1       1.553   4.401  19.890  0.00  0.00    +0.000 A 
ATOM     25  C   UNL     1       2.166   4.435  18.637  0.00  0.00    +0.000 A 
ATOM     26  C   UNL     1       2.687   5.633  18.152  0.00  0.00    +0.000 A 
ATOM     27  C   UNL     1       2.580   6.807  18.905  0.00  0.00    +0.000 A 
ATOM     28  C   UNL     1       1.931   6.810  20.148  0.00  0.00    +0.000 A 
ATOM     29  C   UNL     1       1.458   5.586  20.633  0.00  0.00    +0.000 A 
BRANCH  24  31
ATOM     30  C   UNL     1       1.890   2.676  21.660  0.00  0.00    +0.000 C 
ATOM     31  C   UNL     1       1.036   3.114  20.480  0.00  0.00    +0.000 C 
ENDBRANCH  24  31
ENDBRANCH  22  28
ENDBRANCH   1  22
TORSDOF 8
ENDMDL
MODEL 7
REMARK VINA RESULT:      -7.3      3.735      6.091
REMARK  Name = 
REMARK  9 active torsions:
REMARK  status: ('A' for Active; 'I' for Inactive)
REMARK    1  A    between atoms: C_1  and  C_2
REMARK    2  A    between atoms: C_2  and  C_3
REMARK    3  A    between atoms: C_7  and  N_8
REMARK    4  A    between atoms: N_8  and  C_9
REMARK    5  A    between atoms: N_17  and  C1*_18
REMARK    6  A    between atoms: C4*_20  and  C5*_21
REMARK    7  A    between atoms: C5*_21  and  O5*_22
REMARK    8  A    between atoms: C3*_23  and  O3*_24
REMARK    9  A    between atoms: C2*_25  and  O2*_26
REMARK                            x       y       z     vdW  Elec       q    Type
REMARK                         _______ _______ _______ _____ _____    ______ ____
ROOT
ATOM      1  C   UNL     1       7.494   6.645  17.776  0.00  0.00    +0.000 A 
ATOM      2  N   UNL     1       7.530   6.644  16.413  0.00  0.00    +0.000 NA
ATOM      3  C   UNL     1       6.622   5.936  15.721  0.00  0.00    +0.000 A 
ATOM      4  N   UNL     1       5.622   5.186  16.207  0.00  0.00    +0.000 NA
ATOM      5  C   UNL     1       5.623   5.189  17.547  0.00  0.00    +0.000 A 
ATOM      6  C   UNL     1       6.498   5.862  18.387  0.00  0.00    +0.000 A 
ATOM      7  N   UNL     1       6.166   5.643  19.710  0.00  0.00    +0.000 NA
ATOM      8  C   UNL     1       5.110   4.857  19.666  0.00  0.00    +0.000 A 
ATOM      9  N   UNL     1       4.741   4.561  18.378  0.00  0.00    +0.000 N 
ENDROOT
BRANCH   9  10
ATOM     10  C1* UNL     1       3.602   3.758  17.986  0.00  0.00    +0.000 C 
ATOM     11  O4* UNL     1       2.389   4.519  18.189  0.00  0.00    +0.000 OA
ATOM     12  C4* UNL     1       1.391   3.653  18.785  0.00  0.00    +0.000 C 
ATOM     13  C3* UNL     1       1.945   2.233  18.700  0.00  0.00    +0.000 C 
ATOM     14  C2* UNL     1       3.452   2.439  18.747  0.00  0.00    +0.000 C 
BRANCH  13  15
ATOM     15  O3* UNL     1       1.630   1.611  17.439  0.00  0.00    +0.000 OA
ATOM     16  H3* UNL     1       1.921   0.681  17.460  0.00  0.00    +0.000 HD
ENDBRANCH  13  15
BRANCH  14  17
ATOM     17  O2* UNL     1       4.144   1.361  18.117  0.00  0.00    +0.000 OA
ATOM     18  H2* UNL     1       4.010   0.577  18.692  0.00  0.00    +0.000 HD
ENDBRANCH  14  17
BRANCH  12  19
ATOM     19  C5* UNL     1       1.102   4.094  20.223  0.00  0.00    +0.000 C 
BRANCH  19  20
ATOM     20  O5* UNL     1       0.790   2.960  21.027  0.00  0.00    +0.000 OA
ATOM     21  H5* UNL     1       0.401   3.312  21.852  0.00  0.00    +0.000 HD
ENDBRANCH  19  20
ENDBRANCH  12  19
ENDBRANCH   9  10
BRANCH   1  22
ATOM     22  N   UNL     1       8.365   7.434  18.550  0.00  0.00    +0.000 N 
ATOM     23  H   UNL     1       8.567   6.984  19.437  0.00  0.00    +0.000 HD
BRANCH  22  28
ATOM     24  C   UNL     1       9.539  10.899  19.383  0.00  0.00    +0.000 A 
ATOM     25  C   UNL     1       8.919  11.623  18.365  0.00  0.00    +0.000 A 
ATOM     26  C   UNL     1       8.088  10.971  17.456  0.00  0.00    +0.000 A 
ATOM     27  C   UNL     1       7.888   9.590  17.546  0.00  0.00    +0.000 A 
ATOM     28  C   UNL     1       8.532   8.831  18.533  0.00  0.00    +0.000 A 
ATOM     29  C   UNL     1       9.325   9.516  19.461  0.00  0.00    +0.000 A 
BRANCH  24  31
ATOM     30  C   UNL     1      11.746  11.965  19.848  0.00  0.00    +0.000 C 
ATOM     31  C   UNL     1      10.393  11.575  20.424  0.00  0.00    +0.000 C 
ENDBRANCH  24  31
ENDBRANCH  22  28
ENDBRANCH   1  22
TORSDOF 8
ENDMDL
MODEL 8
REMARK VINA RESULT:      -7.3      6.001      8.670
REMARK  Name = 
REMARK  9 active torsions:
REMARK  status: ('A' for Active; 'I' for Inactive)
REMARK    1  A    between atoms: C_1  and  C_2
REMARK    2  A    between atoms: C_2  and  C_3
REMARK    3  A    between atoms: C_7  and  N_8
REMARK    4  A    between atoms: N_8  and  C_9
REMARK    5  A    between atoms: N_17  and  C1*_18
REMARK    6  A    between atoms: C4*_20  and  C5*_21
REMARK    7  A    between atoms: C5*_21  and  O5*_22
REMARK    8  A    between atoms: C3*_23  and  O3*_24
REMARK    9  A    between atoms: C2*_25  and  O2*_26
REMARK                            x       y       z     vdW  Elec       q    Type
REMARK                         _______ _______ _______ _____ _____    ______ ____
ROOT
ATOM      1  C   UNL     1       2.071   7.747  19.449  0.00  0.00    +0.000 A 
ATOM      2  N   UNL     1       2.213   8.130  18.149  0.00  0.00    +0.000 NA
ATOM      3  C   UNL     1       1.687   9.293  17.733  0.00  0.00    +0.000 A 
ATOM      4  N   UNL     1       1.002  10.189  18.457  0.00  0.00    +0.000 NA
ATOM      5  C   UNL     1       0.859   9.779  19.725  0.00  0.00    +0.000 A 
ATOM      6  C   UNL     1       1.338   8.606  20.289  0.00  0.00    +0.000 A 
ATOM      7  N   UNL     1       1.015   8.544  21.631  0.00  0.00    +0.000 NA
ATOM      8  C   UNL     1       0.358   9.661  21.869  0.00  0.00    +0.000 A 
ATOM      9  N   UNL     1       0.245  10.442  20.748  0.00  0.00    +0.000 N 
ENDROOT
BRANCH   9  10
ATOM     10  C1* UNL     1      -0.384  11.745  20.682  0.00  0.00    +0.000 C 
ATOM     11  O4* UNL     1      -0.510  12.281  22.020  0.00  0.00    +0.000 OA
ATOM     12  C4* UNL     1      -1.822  12.883  22.157  0.00  0.00    +0.000 C 
ATOM     13  C3* UNL     1      -2.419  12.941  20.753  0.00  0.00    +0.000 C 
ATOM     14  C2* UNL     1      -1.775  11.758  20.046  0.00  0.00    +0.000 C 
BRANCH  13  15
ATOM     15  O3* UNL     1      -2.022  14.135  20.052  0.00  0.00    +0.000 OA
ATOM     16  H3* UNL     1      -1.905  14.859  20.695  0.00  0.00    +0.000 HD
ENDBRANCH  13  15
BRANCH  14  17
ATOM     17  O2* UNL     1      -1.730  11.957  18.633  0.00  0.00    +0.000 OA
ATOM     18  H2* UNL     1      -1.477  12.896  18.498  0.00  0.00    +0.000 HD
ENDBRANCH  14  17
BRANCH  12  19
ATOM     19  C5* UNL     1      -2.675  12.068  23.134  0.00  0.00    +0.000 C 
BRANCH  19  20
ATOM     20  O5* UNL     1      -4.058  12.255  22.846  0.00  0.00    +0.000 OA
ATOM     21  H5* UNL     1      -4.201  13.222  22.823  0.00  0.00    +0.000 HD
ENDBRANCH  19  20
ENDBRANCH  12  19
ENDBRANCH   9  10
BRANCH   1  22
ATOM     22  N   UNL     1       2.672   6.582  19.960  0.00  0.00    +0.000 N 
ATOM     23  H   UNL     1       3.675   6.706  20.055  0.00  0.00    +0.000 HD
BRANCH  22  28
ATOM     24  C   UNL     1       2.241   3.064  18.725  0.00  0.00    +0.000 A 
ATOM     25  C   UNL     1       1.433   2.543  19.735  0.00  0.00    +0.000 A 
ATOM     26  C   UNL     1       1.002   3.367  20.774  0.00  0.00    +0.000 A 
ATOM     27  C   UNL     1       1.394   4.709  20.820  0.00  0.00    +0.000 A 
ATOM     28  C   UNL     1       2.240   5.248  19.842  0.00  0.00    +0.000 A 
ATOM     29  C   UNL     1       2.621   4.413  18.785  0.00  0.00    +0.000 A 
BRANCH  24  31
ATOM     30  C   UNL     1       3.888   1.379  17.905  0.00  0.00    +0.000 C 
ATOM     31  C   UNL     1       2.675   2.226  17.550  0.00  0.00    +0.000 C 
ENDBRANCH  24  31
ENDBRANCH  22  28
ENDBRANCH   1  22
TORSDOF 8
ENDMDL
MODEL 9
REMARK VINA RESULT:      -7.3      4.710      6.905
REMARK  Name = 
REMARK  9 active torsions:
REMARK  status: ('A' for Active; 'I' for Inactive)
REMARK    1  A    between atoms: C_1  and  C_2
REMARK    2  A    between atoms: C_2  and  C_3
REMARK    3  A    between atoms: C_7  and  N_8
REMARK    4  A    between atoms: N_8  and  C_9
REMARK    5  A    between atoms: N_17  and  C1*_18
REMARK    6  A    between atoms: C4*_20  and  C5*_21
REMARK    7  A    between atoms: C5*_21  and  O5*_22
REMARK    8  A    between atoms: C3*_23  and  O3*_24
REMARK    9  A    between atoms: C2*_25  and  O2*_26
REMARK                            x       y       z     vdW  Elec       q    Type
REMARK                         _______ _______ _______ _____ _____    ______ ____
ROOT
ATOM      1  C   UNL     1       2.468   6.481  18.886  0.00  0.00    +0.000 A 
ATOM      2  N   UNL     1       2.148   6.010  20.125  0.00  0.00    +0.000 NA
ATOM      3  C   UNL     1       1.571   6.826  21.022  0.00  0.00    +0.000 A 
ATOM      4  N   UNL     1       1.240   8.116  20.864  0.00  0.00    +0.000 NA
ATOM      5  C   UNL     1       1.583   8.558  19.646  0.00  0.00    +0.000 A 
ATOM      6  C   UNL     1       2.189   7.836  18.628  0.00  0.00    +0.000 A 
ATOM      7  N   UNL     1       2.363   8.626  17.509  0.00  0.00    +0.000 NA
ATOM      8  C   UNL     1       1.867   9.799  17.845  0.00  0.00    +0.000 A 
ATOM      9  N   UNL     1       1.378   9.804  19.127  0.00  0.00    +0.000 N 
ENDROOT
BRANCH   9  10
ATOM     10  C1* UNL     1       0.734  10.921  19.784  0.00  0.00    +0.000 C 
ATOM     11  O4* UNL     1       1.102  10.926  21.184  0.00  0.00    +0.000 OA
ATOM     12  C4* UNL     1      -0.080  11.211  21.974  0.00  0.00    +0.000 C 
ATOM     13  C3* UNL     1      -1.161  11.653  20.991  0.00  0.00    +0.000 C 
ATOM     14  C2* UNL     1      -0.794  10.918  19.710  0.00  0.00    +0.000 C 
BRANCH  13  15
ATOM     15  O3* UNL     1      -1.090  13.065  20.717  0.00  0.00    +0.000 OA
ATOM     16  H3* UNL     1      -1.963  13.467  20.886  0.00  0.00    +0.000 HD
ENDBRANCH  13  15
BRANCH  14  17
ATOM     17  O2* UNL     1      -1.288  11.602  18.558  0.00  0.00    +0.000 OA
ATOM     18  H2* UNL     1      -0.691  11.355  17.818  0.00  0.00    +0.000 HD
ENDBRANCH  14  17
BRANCH  12  19
ATOM     19  C5* UNL     1      -0.481   9.975  22.784  0.00  0.00    +0.000 C 
BRANCH  19  20
ATOM     20  O5* UNL     1       0.588   9.586  23.642  0.00  0.00    +0.000 OA
ATOM     21  H5* UNL     1       0.314   8.742  24.051  0.00  0.00    +0.000 HD
ENDBRANCH  19  20
ENDBRANCH  12  19
ENDBRANCH   9  10
BRANCH   1  22
ATOM     22  N   UNL     1       2.996   5.651  17.880  0.00  0.00    +0.000 N 
ATOM     23  H   UNL     1       2.387   4.856  17.712  0.00  0.00    +0.000 HD
BRANCH  22  28
ATOM     24  C   UNL     1       6.733   5.961  17.735  0.00  0.00    +0.000 A 
ATOM     25  C   UNL     1       7.031   4.952  16.819  0.00  0.00    +0.000 A 
ATOM     26  C   UNL     1       6.000   4.224  16.227  0.00  0.00    +0.000 A 
ATOM     27  C   UNL     1       4.668   4.486  16.564  0.00  0.00    +0.000 A 
ATOM     28  C   UNL     1       4.342   5.465  17.513  0.00  0.00    +0.000 A 
ATOM     29  C   UNL     1       5.392   6.212  18.057  0.00  0.00    +0.000 A 
BRANCH  24  31
ATOM     30  C   UNL     1       7.883   8.174  17.667  0.00  0.00    +0.000 C 
ATOM     31  C   UNL     1       7.814   6.814  18.347  0.00  0.00    +0.000 C 
ENDBRANCH  24  31
ENDBRANCH  22  28
ENDBRANCH   1  22
TORSDOF 8
ENDMDL
