MODEL 1
REMARK VINA RESULT:      -9.5      0.000      0.000
REMARK  Name = 
REMARK  6 active torsions:
REMARK  status: ('A' for Active; 'I' for Inactive)
REMARK    1  A    between atoms: C_1  and  C_2
REMARK    2  A    between atoms: C_2  and  C_3
REMARK    3  A    between atoms: C_2  and  C_4
REMARK    4  A    between atoms: C_8  and  N_9
REMARK    5  A    between atoms: C_10  and  C_12
REMARK    6  A    between atoms: C_16  and  N_17
REMARK                            x       y       z     vdW  Elec       q    Type
REMARK                         _______ _______ _______ _____ _____    ______ ____
ROOT
ATOM      1  C   UNL     1       4.433   4.736  18.141  0.00  0.00    +0.000 A 
ATOM      2  C   UNL     1       4.037   3.591  18.839  0.00  0.00    +0.000 A 
ATOM      3  C   UNL     1       3.046   3.678  19.804  0.00  0.00    +0.000 A 
ATOM      4  C   UNL     1       2.461   4.915  20.079  0.00  0.00    +0.000 A 
ATOM      5  C   UNL     1       2.840   6.095  19.408  0.00  0.00    +0.000 A 
ATOM      6  C   UNL     1       3.827   5.972  18.415  0.00  0.00    +0.000 A 
ENDROOT
BRANCH   5   7
ATOM      7  N   UNL     1       2.245   7.301  19.712  0.00  0.00    +0.000 N 
ATOM      8  C   UNL     1       2.056   8.349  18.691  0.00  0.00    +0.000 C 
ATOM      9  C   UNL     1       1.214   9.314  19.417  0.00  0.00    +0.000 A 
ATOM     10  C   UNL     1       0.687  10.618  18.999  0.00  0.00    +0.000 A 
ATOM     11  N   UNL     1      -0.044  11.393  19.749  0.00  0.00    +0.000 NA
ATOM     12  C   UNL     1      -0.318  10.931  21.017  0.00  0.00    +0.000 A 
ATOM     13  C   UNL     1      -1.023  11.484  22.059  0.00  0.00    +0.000 A 
ATOM     14  C   UNL     1      -0.948  10.537  23.093  0.00  0.00    +0.000 A 
ATOM     15  N   UNL     1      -0.259   9.446  22.755  0.00  0.00    +0.000 NA
ATOM     16  N   UNL     1       0.143   9.686  21.485  0.00  0.00    +0.000 N 
ATOM     17  C   UNL     1       0.908   8.906  20.647  0.00  0.00    +0.000 A 
ATOM     18  C   UNL     1       1.476   7.575  20.949  0.00  0.00    +0.000 C 
ENDBRANCH   5   7
BRANCH   1  20
ATOM     19  N   UNL     1       5.025   4.870  15.765  0.00  0.00    +0.000 N 
ATOM     20  C   UNL     1       5.428   4.556  17.053  0.00  0.00    +0.000 C 
ATOM     21  O   UNL     1       6.552   4.185  17.390  0.00  0.00    +0.000 OA
ATOM     22  H   UNL     1       4.158   5.381  15.651  0.00  0.00    +0.000 HD
BRANCH  19  27
ATOM     23  C   UNL     1       6.050   3.701  12.368  0.00  0.00    +0.000 A 
ATOM     24  C   UNL     1       7.321   4.283  12.264  0.00  0.00    +0.000 A 
ATOM     25  C   UNL     1       7.838   5.042  13.309  0.00  0.00    +0.000 A 
ATOM     26  C   UNL     1       7.093   5.235  14.470  0.00  0.00    +0.000 A 
ATOM     27  C   UNL     1       5.815   4.687  14.603  0.00  0.00    +0.000 A 
ATOM     28  C   UNL     1       5.308   3.909  13.553  0.00  0.00    +0.000 A 
BRANCH  23  30
ATOM     29  C   UNL     1       5.886   1.330  11.371  0.00  0.00    +0.000 C 
ATOM     30  C   UNL     1       5.482   2.807  11.275  0.00  0.00    +0.000 C 
ATOM     31  C   UNL     1       3.957   2.929  11.259  0.00  0.00    +0.000 C 
ENDBRANCH  23  30
ENDBRANCH  19  27
ENDBRANCH   1  20
TORSDOF 4
ENDMDL
MODEL 2
REMARK VINA RESULT:      -9.4      1.090      1.221
REMARK  Name = 
REMARK  6 active torsions:
REMARK  status: ('A' for Active; 'I' for Inactive)
REMARK    1  A    between atoms: C_1  and  C_2
REMARK    2  A    between atoms: C_2  and  C_3
REMARK    3  A    between atoms: C_2  and  C_4
REMARK    4  A    between atoms: C_8  and  N_9
REMARK    5  A    between atoms: C_10  and  C_12
REMARK    6  A    between atoms: C_16  and  N_17
REMARK                            x       y       z     vdW  Elec       q    Type
REMARK                         _______ _______ _______ _____ _____    ______ ____
ROOT
ATOM      1  C   UNL     1       4.120   6.210  17.459  0.00  0.00    +0.000 A 
ATOM      2  C   UNL     1       4.110   5.059  18.254  0.00  0.00    +0.000 A 
ATOM      3  C   UNL     1       3.336   5.020  19.403  0.00  0.00    +0.000 A 
ATOM      4  C   UNL     1       2.583   6.139  19.763  0.00  0.00    +0.000 A 
ATOM      5  C   UNL     1       2.575   7.322  18.997  0.00  0.00    +0.000 A 
ATOM      6  C   UNL     1       3.346   7.323  17.822  0.00  0.00    +0.000 A 
ENDROOT
BRANCH   5   7
ATOM      7  N   UNL     1       1.824   8.410  19.387  0.00  0.00    +0.000 N 
ATOM      8  C   UNL     1       1.314   9.390  18.409  0.00  0.00    +0.000 C 
ATOM      9  C   UNL     1       0.423  10.205  19.250  0.00  0.00    +0.000 A 
ATOM     10  C   UNL     1      -0.379  11.387  18.918  0.00  0.00    +0.000 A 
ATOM     11  N   UNL     1      -1.125  12.036  19.767  0.00  0.00    +0.000 NA
ATOM     12  C   UNL     1      -1.135  11.556  21.057  0.00  0.00    +0.000 A 
ATOM     13  C   UNL     1      -1.776  11.997  22.191  0.00  0.00    +0.000 A 
ATOM     14  C   UNL     1      -1.394  11.097  23.199  0.00  0.00    +0.000 A 
ATOM     15  N   UNL     1      -0.575  10.138  22.762  0.00  0.00    +0.000 NA
ATOM     16  N   UNL     1      -0.401  10.421  21.450  0.00  0.00    +0.000 N 
ATOM     17  C   UNL     1       0.366   9.772  20.509  0.00  0.00    +0.000 A 
ATOM     18  C   UNL     1       1.196   8.568  20.721  0.00  0.00    +0.000 C 
ENDBRANCH   5   7
BRANCH   1  20
ATOM     19  N   UNL     1       5.107   4.899  15.637  0.00  0.00    +0.000 N 
ATOM     20  C   UNL     1       4.891   6.150  16.191  0.00  0.00    +0.000 C 
ATOM     21  O   UNL     1       5.240   7.226  15.707  0.00  0.00    +0.000 OA
ATOM     22  H   UNL     1       4.576   4.119  16.005  0.00  0.00    +0.000 HD
BRANCH  19  27
ATOM     23  C   UNL     1       6.061   3.604  12.265  0.00  0.00    +0.000 A 
ATOM     24  C   UNL     1       7.359   4.117  12.145  0.00  0.00    +0.000 A 
ATOM     25  C   UNL     1       7.918   4.872  13.172  0.00  0.00    +0.000 A 
ATOM     26  C   UNL     1       7.187   5.128  14.330  0.00  0.00    +0.000 A 
ATOM     27  C   UNL     1       5.883   4.650  14.478  0.00  0.00    +0.000 A 
ATOM     28  C   UNL     1       5.334   3.876  13.446  0.00  0.00    +0.000 A 
BRANCH  23  30
ATOM     29  C   UNL     1       5.796   1.228  11.302  0.00  0.00    +0.000 C 
ATOM     30  C   UNL     1       5.444   2.717  11.192  0.00  0.00    +0.000 C 
ATOM     31  C   UNL     1       3.924   2.893  11.197  0.00  0.00    +0.000 C 
ENDBRANCH  23  30
ENDBRANCH  19  27
ENDBRANCH   1  20
TORSDOF 4
ENDMDL
MODEL 3
REMARK VINA RESULT:      -9.4      1.147      1.908
REMARK  Name = 
REMARK  6 active torsions:
REMARK  status: ('A' for Active; 'I' for Inactive)
REMARK    1  A    between atoms: C_1  and  C_2
REMARK    2  A    between atoms: C_2  and  C_3
REMARK    3  A    between atoms: C_2  and  C_4
REMARK    4  A    between atoms: C_8  and  N_9
REMARK    5  A    between atoms: C_10  and  C_12
REMARK    6  A    between atoms: C_16  and  N_17
REMARK                            x       y       z     vdW  Elec       q    Type
REMARK                         _______ _______ _______ _____ _____    ______ ____
ROOT
ATOM      1  C   UNL     1       4.119   5.837  17.654  0.00  0.00    +0.000 A 
ATOM      2  C   UNL     1       4.202   4.643  18.378  0.00  0.00    +0.000 A 
ATOM      3  C   UNL     1       3.486   4.498  19.555  0.00  0.00    +0.000 A 
ATOM      4  C   UNL     1       2.697   5.553  20.015  0.00  0.00    +0.000 A 
ATOM      5  C   UNL     1       2.596   6.777  19.323  0.00  0.00    +0.000 A 
ATOM      6  C   UNL     1       3.311   6.886  18.118  0.00  0.00    +0.000 A 
ENDROOT
BRANCH   5   7
ATOM      7  N   UNL     1       1.812   7.801  19.812  0.00  0.00    +0.000 N 
ATOM      8  C   UNL     1       1.440   7.878  21.238  0.00  0.00    +0.000 C 
ATOM      9  C   UNL     1       0.813   9.208  21.303  0.00  0.00    +0.000 A 
ATOM     10  C   UNL     1       0.182   9.907  22.428  0.00  0.00    +0.000 A 
ATOM     11  N   UNL     1      -0.356  11.091  22.353  0.00  0.00    +0.000 NA
ATOM     12  C   UNL     1      -0.318  11.699  21.119  0.00  0.00    +0.000 A 
ATOM     13  C   UNL     1      -0.798  12.911  20.682  0.00  0.00    +0.000 A 
ATOM     14  C   UNL     1      -0.456  12.970  19.321  0.00  0.00    +0.000 A 
ATOM     15  N   UNL     1       0.203  11.889  18.900  0.00  0.00    +0.000 NA
ATOM     16  N   UNL     1       0.281  11.098  19.996  0.00  0.00    +0.000 N 
ATOM     17  C   UNL     1       0.839   9.847  20.134  0.00  0.00    +0.000 A 
ATOM     18  C   UNL     1       1.515   9.057  19.084  0.00  0.00    +0.000 C 
ENDBRANCH   5   7
BRANCH   1  20
ATOM     19  N   UNL     1       5.158   4.684  15.756  0.00  0.00    +0.000 N 
ATOM     20  C   UNL     1       4.832   5.891  16.353  0.00  0.00    +0.000 C 
ATOM     21  O   UNL     1       5.038   7.009  15.883  0.00  0.00    +0.000 OA
ATOM     22  H   UNL     1       4.733   3.842  16.126  0.00  0.00    +0.000 HD
BRANCH  19  27
ATOM     23  C   UNL     1       6.061   3.625  12.289  0.00  0.00    +0.000 A 
ATOM     24  C   UNL     1       7.315   4.237  12.147  0.00  0.00    +0.000 A 
ATOM     25  C   UNL     1       7.860   4.980  13.189  0.00  0.00    +0.000 A 
ATOM     26  C   UNL     1       7.160   5.127  14.385  0.00  0.00    +0.000 A 
ATOM     27  C   UNL     1       5.901   4.548  14.557  0.00  0.00    +0.000 A 
ATOM     28  C   UNL     1       5.366   3.786  13.509  0.00  0.00    +0.000 A 
BRANCH  23  30
ATOM     29  C   UNL     1       5.830   1.261  11.290  0.00  0.00    +0.000 C 
ATOM     30  C   UNL     1       5.466   2.748  11.197  0.00  0.00    +0.000 C 
ATOM     31  C   UNL     1       3.945   2.911  11.186  0.00  0.00    +0.000 C 
ENDBRANCH  23  30
ENDBRANCH  19  27
ENDBRANCH   1  20
TORSDOF 4
ENDMDL
MODEL 4
REMARK VINA RESULT:      -9.1      0.797      1.737
REMARK  Name = 
REMARK  6 active torsions:
REMARK  status: ('A' for Active; 'I' for Inactive)
REMARK    1  A    between atoms: C_1  and  C_2
REMARK    2  A    between atoms: C_2  and  C_3
REMARK    3  A    between atoms: C_2  and  C_4
REMARK    4  A    between atoms: C_8  and  N_9
REMARK    5  A    between atoms: C_10  and  C_12
REMARK    6  A    between atoms: C_16  and  N_17
REMARK                            x       y       z     vdW  Elec       q    Type
REMARK                         _______ _______ _______ _____ _____    ______ ____
ROOT
ATOM      1  C   UNL     1       4.618   4.550  18.212  0.00  0.00    +0.000 A 
ATOM      2  C   UNL     1       4.431   3.379  18.954  0.00  0.00    +0.000 A 
ATOM      3  C   UNL     1       3.478   3.343  19.959  0.00  0.00    +0.000 A 
ATOM      4  C   UNL     1       2.721   4.484  20.230  0.00  0.00    +0.000 A 
ATOM      5  C   UNL     1       2.887   5.688  19.516  0.00  0.00    +0.000 A 
ATOM      6  C   UNL     1       3.841   5.687  18.484  0.00  0.00    +0.000 A 
ENDROOT
BRANCH   5   7
ATOM      7  N   UNL     1       2.126   6.797  19.817  0.00  0.00    +0.000 N 
ATOM      8  C   UNL     1       1.442   6.938  21.117  0.00  0.00    +0.000 C 
ATOM      9  C   UNL     1       0.965   8.328  21.045  0.00  0.00    +0.000 A 
ATOM     10  C   UNL     1       0.167   9.108  21.997  0.00  0.00    +0.000 A 
ATOM     11  N   UNL     1      -0.208  10.342  21.810  0.00  0.00    +0.000 NA
ATOM     12  C   UNL     1       0.183  10.922  20.624  0.00  0.00    +0.000 A 
ATOM     13  C   UNL     1      -0.048  12.171  20.098  0.00  0.00    +0.000 A 
ATOM     14  C   UNL     1       0.606  12.170  18.855  0.00  0.00    +0.000 A 
ATOM     15  N   UNL     1       1.225  11.018  18.590  0.00  0.00    +0.000 NA
ATOM     16  N   UNL     1       0.959  10.242  19.667  0.00  0.00    +0.000 N 
ATOM     17  C   UNL     1       1.330   8.941  19.921  0.00  0.00    +0.000 A 
ATOM     18  C   UNL     1       2.144   8.066  19.050  0.00  0.00    +0.000 C 
ENDBRANCH   5   7
BRANCH   1  20
ATOM     19  N   UNL     1       5.081   4.663  15.807  0.00  0.00    +0.000 N 
ATOM     20  C   UNL     1       5.585   4.492  17.086  0.00  0.00    +0.000 C 
ATOM     21  O   UNL     1       6.769   4.340  17.383  0.00  0.00    +0.000 OA
ATOM     22  H   UNL     1       4.133   5.008  15.713  0.00  0.00    +0.000 HD
BRANCH  19  27
ATOM     23  C   UNL     1       6.062   3.664  12.343  0.00  0.00    +0.000 A 
ATOM     24  C   UNL     1       7.296   4.317  12.222  0.00  0.00    +0.000 A 
ATOM     25  C   UNL     1       7.803   5.070  13.277  0.00  0.00    +0.000 A 
ATOM     26  C   UNL     1       7.085   5.183  14.466  0.00  0.00    +0.000 A 
ATOM     27  C   UNL     1       5.843   4.562  14.617  0.00  0.00    +0.000 A 
ATOM     28  C   UNL     1       5.347   3.792  13.556  0.00  0.00    +0.000 A 
BRANCH  23  30
ATOM     29  C   UNL     1       5.883   1.293  11.349  0.00  0.00    +0.000 C 
ATOM     30  C   UNL     1       5.509   2.777  11.237  0.00  0.00    +0.000 C 
ATOM     31  C   UNL     1       3.988   2.927  11.176  0.00  0.00    +0.000 C 
ENDBRANCH  23  30
ENDBRANCH  19  27
ENDBRANCH   1  20
TORSDOF 4
ENDMDL
MODEL 5
REMARK VINA RESULT:      -8.7      1.359      2.231
REMARK  Name = 
REMARK  6 active torsions:
REMARK  status: ('A' for Active; 'I' for Inactive)
REMARK    1  A    between atoms: C_1  and  C_2
REMARK    2  A    between atoms: C_2  and  C_3
REMARK    3  A    between atoms: C_2  and  C_4
REMARK    4  A    between atoms: C_8  and  N_9
REMARK    5  A    between atoms: C_10  and  C_12
REMARK    6  A    between atoms: C_16  and  N_17
REMARK                            x       y       z     vdW  Elec       q    Type
REMARK                         _______ _______ _______ _____ _____    ______ ____
ROOT
ATOM      1  C   UNL     1       3.528   5.981  18.307  0.00  0.00    +0.000 A 
ATOM      2  C   UNL     1       3.454   4.755  18.977  0.00  0.00    +0.000 A 
ATOM      3  C   UNL     1       2.669   4.635  20.112  0.00  0.00    +0.000 A 
ATOM      4  C   UNL     1       1.968   5.746  20.584  0.00  0.00    +0.000 A 
ATOM      5  C   UNL     1       2.026   7.001  19.947  0.00  0.00    +0.000 A 
ATOM      6  C   UNL     1       2.807   7.087  18.782  0.00  0.00    +0.000 A 
ENDROOT
BRANCH   5   7
ATOM      7  N   UNL     1       1.325   8.079  20.447  0.00  0.00    +0.000 N 
ATOM      8  C   UNL     1       0.761   8.070  21.810  0.00  0.00    +0.000 C 
ATOM      9  C   UNL     1       0.318   9.466  21.951  0.00  0.00    +0.000 A 
ATOM     10  C   UNL     1      -0.371  10.137  23.058  0.00  0.00    +0.000 A 
ATOM     11  N   UNL     1      -0.726  11.391  23.056  0.00  0.00    +0.000 NA
ATOM     12  C   UNL     1      -0.422  12.106  21.919  0.00  0.00    +0.000 A 
ATOM     13  C   UNL     1      -0.662  13.414  21.571  0.00  0.00    +0.000 A 
ATOM     14  C   UNL     1      -0.118  13.555  20.284  0.00  0.00    +0.000 A 
ATOM     15  N   UNL     1       0.443  12.434  19.827  0.00  0.00    +0.000 NA
ATOM     16  N   UNL     1       0.248  11.536  20.821  0.00  0.00    +0.000 N 
ATOM     17  C   UNL     1       0.603  10.207  20.881  0.00  0.00    +0.000 A 
ATOM     18  C   UNL     1       1.313   9.432  19.842  0.00  0.00    +0.000 C 
ENDBRANCH   5   7
BRANCH   1  20
ATOM     19  N   UNL     1       4.740   4.804  16.529  0.00  0.00    +0.000 N 
ATOM     20  C   UNL     1       4.307   6.016  17.043  0.00  0.00    +0.000 C 
ATOM     21  O   UNL     1       4.468   7.120  16.525  0.00  0.00    +0.000 OA
ATOM     22  H   UNL     1       4.349   3.956  16.922  0.00  0.00    +0.000 HD
BRANCH  19  27
ATOM     23  C   UNL     1       5.882   3.662  13.161  0.00  0.00    +0.000 A 
ATOM     24  C   UNL     1       7.116   4.320  13.066  0.00  0.00    +0.000 A 
ATOM     25  C   UNL     1       7.570   5.123  14.108  0.00  0.00    +0.000 A 
ATOM     26  C   UNL     1       6.799   5.282  15.257  0.00  0.00    +0.000 A 
ATOM     27  C   UNL     1       5.556   4.658  15.380  0.00  0.00    +0.000 A 
ATOM     28  C   UNL     1       5.113   3.837  14.333  0.00  0.00    +0.000 A 
BRANCH  23  30
ATOM     29  C   UNL     1       4.300   3.305  11.158  0.00  0.00    +0.000 C 
ATOM     30  C   UNL     1       5.386   2.722  12.071  0.00  0.00    +0.000 C 
ATOM     31  C   UNL     1       6.572   2.246  11.230  0.00  0.00    +0.000 C 
ENDBRANCH  23  30
ENDBRANCH  19  27
ENDBRANCH   1  20
TORSDOF 4
ENDMDL
MODEL 6
REMARK VINA RESULT:      -8.6      3.959      6.796
REMARK  Name = 
REMARK  6 active torsions:
REMARK  status: ('A' for Active; 'I' for Inactive)
REMARK    1  A    between atoms: C_1  and  C_2
REMARK    2  A    between atoms: C_2  and  C_3
REMARK    3  A    between atoms: C_2  and  C_4
REMARK    4  A    between atoms: C_8  and  N_9
REMARK    5  A    between atoms: C_10  and  C_12
REMARK    6  A    between atoms: C_16  and  N_17
REMARK                            x       y       z     vdW  Elec       q    Type
REMARK                         _______ _______ _______ _____ _____    ______ ____
ROOT
ATOM      1  C   UNL     1       0.993  10.274  18.764  0.00  0.00    +0.000 A 
ATOM      2  C   UNL     1       1.832  11.388  18.649  0.00  0.00    +0.000 A 
ATOM      3  C   UNL     1       1.287  12.661  18.603  0.00  0.00    +0.000 A 
ATOM      4  C   UNL     1      -0.098  12.818  18.660  0.00  0.00    +0.000 A 
ATOM      5  C   UNL     1      -0.979  11.723  18.762  0.00  0.00    +0.000 A 
ATOM      6  C   UNL     1      -0.398  10.445  18.835  0.00  0.00    +0.000 A 
ENDROOT
BRANCH   5   7
ATOM      7  N   UNL     1      -2.343  11.917  18.808  0.00  0.00    +0.000 N 
ATOM      8  C   UNL     1      -3.256  11.223  17.879  0.00  0.00    +0.000 C 
ATOM      9  C   UNL     1      -4.569  11.571  18.445  0.00  0.00    +0.000 A 
ATOM     10  C   UNL     1      -5.921  11.240  17.984  0.00  0.00    +0.000 A 
ATOM     11  N   UNL     1      -7.018  11.625  18.572  0.00  0.00    +0.000 NA
ATOM     12  C   UNL     1      -6.862  12.399  19.701  0.00  0.00    +0.000 A 
ATOM     13  C   UNL     1      -7.779  12.985  20.540  0.00  0.00    +0.000 A 
ATOM     14  C   UNL     1      -7.012  13.650  21.511  0.00  0.00    +0.000 A 
ATOM     15  N   UNL     1      -5.698  13.505  21.329  0.00  0.00    +0.000 NA
ATOM     16  N   UNL     1      -5.598  12.749  20.211  0.00  0.00    +0.000 N 
ATOM     17  C   UNL     1      -4.473  12.309  19.550  0.00  0.00    +0.000 A 
ATOM     18  C   UNL     1      -3.067  12.563  19.929  0.00  0.00    +0.000 C 
ENDBRANCH   5   7
BRANCH   1  20
ATOM     19  N   UNL     1       2.291   8.434  17.794  0.00  0.00    +0.000 N 
ATOM     20  C   UNL     1       1.644   8.947  18.906  0.00  0.00    +0.000 C 
ATOM     21  O   UNL     1       1.597   8.427  20.020  0.00  0.00    +0.000 OA
ATOM     22  H   UNL     1       2.456   9.057  17.012  0.00  0.00    +0.000 HD
BRANCH  19  27
ATOM     23  C   UNL     1       2.658   4.717  17.879  0.00  0.00    +0.000 A 
ATOM     24  C   UNL     1       4.027   4.583  17.611  0.00  0.00    +0.000 A 
ATOM     25  C   UNL     1       4.822   5.708  17.416  0.00  0.00    +0.000 A 
ATOM     26  C   UNL     1       4.261   6.982  17.482  0.00  0.00    +0.000 A 
ATOM     27  C   UNL     1       2.898   7.155  17.729  0.00  0.00    +0.000 A 
ATOM     28  C   UNL     1       2.107   6.017  17.941  0.00  0.00    +0.000 A 
BRANCH  23  30
ATOM     29  C   UNL     1       2.488   2.156  18.118  0.00  0.00    +0.000 C 
ATOM     30  C   UNL     1       1.773   3.513  18.166  0.00  0.00    +0.000 C 
ATOM     31  C   UNL     1       1.092   3.693  19.525  0.00  0.00    +0.000 C 
ENDBRANCH  23  30
ENDBRANCH  19  27
ENDBRANCH   1  20
TORSDOF 4
ENDMDL
MODEL 7
REMARK VINA RESULT:      -8.5      3.960      6.728
REMARK  Name = 
REMARK  6 active torsions:
REMARK  status: ('A' for Active; 'I' for Inactive)
REMARK    1  A    between atoms: C_1  and  C_2
REMARK    2  A    between atoms: C_2  and  C_3
REMARK    3  A    between atoms: C_2  and  C_4
REMARK    4  A    between atoms: C_8  and  N_9
REMARK    5  A    between atoms: C_10  and  C_12
REMARK    6  A    between atoms: C_16  and  N_17
REMARK                            x       y       z     vdW  Elec       q    Type
REMARK                         _______ _______ _______ _____ _____    ______ ____
ROOT
ATOM      1  C   UNL     1       1.040  10.290  18.677  0.00  0.00    +0.000 A 
ATOM      2  C   UNL     1       1.865  11.409  18.527  0.00  0.00    +0.000 A 
ATOM      3  C   UNL     1       1.306  12.676  18.462  0.00  0.00    +0.000 A 
ATOM      4  C   UNL     1      -0.080  12.820  18.533  0.00  0.00    +0.000 A 
ATOM      5  C   UNL     1      -0.948  11.717  18.671  0.00  0.00    +0.000 A 
ATOM      6  C   UNL     1      -0.352  10.448  18.763  0.00  0.00    +0.000 A 
ENDROOT
BRANCH   5   7
ATOM      7  N   UNL     1      -2.313  11.897  18.731  0.00  0.00    +0.000 N 
ATOM      8  C   UNL     1      -3.220  11.269  17.752  0.00  0.00    +0.000 C 
ATOM      9  C   UNL     1      -4.536  11.564  18.342  0.00  0.00    +0.000 A 
ATOM     10  C   UNL     1      -5.886  11.259  17.857  0.00  0.00    +0.000 A 
ATOM     11  N   UNL     1      -6.985  11.591  18.472  0.00  0.00    +0.000 NA
ATOM     12  C   UNL     1      -6.834  12.280  19.655  0.00  0.00    +0.000 A 
ATOM     13  C   UNL     1      -7.755  12.794  20.536  0.00  0.00    +0.000 A 
ATOM     14  C   UNL     1      -6.993  13.391  21.554  0.00  0.00    +0.000 A 
ATOM     15  N   UNL     1      -5.678  13.269  21.362  0.00  0.00    +0.000 NA
ATOM     16  N   UNL     1      -5.573  12.599  20.191  0.00  0.00    +0.000 N 
ATOM     17  C   UNL     1      -4.445  12.218  19.499  0.00  0.00    +0.000 A 
ATOM     18  C   UNL     1      -3.041  12.452  19.897  0.00  0.00    +0.000 C 
ENDBRANCH   5   7
BRANCH   1  20
ATOM     19  N   UNL     1       2.440   8.495  17.764  0.00  0.00    +0.000 N 
ATOM     20  C   UNL     1       1.708   8.973  18.839  0.00  0.00    +0.000 C 
ATOM     21  O   UNL     1       1.596   8.430  19.937  0.00  0.00    +0.000 OA
ATOM     22  H   UNL     1       2.645   9.136  17.008  0.00  0.00    +0.000 HD
BRANCH  19  27
ATOM     23  C   UNL     1       5.131   5.934  17.371  0.00  0.00    +0.000 A 
ATOM     24  C   UNL     1       4.409   4.757  17.610  0.00  0.00    +0.000 A 
ATOM     25  C   UNL     1       3.046   4.808  17.887  0.00  0.00    +0.000 A 
ATOM     26  C   UNL     1       2.386   6.034  17.932  0.00  0.00    +0.000 A 
ATOM     27  C   UNL     1       3.076   7.230  17.717  0.00  0.00    +0.000 A 
ATOM     28  C   UNL     1       4.445   7.168  17.422  0.00  0.00    +0.000 A 
BRANCH  23  30
ATOM     29  C   UNL     1       7.399   7.157  17.411  0.00  0.00    +0.000 C 
ATOM     30  C   UNL     1       6.606   5.911  16.997  0.00  0.00    +0.000 C 
ATOM     31  C   UNL     1       7.261   4.659  17.585  0.00  0.00    +0.000 C 
ENDBRANCH  23  30
ENDBRANCH  19  27
ENDBRANCH   1  20
TORSDOF 4
ENDMDL
MODEL 8
REMARK VINA RESULT:      -8.5      3.694     10.225
REMARK  Name = 
REMARK  6 active torsions:
REMARK  status: ('A' for Active; 'I' for Inactive)
REMARK    1  A    between atoms: C_1  and  C_2
REMARK    2  A    between atoms: C_2  and  C_3
REMARK    3  A    between atoms: C_2  and  C_4
REMARK    4  A    between atoms: C_8  and  N_9
REMARK    5  A    between atoms: C_10  and  C_12
REMARK    6  A    between atoms: C_16  and  N_17
REMARK                            x       y       z     vdW  Elec       q    Type
REMARK                         _______ _______ _______ _____ _____    ______ ____
ROOT
ATOM      1  C   UNL     1       0.584  10.228  19.935  0.00  0.00    +0.000 A 
ATOM      2  C   UNL     1       0.124   9.971  21.231  0.00  0.00    +0.000 A 
ATOM      3  C   UNL     1       0.464   8.785  21.862  0.00  0.00    +0.000 A 
ATOM      4  C   UNL     1       1.254   7.850  21.191  0.00  0.00    +0.000 A 
ATOM      5  C   UNL     1       1.726   8.064  19.880  0.00  0.00    +0.000 A 
ATOM      6  C   UNL     1       1.390   9.287  19.275  0.00  0.00    +0.000 A 
ENDROOT
BRANCH   5   7
ATOM      7  N   UNL     1       2.499   7.114  19.246  0.00  0.00    +0.000 N 
ATOM      8  C   UNL     1       2.368   5.678  19.555  0.00  0.00    +0.000 C 
ATOM      9  C   UNL     1       3.208   5.076  18.507  0.00  0.00    +0.000 A 
ATOM     10  C   UNL     1       3.553   3.673  18.253  0.00  0.00    +0.000 A 
ATOM     11  N   UNL     1       4.327   3.266  17.288  0.00  0.00    +0.000 NA
ATOM     12  C   UNL     1       4.846   4.245  16.471  0.00  0.00    +0.000 A 
ATOM     13  C   UNL     1       5.698   4.180  15.394  0.00  0.00    +0.000 A 
ATOM     14  C   UNL     1       5.864   5.511  14.979  0.00  0.00    +0.000 A 
ATOM     15  N   UNL     1       5.170   6.379  15.716  0.00  0.00    +0.000 NA
ATOM     16  N   UNL     1       4.552   5.610  16.644  0.00  0.00    +0.000 N 
ATOM     17  C   UNL     1       3.723   5.983  17.678  0.00  0.00    +0.000 A 
ATOM     18  C   UNL     1       3.293   7.355  18.017  0.00  0.00    +0.000 C 
ENDBRANCH   5   7
BRANCH   1  20
ATOM     19  N   UNL     1       0.798  12.670  19.986  0.00  0.00    +0.000 N 
ATOM     20  C   UNL     1       0.267  11.557  19.354  0.00  0.00    +0.000 C 
ATOM     21  O   UNL     1      -0.409  11.563  18.326  0.00  0.00    +0.000 OA
ATOM     22  H   UNL     1       1.521  12.520  20.680  0.00  0.00    +0.000 HD
BRANCH  19  27
ATOM     23  C   UNL     1       1.327  16.079  18.553  0.00  0.00    +0.000 A 
ATOM     24  C   UNL     1       0.094  16.679  18.845  0.00  0.00    +0.000 A 
ATOM     25  C   UNL     1      -0.896  15.969  19.517  0.00  0.00    +0.000 A 
ATOM     26  C   UNL     1      -0.670  14.650  19.904  0.00  0.00    +0.000 A 
ATOM     27  C   UNL     1       0.538  14.012  19.616  0.00  0.00    +0.000 A 
ATOM     28  C   UNL     1       1.536  14.740  18.953  0.00  0.00    +0.000 A 
BRANCH  23  30
ATOM     29  C   UNL     1       3.540  15.972  17.237  0.00  0.00    +0.000 C 
ATOM     30  C   UNL     1       2.457  16.847  17.882  0.00  0.00    +0.000 C 
ATOM     31  C   UNL     1       1.874  17.804  16.840  0.00  0.00    +0.000 C 
ENDBRANCH  23  30
ENDBRANCH  19  27
ENDBRANCH   1  20
TORSDOF 4
ENDMDL
MODEL 9
REMARK VINA RESULT:      -8.5      3.359      6.147
REMARK  Name = 
REMARK  6 active torsions:
REMARK  status: ('A' for Active; 'I' for Inactive)
REMARK    1  A    between atoms: C_1  and  C_2
REMARK    2  A    between atoms: C_2  and  C_3
REMARK    3  A    between atoms: C_2  and  C_4
REMARK    4  A    between atoms: C_8  and  N_9
REMARK    5  A    between atoms: C_10  and  C_12
REMARK    6  A    between atoms: C_16  and  N_17
REMARK                            x       y       z     vdW  Elec       q    Type
REMARK                         _______ _______ _______ _____ _____    ______ ____
ROOT
ATOM      1  C   UNL     1       1.129   8.527  20.620  0.00  0.00    +0.000 A 
ATOM      2  C   UNL     1       0.320   8.344  21.746  0.00  0.00    +0.000 A 
ATOM      3  C   UNL     1      -0.416   9.405  22.248  0.00  0.00    +0.000 A 
ATOM      4  C   UNL     1      -0.331  10.654  21.631  0.00  0.00    +0.000 A 
ATOM      5  C   UNL     1       0.483  10.885  20.503  0.00  0.00    +0.000 A 
ATOM      6  C   UNL     1       1.196   9.784  19.998  0.00  0.00    +0.000 A 
ENDROOT
BRANCH   5   7
ATOM      7  N   UNL     1       0.548  12.134  19.924  0.00  0.00    +0.000 N 
ATOM      8  C   UNL     1      -0.548  13.112  20.069  0.00  0.00    +0.000 C 
ATOM      9  C   UNL     1       0.061  14.319  19.486  0.00  0.00    +0.000 A 
ATOM     10  C   UNL     1      -0.500  15.658  19.274  0.00  0.00    +0.000 A 
ATOM     11  N   UNL     1       0.144  16.650  18.728  0.00  0.00    +0.000 NA
ATOM     12  C   UNL     1       1.436  16.389  18.329  0.00  0.00    +0.000 A 
ATOM     13  C   UNL     1       2.378  17.177  17.711  0.00  0.00    +0.000 A 
ATOM     14  C   UNL     1       3.503  16.350  17.559  0.00  0.00    +0.000 A 
ATOM     15  N   UNL     1       3.318  15.122  18.045  0.00  0.00    +0.000 NA
ATOM     16  N   UNL     1       2.046  15.134  18.508  0.00  0.00    +0.000 N 
ATOM     17  C   UNL     1       1.319  14.123  19.096  0.00  0.00    +0.000 A 
ATOM     18  C   UNL     1       1.781  12.748  19.376  0.00  0.00    +0.000 C 
ENDBRANCH   5   7
BRANCH   1  20
ATOM     19  N   UNL     1       2.429   7.453  18.840  0.00  0.00    +0.000 N 
ATOM     20  C   UNL     1       1.813   7.327  20.075  0.00  0.00    +0.000 C 
ATOM     21  O   UNL     1       1.818   6.324  20.787  0.00  0.00    +0.000 OA
ATOM     22  H   UNL     1       2.552   8.386  18.464  0.00  0.00    +0.000 HD
BRANCH  19  27
ATOM     23  C   UNL     1       3.094   4.018  17.530  0.00  0.00    +0.000 A 
ATOM     24  C   UNL     1       4.250   4.246  16.772  0.00  0.00    +0.000 A 
ATOM     25  C   UNL     1       4.810   5.518  16.704  0.00  0.00    +0.000 A 
ATOM     26  C   UNL     1       4.222   6.580  17.388  0.00  0.00    +0.000 A 
ATOM     27  C   UNL     1       3.059   6.395  18.139  0.00  0.00    +0.000 A 
ATOM     28  C   UNL     1       2.511   5.107  18.217  0.00  0.00    +0.000 A 
BRANCH  23  30
ATOM     29  C   UNL     1       3.426   1.586  18.319  0.00  0.00    +0.000 C 
ATOM     30  C   UNL     1       2.494   2.627  17.684  0.00  0.00    +0.000 C 
ATOM     31  C   UNL     1       1.195   2.719  18.486  0.00  0.00    +0.000 C 
ENDBRANCH  23  30
ENDBRANCH  19  27
ENDBRANCH   1  20
TORSDOF 4
ENDMDL
