MODEL 1
REMARK VINA RESULT:      -6.5      0.000      0.000
REMARK  Name = 
REMARK  5 active torsions:
REMARK  status: ('A' for Active; 'I' for Inactive)
REMARK    1  A    between atoms: C_1  and  C_2
REMARK    2  A    between atoms: C_2  and  O_3
REMARK    3  A    between atoms: O_3  and  C_4
REMARK    4  A    between atoms: N_6  and  N_7
REMARK    5  A    between atoms: C_8  and  C_9
REMARK                            x       y       z     vdW  Elec       q    Type
REMARK                         _______ _______ _______ _____ _____    ______ ____
ROOT
ATOM      1  N   UNL     1       5.247   5.031  18.731  0.00  0.00    +0.000 NA
ATOM      2  C   UNL     1       4.057   5.489  18.525  0.00  0.00    +0.000 C 
ENDROOT
BRANCH   2   3
ATOM      3  C   UNL     1       2.890   4.707  18.968  0.00  0.00    +0.000 A 
ATOM      4  C   UNL     1       2.349   4.907  20.244  0.00  0.00    +0.000 A 
ATOM      5  C   UNL     1       1.241   4.164  20.655  0.00  0.00    +0.000 A 
ATOM      6  C   UNL     1       0.675   3.225  19.792  0.00  0.00    +0.000 A 
ATOM      7  C   UNL     1       1.212   3.029  18.518  0.00  0.00    +0.000 A 
ATOM      8  C   UNL     1       2.318   3.773  18.112  0.00  0.00    +0.000 A 
ATOM      9  F   UNL     1       2.819   3.575  16.883  0.00  0.00    +0.000 F 
ENDBRANCH   2   3
BRANCH   1  12
ATOM     10  C   UNL     1       7.394   5.913  19.134  0.00  0.00    +0.000 C 
ATOM     11  O   UNL     1       7.586   5.311  20.182  0.00  0.00    +0.000 OA
ATOM     12  N   UNL     1       6.288   5.800  18.325  0.00  0.00    +0.000 N 
ATOM     13  H   UNL     1       6.201   6.437  17.544  0.00  0.00    +0.000 HD
BRANCH  10  14
ATOM     14  O   UNL     1       8.224   6.867  18.630  0.00  0.00    +0.000 OA
BRANCH  14  16
ATOM     15  C   UNL     1       8.197   9.139  17.885  0.00  0.00    +0.000 C 
ATOM     16  C   UNL     1       7.607   7.754  17.685  0.00  0.00    +0.000 C 
ENDBRANCH  14  16
ENDBRANCH  10  14
ENDBRANCH   1  12
TORSDOF 4
ENDMDL
MODEL 2
REMARK VINA RESULT:      -6.4      2.667      3.059
REMARK  Name = 
REMARK  5 active torsions:
REMARK  status: ('A' for Active; 'I' for Inactive)
REMARK    1  A    between atoms: C_1  and  C_2
REMARK    2  A    between atoms: C_2  and  O_3
REMARK    3  A    between atoms: O_3  and  C_4
REMARK    4  A    between atoms: N_6  and  N_7
REMARK    5  A    between atoms: C_8  and  C_9
REMARK                            x       y       z     vdW  Elec       q    Type
REMARK                         _______ _______ _______ _____ _____    ______ ____
ROOT
ATOM      1  N   UNL     1       4.966   3.856  17.506  0.00  0.00    +0.000 NA
ATOM      2  C   UNL     1       3.743   4.258  17.403  0.00  0.00    +0.000 C 
ENDROOT
BRANCH   2   3
ATOM      3  C   UNL     1       2.816   4.064  18.530  0.00  0.00    +0.000 A 
ATOM      4  C   UNL     1       1.764   3.144  18.430  0.00  0.00    +0.000 A 
ATOM      5  C   UNL     1       0.891   2.964  19.504  0.00  0.00    +0.000 A 
ATOM      6  C   UNL     1       1.070   3.699  20.676  0.00  0.00    +0.000 A 
ATOM      7  C   UNL     1       2.122   4.613  20.778  0.00  0.00    +0.000 A 
ATOM      8  C   UNL     1       2.991   4.790  19.702  0.00  0.00    +0.000 A 
ATOM      9  F   UNL     1       3.998   5.669  19.818  0.00  0.00    +0.000 F 
ENDBRANCH   2   3
BRANCH   1  12
ATOM     10  C   UNL     1       7.084   4.471  16.678  0.00  0.00    +0.000 C 
ATOM     11  O   UNL     1       7.628   4.565  17.771  0.00  0.00    +0.000 OA
ATOM     12  N   UNL     1       5.786   4.079  16.449  0.00  0.00    +0.000 N 
ATOM     13  H   UNL     1       5.425   4.151  15.507  0.00  0.00    +0.000 HD
BRANCH  10  14
ATOM     14  O   UNL     1       7.664   4.816  15.496  0.00  0.00    +0.000 OA
BRANCH  14  16
ATOM     15  C   UNL     1       7.606   5.051  13.117  0.00  0.00    +0.000 C 
ATOM     16  C   UNL     1       6.791   4.740  14.360  0.00  0.00    +0.000 C 
ENDBRANCH  14  16
ENDBRANCH  10  14
ENDBRANCH   1  12
TORSDOF 4
ENDMDL
MODEL 3
REMARK VINA RESULT:      -6.3      2.594      2.948
REMARK  Name = 
REMARK  5 active torsions:
REMARK  status: ('A' for Active; 'I' for Inactive)
REMARK    1  A    between atoms: C_1  and  C_2
REMARK    2  A    between atoms: C_2  and  O_3
REMARK    3  A    between atoms: O_3  and  C_4
REMARK    4  A    between atoms: N_6  and  N_7
REMARK    5  A    between atoms: C_8  and  C_9
REMARK                            x       y       z     vdW  Elec       q    Type
REMARK                         _______ _______ _______ _____ _____    ______ ____
ROOT
ATOM      1  N   UNL     1       5.415   4.078  18.493  0.00  0.00    +0.000 NA
ATOM      2  C   UNL     1       4.400   3.307  18.282  0.00  0.00    +0.000 C 
ENDROOT
BRANCH   2   3
ATOM      3  C   UNL     1       3.283   3.295  19.242  0.00  0.00    +0.000 A 
ATOM      4  C   UNL     1       3.451   2.734  20.514  0.00  0.00    +0.000 A 
ATOM      5  C   UNL     1       2.388   2.729  21.419  0.00  0.00    +0.000 A 
ATOM      6  C   UNL     1       1.162   3.286  21.055  0.00  0.00    +0.000 A 
ATOM      7  C   UNL     1       0.996   3.850  19.787  0.00  0.00    +0.000 A 
ATOM      8  C   UNL     1       2.060   3.852  18.887  0.00  0.00    +0.000 A 
ATOM      9  F   UNL     1       1.885   4.401  17.675  0.00  0.00    +0.000 F 
ENDBRANCH   2   3
BRANCH   1  12
ATOM     10  C   UNL     1       6.521   5.128  16.699  0.00  0.00    +0.000 C 
ATOM     11  O   UNL     1       5.856   6.156  16.720  0.00  0.00    +0.000 OA
ATOM     12  N   UNL     1       6.406   4.069  17.568  0.00  0.00    +0.000 N 
ATOM     13  H   UNL     1       6.939   3.231  17.373  0.00  0.00    +0.000 HD
BRANCH  10  14
ATOM     14  O   UNL     1       7.449   4.831  15.748  0.00  0.00    +0.000 OA
BRANCH  14  16
ATOM     15  C   UNL     1       6.053   3.883  14.053  0.00  0.00    +0.000 C 
ATOM     16  C   UNL     1       7.000   5.019  14.398  0.00  0.00    +0.000 C 
ENDBRANCH  14  16
ENDBRANCH  10  14
ENDBRANCH   1  12
TORSDOF 4
ENDMDL
MODEL 4
REMARK VINA RESULT:      -6.3      3.295      3.660
REMARK  Name = 
REMARK  5 active torsions:
REMARK  status: ('A' for Active; 'I' for Inactive)
REMARK    1  A    between atoms: C_1  and  C_2
REMARK    2  A    between atoms: C_2  and  O_3
REMARK    3  A    between atoms: O_3  and  C_4
REMARK    4  A    between atoms: N_6  and  N_7
REMARK    5  A    between atoms: C_8  and  C_9
REMARK                            x       y       z     vdW  Elec       q    Type
REMARK                         _______ _______ _______ _____ _____    ______ ____
ROOT
ATOM      1  N   UNL     1       4.530   4.165  17.289  0.00  0.00    +0.000 NA
ATOM      2  C   UNL     1       3.607   3.290  17.517  0.00  0.00    +0.000 C 
ENDROOT
BRANCH   2   3
ATOM      3  C   UNL     1       2.900   3.298  18.809  0.00  0.00    +0.000 A 
ATOM      4  C   UNL     1       1.645   3.908  18.923  0.00  0.00    +0.000 A 
ATOM      5  C   UNL     1       0.980   3.909  20.151  0.00  0.00    +0.000 A 
ATOM      6  C   UNL     1       1.567   3.301  21.260  0.00  0.00    +0.000 A 
ATOM      7  C   UNL     1       2.818   2.689  21.145  0.00  0.00    +0.000 A 
ATOM      8  C   UNL     1       3.478   2.691  19.918  0.00  0.00    +0.000 A 
ATOM      9  F   UNL     1       4.677   2.095  19.824  0.00  0.00    +0.000 F 
ENDBRANCH   2   3
BRANCH   1  12
ATOM     10  C   UNL     1       6.499   4.280  16.002  0.00  0.00    +0.000 C 
ATOM     11  O   UNL     1       7.268   4.364  16.950  0.00  0.00    +0.000 OA
ATOM     12  N   UNL     1       5.134   4.129  16.076  0.00  0.00    +0.000 N 
ATOM     13  H   UNL     1       4.600   4.185  15.218  0.00  0.00    +0.000 HD
BRANCH  10  14
ATOM     14  O   UNL     1       6.868   4.399  14.697  0.00  0.00    +0.000 OA
BRANCH  14  16
ATOM     15  C   UNL     1       6.673   3.644  12.436  0.00  0.00    +0.000 C 
ATOM     16  C   UNL     1       5.954   3.804  13.763  0.00  0.00    +0.000 C 
ENDBRANCH  14  16
ENDBRANCH  10  14
ENDBRANCH   1  12
TORSDOF 4
ENDMDL
MODEL 5
REMARK VINA RESULT:      -6.3      2.609      2.762
REMARK  Name = 
REMARK  5 active torsions:
REMARK  status: ('A' for Active; 'I' for Inactive)
REMARK    1  A    between atoms: C_1  and  C_2
REMARK    2  A    between atoms: C_2  and  O_3
REMARK    3  A    between atoms: O_3  and  C_4
REMARK    4  A    between atoms: N_6  and  N_7
REMARK    5  A    between atoms: C_8  and  C_9
REMARK                            x       y       z     vdW  Elec       q    Type
REMARK                         _______ _______ _______ _____ _____    ______ ____
ROOT
ATOM      1  N   UNL     1       4.833   4.068  17.079  0.00  0.00    +0.000 NA
ATOM      2  C   UNL     1       3.725   4.717  17.219  0.00  0.00    +0.000 C 
ENDROOT
BRANCH   2   3
ATOM      3  C   UNL     1       2.803   4.356  18.309  0.00  0.00    +0.000 A 
ATOM      4  C   UNL     1       2.592   5.236  19.377  0.00  0.00    +0.000 A 
ATOM      5  C   UNL     1       1.713   4.886  20.405  0.00  0.00    +0.000 A 
ATOM      6  C   UNL     1       1.048   3.662  20.363  0.00  0.00    +0.000 A 
ATOM      7  C   UNL     1       1.255   2.785  19.295  0.00  0.00    +0.000 A 
ATOM      8  C   UNL     1       2.133   3.138  18.272  0.00  0.00    +0.000 A 
ATOM      9  F   UNL     1       2.318   2.287  17.252  0.00  0.00    +0.000 F 
ENDBRANCH   2   3
BRANCH   1  12
ATOM     10  C   UNL     1       6.991   4.659  16.343  0.00  0.00    +0.000 C 
ATOM     11  O   UNL     1       7.554   4.443  17.407  0.00  0.00    +0.000 OA
ATOM     12  N   UNL     1       5.658   4.455  16.074  0.00  0.00    +0.000 N 
ATOM     13  H   UNL     1       5.294   4.780  15.188  0.00  0.00    +0.000 HD
BRANCH  10  14
ATOM     14  O   UNL     1       7.588   5.216  15.254  0.00  0.00    +0.000 OA
BRANCH  14  16
ATOM     15  C   UNL     1       7.942   5.300  12.890  0.00  0.00    +0.000 C 
ATOM     16  C   UNL     1       7.014   4.829  13.996  0.00  0.00    +0.000 C 
ENDBRANCH  14  16
ENDBRANCH  10  14
ENDBRANCH   1  12
TORSDOF 4
ENDMDL
MODEL 6
REMARK VINA RESULT:      -6.2      2.658      3.052
REMARK  Name = 
REMARK  5 active torsions:
REMARK  status: ('A' for Active; 'I' for Inactive)
REMARK    1  A    between atoms: C_1  and  C_2
REMARK    2  A    between atoms: C_2  and  O_3
REMARK    3  A    between atoms: O_3  and  C_4
REMARK    4  A    between atoms: N_6  and  N_7
REMARK    5  A    between atoms: C_8  and  C_9
REMARK                            x       y       z     vdW  Elec       q    Type
REMARK                         _______ _______ _______ _____ _____    ______ ____
ROOT
ATOM      1  N   UNL     1       5.514   4.308  18.061  0.00  0.00    +0.000 NA
ATOM      2  C   UNL     1       4.345   3.837  17.780  0.00  0.00    +0.000 C 
ENDROOT
BRANCH   2   3
ATOM      3  C   UNL     1       3.250   3.980  18.754  0.00  0.00    +0.000 A 
ATOM      4  C   UNL     1       2.990   5.221  19.348  0.00  0.00    +0.000 A 
ATOM      5  C   UNL     1       1.948   5.349  20.268  0.00  0.00    +0.000 A 
ATOM      6  C   UNL     1       1.167   4.240  20.591  0.00  0.00    +0.000 A 
ATOM      7  C   UNL     1       1.423   3.002  19.995  0.00  0.00    +0.000 A 
ATOM      8  C   UNL     1       2.465   2.879  19.078  0.00  0.00    +0.000 A 
ATOM      9  F   UNL     1       2.695   1.685  18.512  0.00  0.00    +0.000 F 
ENDBRANCH   2   3
BRANCH   1  12
ATOM     10  C   UNL     1       6.737   5.216  16.264  0.00  0.00    +0.000 C 
ATOM     11  O   UNL     1       6.226   6.327  16.307  0.00  0.00    +0.000 OA
ATOM     12  N   UNL     1       6.482   4.171  17.121  0.00  0.00    +0.000 N 
ATOM     13  H   UNL     1       6.888   3.270  16.908  0.00  0.00    +0.000 HD
BRANCH  10  14
ATOM     14  O   UNL     1       7.601   4.803  15.296  0.00  0.00    +0.000 OA
BRANCH  14  16
ATOM     15  C   UNL     1       6.153   3.833  13.659  0.00  0.00    +0.000 C 
ATOM     16  C   UNL     1       7.117   4.968  13.955  0.00  0.00    +0.000 C 
ENDBRANCH  14  16
ENDBRANCH  10  14
ENDBRANCH   1  12
TORSDOF 4
ENDMDL
MODEL 7
REMARK VINA RESULT:      -6.2      3.323      3.858
REMARK  Name = 
REMARK  5 active torsions:
REMARK  status: ('A' for Active; 'I' for Inactive)
REMARK    1  A    between atoms: C_1  and  C_2
REMARK    2  A    between atoms: C_2  and  O_3
REMARK    3  A    between atoms: O_3  and  C_4
REMARK    4  A    between atoms: N_6  and  N_7
REMARK    5  A    between atoms: C_8  and  C_9
REMARK                            x       y       z     vdW  Elec       q    Type
REMARK                         _______ _______ _______ _____ _____    ______ ____
ROOT
ATOM      1  N   UNL     1       4.167   4.556  16.791  0.00  0.00    +0.000 NA
ATOM      2  C   UNL     1       4.084   3.637  17.695  0.00  0.00    +0.000 C 
ENDROOT
BRANCH   2   3
ATOM      3  C   UNL     1       3.026   3.715  18.716  0.00  0.00    +0.000 A 
ATOM      4  C   UNL     1       1.893   2.896  18.624  0.00  0.00    +0.000 A 
ATOM      5  C   UNL     1       0.896   2.974  19.598  0.00  0.00    +0.000 A 
ATOM      6  C   UNL     1       1.032   3.865  20.661  0.00  0.00    +0.000 A 
ATOM      7  C   UNL     1       2.164   4.679  20.756  0.00  0.00    +0.000 A 
ATOM      8  C   UNL     1       3.156   4.598  19.781  0.00  0.00    +0.000 A 
ATOM      9  F   UNL     1       4.239   5.384  19.889  0.00  0.00    +0.000 F 
ENDBRANCH   2   3
BRANCH   1  12
ATOM     10  C   UNL     1       5.660   5.555  15.268  0.00  0.00    +0.000 C 
ATOM     11  O   UNL     1       5.385   6.712  15.556  0.00  0.00    +0.000 OA
ATOM     12  N   UNL     1       5.144   4.426  15.860  0.00  0.00    +0.000 N 
ATOM     13  H   UNL     1       5.370   3.528  15.453  0.00  0.00    +0.000 HD
BRANCH  10  14
ATOM     14  O   UNL     1       6.481   5.190  14.245  0.00  0.00    +0.000 OA
BRANCH  14  16
ATOM     15  C   UNL     1       6.638   3.802  12.303  0.00  0.00    +0.000 C 
ATOM     16  C   UNL     1       6.294   3.845  13.782  0.00  0.00    +0.000 C 
ENDBRANCH  14  16
ENDBRANCH  10  14
ENDBRANCH   1  12
TORSDOF 4
ENDMDL
MODEL 8
REMARK VINA RESULT:      -6.2      3.084      3.527
REMARK  Name = 
REMARK  5 active torsions:
REMARK  status: ('A' for Active; 'I' for Inactive)
REMARK    1  A    between atoms: C_1  and  C_2
REMARK    2  A    between atoms: C_2  and  O_3
REMARK    3  A    between atoms: O_3  and  C_4
REMARK    4  A    between atoms: N_6  and  N_7
REMARK    5  A    between atoms: C_8  and  C_9
REMARK                            x       y       z     vdW  Elec       q    Type
REMARK                         _______ _______ _______ _____ _____    ______ ____
ROOT
ATOM      1  N   UNL     1       4.718   4.821  17.281  0.00  0.00    +0.000 NA
ATOM      2  C   UNL     1       3.866   3.860  17.420  0.00  0.00    +0.000 C 
ENDROOT
BRANCH   2   3
ATOM      3  C   UNL     1       2.844   3.941  18.477  0.00  0.00    +0.000 A 
ATOM      4  C   UNL     1       2.804   5.045  19.339  0.00  0.00    +0.000 A 
ATOM      5  C   UNL     1       1.830   5.115  20.336  0.00  0.00    +0.000 A 
ATOM      6  C   UNL     1       0.898   4.087  20.471  0.00  0.00    +0.000 A 
ATOM      7  C   UNL     1       0.934   2.988  19.609  0.00  0.00    +0.000 A 
ATOM      8  C   UNL     1       1.909   2.922  18.614  0.00  0.00    +0.000 A 
ATOM      9  F   UNL     1       1.928   1.861  17.792  0.00  0.00    +0.000 F 
ENDBRANCH   2   3
BRANCH   1  12
ATOM     10  C   UNL     1       5.719   5.715  15.345  0.00  0.00    +0.000 C 
ATOM     11  O   UNL     1       5.111   6.778  15.364  0.00  0.00    +0.000 OA
ATOM     12  N   UNL     1       5.624   4.709  16.278  0.00  0.00    +0.000 N 
ATOM     13  H   UNL     1       6.094   3.835  16.087  0.00  0.00    +0.000 HD
BRANCH  10  14
ATOM     14  O   UNL     1       6.544   5.318  14.339  0.00  0.00    +0.000 OA
BRANCH  14  16
ATOM     15  C   UNL     1       5.853   3.669  12.750  0.00  0.00    +0.000 C 
ATOM     16  C   UNL     1       6.537   3.905  14.085  0.00  0.00    +0.000 C 
ENDBRANCH  14  16
ENDBRANCH  10  14
ENDBRANCH   1  12
TORSDOF 4
ENDMDL
MODEL 9
REMARK VINA RESULT:      -6.2      2.724      3.117
REMARK  Name = 
REMARK  5 active torsions:
REMARK  status: ('A' for Active; 'I' for Inactive)
REMARK    1  A    between atoms: C_1  and  C_2
REMARK    2  A    between atoms: C_2  and  O_3
REMARK    3  A    between atoms: O_3  and  C_4
REMARK    4  A    between atoms: N_6  and  N_7
REMARK    5  A    between atoms: C_8  and  C_9
REMARK                            x       y       z     vdW  Elec       q    Type
REMARK                         _______ _______ _______ _____ _____    ______ ____
ROOT
ATOM      1  N   UNL     1       5.792   4.069  18.825  0.00  0.00    +0.000 NA
ATOM      2  C   UNL     1       4.625   3.607  18.520  0.00  0.00    +0.000 C 
ENDROOT
BRANCH   2   3
ATOM      3  C   UNL     1       3.560   3.590  19.537  0.00  0.00    +0.000 A 
ATOM      4  C   UNL     1       2.573   4.583  19.544  0.00  0.00    +0.000 A 
ATOM      5  C   UNL     1       1.566   4.557  20.510  0.00  0.00    +0.000 A 
ATOM      6  C   UNL     1       1.544   3.541  21.465  0.00  0.00    +0.000 A 
ATOM      7  C   UNL     1       2.527   2.548  21.456  0.00  0.00    +0.000 A 
ATOM      8  C   UNL     1       3.531   2.578  20.489  0.00  0.00    +0.000 A 
ATOM      9  F   UNL     1       4.464   1.614  20.492  0.00  0.00    +0.000 F 
ENDBRANCH   2   3
BRANCH   1  12
ATOM     10  C   UNL     1       6.755   5.135  16.958  0.00  0.00    +0.000 C 
ATOM     11  O   UNL     1       6.052   6.135  17.003  0.00  0.00    +0.000 OA
ATOM     12  N   UNL     1       6.730   4.084  17.846  0.00  0.00    +0.000 N 
ATOM     13  H   UNL     1       7.284   3.266  17.633  0.00  0.00    +0.000 HD
BRANCH  10  14
ATOM     14  O   UNL     1       7.641   4.859  15.962  0.00  0.00    +0.000 OA
BRANCH  14  16
ATOM     15  C   UNL     1       6.275   3.842  14.281  0.00  0.00    +0.000 C 
ATOM     16  C   UNL     1       7.124   5.051  14.636  0.00  0.00    +0.000 C 
ENDBRANCH  14  16
ENDBRANCH  10  14
ENDBRANCH   1  12
TORSDOF 4
ENDMDL
