MODEL 1
REMARK VINA RESULT:      -8.0      0.000      0.000
REMARK  Name = 
REMARK  4 active torsions:
REMARK  status: ('A' for Active; 'I' for Inactive)
REMARK    1  A    between atoms: C_2  and  C_3
REMARK    2  A    between atoms: C_3  and  C_4
REMARK    3  A    between atoms: C_4  and  N_5
REMARK    4  A    between atoms: N_16  and  C_17
REMARK                            x       y       z     vdW  Elec       q    Type
REMARK                         _______ _______ _______ _____ _____    ______ ____
ROOT
ATOM      1  C   UNL     1       1.042   2.841  19.970  0.00  0.00    +0.000 C 
ENDROOT
BRANCH   1   3
ATOM      2  O   UNL     1       2.196   3.989  21.749  0.00  0.00    +0.000 OA
ATOM      3  C   UNL     1       1.658   4.060  20.653  0.00  0.00    +0.000 C 
ATOM      4  N   UNL     1       1.594   5.210  19.905  0.00  0.00    +0.000 N 
ATOM      5  H   UNL     1       1.067   5.185  19.038  0.00  0.00    +0.000 HD
BRANCH   4   6
ATOM      6  C   UNL     1       2.098   6.528  20.343  0.00  0.00    +0.000 C 
ATOM      7  C   UNL     1       2.968   7.128  19.232  0.00  0.00    +0.000 C 
ATOM      8  C   UNL     1       2.171   7.698  18.057  0.00  0.00    +0.000 C 
ATOM      9  C   UNL     1       1.866   9.185  18.227  0.00  0.00    +0.000 C 
ATOM     10  C   UNL     1       0.890   9.535  19.349  0.00  0.00    +0.000 C 
ATOM     11  C   UNL     1       1.216   8.943  20.722  0.00  0.00    +0.000 C 
ATOM     12  C   UNL     1       0.938   7.437  20.806  0.00  0.00    +0.000 C 
ENDBRANCH   4   6
ENDBRANCH   1   3
BRANCH   1  13
ATOM     13  C   UNL     1       2.119   1.981  19.312  0.00  0.00    +0.000 C 
BRANCH  13  14
ATOM     14  N   UNL     1       3.172   2.784  18.704  0.00  0.00    +0.000 N 
ATOM     15  C   UNL     1       3.042   3.470  17.526  0.00  0.00    +0.000 C 
ATOM     16  O   UNL     1       2.106   3.512  16.759  0.00  0.00    +0.000 OA
ATOM     17  C   UNL     1       4.299   4.182  17.313  0.00  0.00    +0.000 A 
ATOM     18  C   UNL     1       4.710   5.061  16.334  0.00  0.00    +0.000 A 
ATOM     19  C   UNL     1       5.998   5.587  16.465  0.00  0.00    +0.000 A 
ATOM     20  C   UNL     1       6.792   5.195  17.553  0.00  0.00    +0.000 A 
ATOM     21  N   UNL     1       6.393   4.329  18.517  0.00  0.00    +0.000 NA
ATOM     22  C   UNL     1       5.141   3.862  18.348  0.00  0.00    +0.000 A 
ATOM     23  C   UNL     1       4.425   2.946  19.248  0.00  0.00    +0.000 C 
ATOM     24  O   UNL     1       4.864   2.442  20.261  0.00  0.00    +0.000 OA
ENDBRANCH  13  14
ENDBRANCH   1  13
TORSDOF 4
ENDMDL
MODEL 2
REMARK VINA RESULT:      -7.6      3.324      7.401
REMARK  Name = 
REMARK  4 active torsions:
REMARK  status: ('A' for Active; 'I' for Inactive)
REMARK    1  A    between atoms: C_2  and  C_3
REMARK    2  A    between atoms: C_3  and  C_4
REMARK    3  A    between atoms: C_4  and  N_5
REMARK    4  A    between atoms: N_16  and  C_17
REMARK                            x       y       z     vdW  Elec       q    Type
REMARK                         _______ _______ _______ _____ _____    ______ ____
ROOT
ATOM      1  C   UNL     1       2.525   9.081  17.946  0.00  0.00    +0.000 C 
ENDROOT
BRANCH   1   3
ATOM      2  O   UNL     1       4.214   7.483  17.306  0.00  0.00    +0.000 OA
ATOM      3  C   UNL     1       3.136   7.684  17.848  0.00  0.00    +0.000 C 
ATOM      4  N   UNL     1       2.393   6.705  18.461  0.00  0.00    +0.000 N 
ATOM      5  H   UNL     1       1.479   6.959  18.823  0.00  0.00    +0.000 HD
BRANCH   4   6
ATOM      6  C   UNL     1       2.751   5.273  18.493  0.00  0.00    +0.000 C 
ATOM      7  C   UNL     1       3.037   4.858  19.941  0.00  0.00    +0.000 C 
ATOM      8  C   UNL     1       1.782   4.679  20.797  0.00  0.00    +0.000 C 
ATOM      9  C   UNL     1       1.273   3.239  20.788  0.00  0.00    +0.000 C 
ATOM     10  C   UNL     1       0.707   2.747  19.458  0.00  0.00    +0.000 C 
ATOM     11  C   UNL     1       1.605   2.954  18.236  0.00  0.00    +0.000 C 
ATOM     12  C   UNL     1       1.675   4.419  17.786  0.00  0.00    +0.000 C 
ENDBRANCH   4   6
ENDBRANCH   1   3
BRANCH   1  13
ATOM     13  C   UNL     1       1.000   9.007  17.983  0.00  0.00    +0.000 C 
BRANCH  13  14
ATOM     14  N   UNL     1       0.444   9.646  19.169  0.00  0.00    +0.000 N 
ATOM     15  C   UNL     1      -0.303  10.794  19.154  0.00  0.00    +0.000 C 
ATOM     16  O   UNL     1      -0.598  11.509  18.221  0.00  0.00    +0.000 OA
ATOM     17  C   UNL     1      -0.706  11.052  20.533  0.00  0.00    +0.000 A 
ATOM     18  C   UNL     1      -1.504  12.024  21.098  0.00  0.00    +0.000 A 
ATOM     19  C   UNL     1      -1.704  11.945  22.479  0.00  0.00    +0.000 A 
ATOM     20  C   UNL     1      -1.090  10.913  23.203  0.00  0.00    +0.000 A 
ATOM     21  N   UNL     1      -0.303   9.956  22.653  0.00  0.00    +0.000 NA
ATOM     22  C   UNL     1      -0.152  10.073  21.320  0.00  0.00    +0.000 A 
ATOM     23  C   UNL     1       0.606   9.164  20.446  0.00  0.00    +0.000 C 
ATOM     24  O   UNL     1       1.242   8.192  20.798  0.00  0.00    +0.000 OA
ENDBRANCH  13  14
ENDBRANCH   1  13
TORSDOF 4
ENDMDL
MODEL 3
REMARK VINA RESULT:      -7.5      3.414      7.581
REMARK  Name = 
REMARK  4 active torsions:
REMARK  status: ('A' for Active; 'I' for Inactive)
REMARK    1  A    between atoms: C_2  and  C_3
REMARK    2  A    between atoms: C_3  and  C_4
REMARK    3  A    between atoms: C_4  and  N_5
REMARK    4  A    between atoms: N_16  and  C_17
REMARK                            x       y       z     vdW  Elec       q    Type
REMARK                         _______ _______ _______ _____ _____    ______ ____
ROOT
ATOM      1  C   UNL     1       2.604   9.083  18.038  0.00  0.00    +0.000 C 
ENDROOT
BRANCH   1   3
ATOM      2  O   UNL     1       4.185   7.459  17.214  0.00  0.00    +0.000 OA
ATOM      3  C   UNL     1       3.161   7.674  17.848  0.00  0.00    +0.000 C 
ATOM      4  N   UNL     1       2.439   6.698  18.491  0.00  0.00    +0.000 N 
ATOM      5  H   UNL     1       1.566   6.966  18.934  0.00  0.00    +0.000 HD
BRANCH   4   6
ATOM      6  C   UNL     1       2.754   5.255  18.451  0.00  0.00    +0.000 C 
ATOM      7  C   UNL     1       3.157   4.789  19.855  0.00  0.00    +0.000 C 
ATOM      8  C   UNL     1       1.979   4.620  20.817  0.00  0.00    +0.000 C 
ATOM      9  C   UNL     1       1.426   3.197  20.816  0.00  0.00    +0.000 C 
ATOM     10  C   UNL     1       0.727   2.762  19.530  0.00  0.00    +0.000 C 
ATOM     11  C   UNL     1       1.517   2.979  18.237  0.00  0.00    +0.000 C 
ATOM     12  C   UNL     1       1.592   4.454  17.822  0.00  0.00    +0.000 C 
ENDBRANCH   4   6
ENDBRANCH   1   3
BRANCH   1  13
ATOM     13  C   UNL     1       1.081   9.087  17.931  0.00  0.00    +0.000 C 
BRANCH  13  14
ATOM     14  N   UNL     1       0.444   9.638  19.121  0.00  0.00    +0.000 N 
ATOM     15  C   UNL     1       0.591   9.131  20.384  0.00  0.00    +0.000 C 
ATOM     16  O   UNL     1       1.197   8.149  20.755  0.00  0.00    +0.000 OA
ATOM     17  C   UNL     1      -0.159  10.007  21.279  0.00  0.00    +0.000 A 
ATOM     18  C   UNL     1      -0.317  10.015  22.648  0.00  0.00    +0.000 A 
ATOM     19  C   UNL     1      -1.098  11.045  23.182  0.00  0.00    +0.000 A 
ATOM     20  C   UNL     1      -1.675  11.986  22.319  0.00  0.00    +0.000 A 
ATOM     21  N   UNL     1      -1.524  11.982  20.972  0.00  0.00    +0.000 NA
ATOM     22  C   UNL     1      -0.755  10.977  20.512  0.00  0.00    +0.000 A 
ATOM     23  C   UNL     1      -0.380  10.738  19.110  0.00  0.00    +0.000 C 
ATOM     24  O   UNL     1      -0.737  11.389  18.149  0.00  0.00    +0.000 OA
ENDBRANCH  13  14
ENDBRANCH   1  13
TORSDOF 4
ENDMDL
MODEL 4
REMARK VINA RESULT:      -7.4      5.740      7.490
REMARK  Name = 
REMARK  4 active torsions:
REMARK  status: ('A' for Active; 'I' for Inactive)
REMARK    1  A    between atoms: C_2  and  C_3
REMARK    2  A    between atoms: C_3  and  C_4
REMARK    3  A    between atoms: C_4  and  N_5
REMARK    4  A    between atoms: N_16  and  C_17
REMARK                            x       y       z     vdW  Elec       q    Type
REMARK                         _______ _______ _______ _____ _____    ______ ____
ROOT
ATOM      1  C   UNL     1       7.679   8.718  17.696  0.00  0.00    +0.000 C 
ENDROOT
BRANCH   1   3
ATOM      2  O   UNL     1       9.172   9.356  19.480  0.00  0.00    +0.000 OA
ATOM      3  C   UNL     1       8.527   9.702  18.500  0.00  0.00    +0.000 C 
ATOM      4  N   UNL     1       8.533  10.978  17.992  0.00  0.00    +0.000 N 
ATOM      5  H   UNL     1       7.912  11.184  17.216  0.00  0.00    +0.000 HD
BRANCH   4   6
ATOM      6  C   UNL     1       9.256  12.119  18.590  0.00  0.00    +0.000 C 
ATOM      7  C   UNL     1      10.741  11.762  18.717  0.00  0.00    +0.000 C 
ATOM      8  C   UNL     1      11.511  11.823  17.396  0.00  0.00    +0.000 C 
ATOM      9  C   UNL     1      12.154  13.187  17.159  0.00  0.00    +0.000 C 
ATOM     10  C   UNL     1      11.184  14.339  16.905  0.00  0.00    +0.000 C 
ATOM     11  C   UNL     1      10.060  14.501  17.930  0.00  0.00    +0.000 C 
ATOM     12  C   UNL     1       8.977  13.421  17.807  0.00  0.00    +0.000 C 
ENDBRANCH   4   6
ENDBRANCH   1   3
BRANCH   1  13
ATOM     13  C   UNL     1       8.171   7.286  17.893  0.00  0.00    +0.000 C 
BRANCH  13  14
ATOM     14  N   UNL     1       7.073   6.330  17.967  0.00  0.00    +0.000 N 
ATOM     15  C   UNL     1       6.146   6.136  16.978  0.00  0.00    +0.000 C 
ATOM     16  O   UNL     1       6.014   6.714  15.921  0.00  0.00    +0.000 OA
ATOM     17  C   UNL     1       5.270   5.059  17.428  0.00  0.00    +0.000 A 
ATOM     18  C   UNL     1       4.211   4.413  16.825  0.00  0.00    +0.000 A 
ATOM     19  C   UNL     1       3.610   3.383  17.553  0.00  0.00    +0.000 A 
ATOM     20  C   UNL     1       4.093   3.073  18.832  0.00  0.00    +0.000 A 
ATOM     21  N   UNL     1       5.133   3.706  19.430  0.00  0.00    +0.000 NA
ATOM     22  C   UNL     1       5.682   4.681  18.682  0.00  0.00    +0.000 A 
ATOM     23  C   UNL     1       6.842   5.509  19.045  0.00  0.00    +0.000 C 
ATOM     24  O   UNL     1       7.459   5.465  20.090  0.00  0.00    +0.000 OA
ENDBRANCH  13  14
ENDBRANCH   1  13
TORSDOF 4
ENDMDL
MODEL 5
REMARK VINA RESULT:      -7.4      5.235      7.187
REMARK  Name = 
REMARK  4 active torsions:
REMARK  status: ('A' for Active; 'I' for Inactive)
REMARK    1  A    between atoms: C_2  and  C_3
REMARK    2  A    between atoms: C_3  and  C_4
REMARK    3  A    between atoms: C_4  and  N_5
REMARK    4  A    between atoms: N_16  and  C_17
REMARK                            x       y       z     vdW  Elec       q    Type
REMARK                         _______ _______ _______ _____ _____    ______ ____
ROOT
ATOM      1  C   UNL     1       8.101   7.337  18.525  0.00  0.00    +0.000 C 
ENDROOT
BRANCH   1   3
ATOM      2  O   UNL     1       7.394   9.175  17.133  0.00  0.00    +0.000 OA
ATOM      3  C   UNL     1       8.122   8.783  18.035  0.00  0.00    +0.000 C 
ATOM      4  N   UNL     1       8.985   9.595  18.729  0.00  0.00    +0.000 N 
ATOM      5  H   UNL     1       9.597   9.163  19.415  0.00  0.00    +0.000 HD
BRANCH   4   6
ATOM      6  C   UNL     1       9.208  11.027  18.444  0.00  0.00    +0.000 C 
ATOM      7  C   UNL     1       9.177  11.813  19.760  0.00  0.00    +0.000 C 
ATOM      8  C   UNL     1      10.447  11.669  20.601  0.00  0.00    +0.000 C 
ATOM      9  C   UNL     1      11.470  12.763  20.304  0.00  0.00    +0.000 C 
ATOM     10  C   UNL     1      12.112  12.708  18.919  0.00  0.00    +0.000 C 
ATOM     11  C   UNL     1      11.142  12.613  17.739  0.00  0.00    +0.000 C 
ATOM     12  C   UNL     1      10.491  11.230  17.609  0.00  0.00    +0.000 C 
ENDBRANCH   4   6
ENDBRANCH   1   3
BRANCH   1  13
ATOM     13  C   UNL     1       7.429   6.424  17.502  0.00  0.00    +0.000 C 
BRANCH  13  14
ATOM     14  N   UNL     1       6.119   5.965  17.947  0.00  0.00    +0.000 N 
ATOM     15  C   UNL     1       4.946   6.206  17.284  0.00  0.00    +0.000 C 
ATOM     16  O   UNL     1       4.748   6.855  16.280  0.00  0.00    +0.000 OA
ATOM     17  C   UNL     1       3.893   5.526  18.031  0.00  0.00    +0.000 A 
ATOM     18  C   UNL     1       2.541   5.379  17.801  0.00  0.00    +0.000 A 
ATOM     19  C   UNL     1       1.827   4.619  18.732  0.00  0.00    +0.000 A 
ATOM     20  C   UNL     1       2.501   4.067  19.830  0.00  0.00    +0.000 A 
ATOM     21  N   UNL     1       3.829   4.210  20.062  0.00  0.00    +0.000 NA
ATOM     22  C   UNL     1       4.471   4.941  19.130  0.00  0.00    +0.000 A 
ATOM     23  C   UNL     1       5.912   5.231  19.092  0.00  0.00    +0.000 C 
ATOM     24  O   UNL     1       6.738   4.887  19.912  0.00  0.00    +0.000 OA
ENDBRANCH  13  14
ENDBRANCH   1  13
TORSDOF 4
ENDMDL
MODEL 6
REMARK VINA RESULT:      -7.4      3.299      5.564
REMARK  Name = 
REMARK  4 active torsions:
REMARK  status: ('A' for Active; 'I' for Inactive)
REMARK    1  A    between atoms: C_2  and  C_3
REMARK    2  A    between atoms: C_3  and  C_4
REMARK    3  A    between atoms: C_4  and  N_5
REMARK    4  A    between atoms: N_16  and  C_17
REMARK                            x       y       z     vdW  Elec       q    Type
REMARK                         _______ _______ _______ _____ _____    ______ ____
ROOT
ATOM      1  C   UNL     1       7.538   4.783  17.608  0.00  0.00    +0.000 C 
ENDROOT
BRANCH   1   3
ATOM      2  O   UNL     1       6.651   5.264  19.798  0.00  0.00    +0.000 OA
ATOM      3  C   UNL     1       6.548   4.626  18.760  0.00  0.00    +0.000 C 
ATOM      4  N   UNL     1       5.521   3.752  18.497  0.00  0.00    +0.000 N 
ATOM      5  H   UNL     1       5.560   3.218  17.634  0.00  0.00    +0.000 HD
BRANCH   4   6
ATOM      6  C   UNL     1       4.445   3.408  19.448  0.00  0.00    +0.000 C 
ATOM      7  C   UNL     1       3.494   4.603  19.585  0.00  0.00    +0.000 C 
ATOM      8  C   UNL     1       2.543   4.780  18.400  0.00  0.00    +0.000 C 
ATOM      9  C   UNL     1       1.211   4.063  18.610  0.00  0.00    +0.000 C 
ATOM     10  C   UNL     1       1.277   2.537  18.616  0.00  0.00    +0.000 C 
ATOM     11  C   UNL     1       2.317   1.920  19.554  0.00  0.00    +0.000 C 
ATOM     12  C   UNL     1       3.755   2.085  19.046  0.00  0.00    +0.000 C 
ENDBRANCH   4   6
ENDBRANCH   1   3
BRANCH   1  13
ATOM     13  C   UNL     1       7.025   5.788  16.580  0.00  0.00    +0.000 C 
BRANCH  13  14
ATOM     14  N   UNL     1       6.693   5.158  15.308  0.00  0.00    +0.000 N 
ATOM     15  C   UNL     1       7.488   5.194  14.193  0.00  0.00    +0.000 C 
ATOM     16  O   UNL     1       8.543   5.765  14.018  0.00  0.00    +0.000 OA
ATOM     17  C   UNL     1       6.817   4.396  13.172  0.00  0.00    +0.000 A 
ATOM     18  C   UNL     1       7.178   4.041  11.890  0.00  0.00    +0.000 A 
ATOM     19  C   UNL     1       6.286   3.222  11.192  0.00  0.00    +0.000 A 
ATOM     20  C   UNL     1       5.094   2.822  11.812  0.00  0.00    +0.000 A 
ATOM     21  N   UNL     1       4.733   3.170  13.072  0.00  0.00    +0.000 NA
ATOM     22  C   UNL     1       5.632   3.950  13.701  0.00  0.00    +0.000 A 
ATOM     23  C   UNL     1       5.537   4.449  15.082  0.00  0.00    +0.000 C 
ATOM     24  O   UNL     1       4.616   4.266  15.851  0.00  0.00    +0.000 OA
ENDBRANCH  13  14
ENDBRANCH   1  13
TORSDOF 4
ENDMDL
MODEL 7
REMARK VINA RESULT:      -7.3      3.303      5.513
REMARK  Name = 
REMARK  4 active torsions:
REMARK  status: ('A' for Active; 'I' for Inactive)
REMARK    1  A    between atoms: C_2  and  C_3
REMARK    2  A    between atoms: C_3  and  C_4
REMARK    3  A    between atoms: C_4  and  N_5
REMARK    4  A    between atoms: N_16  and  C_17
REMARK                            x       y       z     vdW  Elec       q    Type
REMARK                         _______ _______ _______ _____ _____    ______ ____
ROOT
ATOM      1  C   UNL     1       7.540   4.932  17.661  0.00  0.00    +0.000 C 
ENDROOT
BRANCH   1   3
ATOM      2  O   UNL     1       6.681   5.363  19.873  0.00  0.00    +0.000 OA
ATOM      3  C   UNL     1       6.563   4.751  18.821  0.00  0.00    +0.000 C 
ATOM      4  N   UNL     1       5.530   3.887  18.549  0.00  0.00    +0.000 N 
ATOM      5  H   UNL     1       5.556   3.374  17.673  0.00  0.00    +0.000 HD
BRANCH   4   6
ATOM      6  C   UNL     1       4.463   3.524  19.505  0.00  0.00    +0.000 C 
ATOM      7  C   UNL     1       3.460   4.679  19.601  0.00  0.00    +0.000 C 
ATOM      8  C   UNL     1       2.510   4.779  18.407  0.00  0.00    +0.000 C 
ATOM      9  C   UNL     1       1.209   4.011  18.630  0.00  0.00    +0.000 C 
ATOM     10  C   UNL     1       1.342   2.490  18.682  0.00  0.00    +0.000 C 
ATOM     11  C   UNL     1       2.402   1.947  19.644  0.00  0.00    +0.000 C 
ATOM     12  C   UNL     1       3.834   2.161  19.138  0.00  0.00    +0.000 C 
ENDBRANCH   4   6
ENDBRANCH   1   3
BRANCH   1  13
ATOM     13  C   UNL     1       6.959   5.861  16.598  0.00  0.00    +0.000 C 
BRANCH  13  14
ATOM     14  N   UNL     1       6.681   5.165  15.348  0.00  0.00    +0.000 N 
ATOM     15  C   UNL     1       5.584   4.376  15.126  0.00  0.00    +0.000 C 
ATOM     16  O   UNL     1       4.695   4.062  15.887  0.00  0.00    +0.000 OA
ATOM     17  C   UNL     1       5.663   3.926  13.740  0.00  0.00    +0.000 A 
ATOM     18  C   UNL     1       4.814   3.166  12.964  0.00  0.00    +0.000 A 
ATOM     19  C   UNL     1       5.200   2.953  11.637  0.00  0.00    +0.000 A 
ATOM     20  C   UNL     1       6.407   3.501  11.178  0.00  0.00    +0.000 A 
ATOM     21  N   UNL     1       7.246   4.247  11.937  0.00  0.00    +0.000 NA
ATOM     22  C   UNL     1       6.821   4.430  13.202  0.00  0.00    +0.000 A 
ATOM     23  C   UNL     1       7.495   5.224  14.241  0.00  0.00    +0.000 C 
ATOM     24  O   UNL     1       8.555   5.805  14.128  0.00  0.00    +0.000 OA
ENDBRANCH  13  14
ENDBRANCH   1  13
TORSDOF 4
ENDMDL
MODEL 8
REMARK VINA RESULT:      -7.3      4.906      6.533
REMARK  Name = 
REMARK  4 active torsions:
REMARK  status: ('A' for Active; 'I' for Inactive)
REMARK    1  A    between atoms: C_2  and  C_3
REMARK    2  A    between atoms: C_3  and  C_4
REMARK    3  A    between atoms: C_4  and  N_5
REMARK    4  A    between atoms: N_16  and  C_17
REMARK                            x       y       z     vdW  Elec       q    Type
REMARK                         _______ _______ _______ _____ _____    ______ ____
ROOT
ATOM      1  C   UNL     1       7.056   7.889  17.491  0.00  0.00    +0.000 C 
ENDROOT
BRANCH   1   3
ATOM      2  O   UNL     1       8.858   7.756  19.088  0.00  0.00    +0.000 OA
ATOM      3  C   UNL     1       8.223   8.447  18.303  0.00  0.00    +0.000 C 
ATOM      4  N   UNL     1       8.514   9.762  18.031  0.00  0.00    +0.000 N 
ATOM      5  H   UNL     1       7.886  10.270  17.416  0.00  0.00    +0.000 HD
BRANCH   4   6
ATOM      6  C   UNL     1       9.580  10.541  18.692  0.00  0.00    +0.000 C 
ATOM      7  C   UNL     1       9.838  11.822  17.888  0.00  0.00    +0.000 C 
ATOM      8  C   UNL     1       8.773  12.903  18.082  0.00  0.00    +0.000 C 
ATOM      9  C   UNL     1       9.128  13.877  19.202  0.00  0.00    +0.000 C 
ATOM     10  C   UNL     1       9.112  13.294  20.614  0.00  0.00    +0.000 C 
ATOM     11  C   UNL     1       9.918  12.007  20.811  0.00  0.00    +0.000 C 
ATOM     12  C   UNL     1       9.248  10.779  20.181  0.00  0.00    +0.000 C 
ENDBRANCH   4   6
ENDBRANCH   1   3
BRANCH   1  13
ATOM     13  C   UNL     1       7.340   6.459  17.039  0.00  0.00    +0.000 C 
BRANCH  13  14
ATOM     14  N   UNL     1       6.300   5.529  17.461  0.00  0.00    +0.000 N 
ATOM     15  C   UNL     1       5.279   5.090  16.659  0.00  0.00    +0.000 C 
ATOM     16  O   UNL     1       5.008   5.401  15.520  0.00  0.00    +0.000 OA
ATOM     17  C   UNL     1       4.506   4.136  17.447  0.00  0.00    +0.000 A 
ATOM     18  C   UNL     1       3.417   3.348  17.139  0.00  0.00    +0.000 A 
ATOM     19  C   UNL     1       2.944   2.509  18.152  0.00  0.00    +0.000 A 
ATOM     20  C   UNL     1       3.578   2.518  19.402  0.00  0.00    +0.000 A 
ATOM     21  N   UNL     1       4.648   3.292  19.711  0.00  0.00    +0.000 NA
ATOM     22  C   UNL     1       5.069   4.072  18.697  0.00  0.00    +0.000 A 
ATOM     23  C   UNL     1       6.225   4.981  18.720  0.00  0.00    +0.000 C 
ATOM     24  O   UNL     1       6.953   5.196  19.667  0.00  0.00    +0.000 OA
ENDBRANCH  13  14
ENDBRANCH   1  13
TORSDOF 4
ENDMDL
MODEL 9
REMARK VINA RESULT:      -7.2      3.024      4.904
REMARK  Name = 
REMARK  4 active torsions:
REMARK  status: ('A' for Active; 'I' for Inactive)
REMARK    1  A    between atoms: C_2  and  C_3
REMARK    2  A    between atoms: C_3  and  C_4
REMARK    3  A    between atoms: C_4  and  N_5
REMARK    4  A    between atoms: N_16  and  C_17
REMARK                            x       y       z     vdW  Elec       q    Type
REMARK                         _______ _______ _______ _____ _____    ______ ____
ROOT
ATOM      1  C   UNL     1       5.144   7.181  17.590  0.00  0.00    +0.000 C 
ENDROOT
BRANCH   1   3
ATOM      2  O   UNL     1       2.848   7.902  17.757  0.00  0.00    +0.000 OA
ATOM      3  C   UNL     1       3.667   7.012  17.941  0.00  0.00    +0.000 C 
ATOM      4  N   UNL     1       3.349   5.767  18.426  0.00  0.00    +0.000 N 
ATOM      5  H   UNL     1       4.108   5.118  18.608  0.00  0.00    +0.000 HD
BRANCH   4   6
ATOM      6  C   UNL     1       1.998   5.352  18.856  0.00  0.00    +0.000 C 
ATOM      7  C   UNL     1       1.458   4.304  17.875  0.00  0.00    +0.000 C 
ATOM      8  C   UNL     1       2.065   2.911  18.055  0.00  0.00    +0.000 C 
ATOM      9  C   UNL     1       1.243   2.035  18.997  0.00  0.00    +0.000 C 
ATOM     10  C   UNL     1       1.237   2.466  20.462  0.00  0.00    +0.000 C 
ATOM     11  C   UNL     1       0.880   3.931  20.723  0.00  0.00    +0.000 C 
ATOM     12  C   UNL     1       2.004   4.900  20.333  0.00  0.00    +0.000 C 
ENDBRANCH   4   6
ENDBRANCH   1   3
BRANCH   1  13
ATOM     13  C   UNL     1       5.868   5.838  17.613  0.00  0.00    +0.000 C 
BRANCH  13  14
ATOM     14  N   UNL     1       6.123   5.324  16.273  0.00  0.00    +0.000 N 
ATOM     15  C   UNL     1       5.386   4.342  15.666  0.00  0.00    +0.000 C 
ATOM     16  O   UNL     1       4.459   3.694  16.101  0.00  0.00    +0.000 OA
ATOM     17  C   UNL     1       5.935   4.173  14.324  0.00  0.00    +0.000 A 
ATOM     18  C   UNL     1       5.560   3.377  13.264  0.00  0.00    +0.000 A 
ATOM     19  C   UNL     1       6.312   3.499  12.092  0.00  0.00    +0.000 A 
ATOM     20  C   UNL     1       7.390   4.394  12.058  0.00  0.00    +0.000 A 
ATOM     21  N   UNL     1       7.765   5.178  13.099  0.00  0.00    +0.000 NA
ATOM     22  C   UNL     1       7.001   5.029  14.198  0.00  0.00    +0.000 A 
ATOM     23  C   UNL     1       7.139   5.770  15.461  0.00  0.00    +0.000 C 
ATOM     24  O   UNL     1       7.984   6.602  15.719  0.00  0.00    +0.000 OA
ENDBRANCH  13  14
ENDBRANCH   1  13
TORSDOF 4
ENDMDL
