MODEL 1
REMARK VINA RESULT:      -8.6      0.000      0.000
REMARK  Name = 
REMARK  9 active torsions:
REMARK  status: ('A' for Active; 'I' for Inactive)
REMARK    1  A    between atoms: C_1  and  N_2
REMARK    2  A    between atoms: C_11  and  O_12
REMARK    3  A    between atoms: O_12  and  C_13
REMARK    4  A    between atoms: C_13  and  C_14
REMARK    5  A    between atoms: N_16  and  C_17
REMARK    6  A    between atoms: C_17  and  C_18
REMARK    7  A    between atoms: C_18  and  O_19
REMARK    8  A    between atoms: C_18  and  C_20
REMARK    9  A    between atoms: C_20  and  N_21
REMARK                            x       y       z     vdW  Elec       q    Type
REMARK                         _______ _______ _______ _____ _____    ______ ____
ROOT
ATOM      1  C   UNL     1       1.889   3.169  17.783  0.00  0.00    +0.000 C 
ATOM      2  O   UNL     1       1.204   4.073  17.310  0.00  0.00    +0.000 OA
ATOM      3  N   UNL     1       1.728   2.701  19.069  0.00  0.00    +0.000 N 
ATOM      4  H   UNL     1       2.522   2.239  19.504  0.00  0.00    +0.000 HD
ENDROOT
BRANCH   1   5
ATOM      5  C   UNL     1       2.979   2.456  16.987  0.00  0.00    +0.000 C 
BRANCH   5   6
ATOM      6  O   UNL     1       4.228   2.980  17.409  0.00  0.00    +0.000 OA
BRANCH   6  17
ATOM      7  C   UNL     1       5.385   4.011  19.540  0.00  0.00    +0.000 C 
ATOM      8  N   UNL     1       6.160   4.747  18.558  0.00  0.00    +0.000 N 
ATOM      9  C   UNL     1       7.180   5.565  19.030  0.00  0.00    +0.000 C 
ATOM     10  O   UNL     1       7.639   5.522  20.170  0.00  0.00    +0.000 OA
ATOM     11  C   UNL     1       7.593   6.650  18.052  0.00  0.00    +0.000 C 
ATOM     12  O   UNL     1       7.685   6.294  16.689  0.00  0.00    +0.000 OA
ATOM     13  C   UNL     1       6.686   5.449  16.279  0.00  0.00    +0.000 A 
ATOM     14  C   UNL     1       6.531   5.383  14.892  0.00  0.00    +0.000 A 
ATOM     15  C   UNL     1       5.585   4.538  14.338  0.00  0.00    +0.000 A 
ATOM     16  C   UNL     1       4.799   3.740  15.170  0.00  0.00    +0.000 A 
ATOM     17  C   UNL     1       4.948   3.784  16.565  0.00  0.00    +0.000 A 
ATOM     18  C   UNL     1       5.899   4.661  17.151  0.00  0.00    +0.000 A 
ENDBRANCH   6  17
ENDBRANCH   5   6
ENDBRANCH   1   5
BRANCH   3  19
ATOM     19  C   UNL     1       0.770   3.305  19.984  0.00  0.00    +0.000 C 
BRANCH  19  20
ATOM     20  C   UNL     1       1.493   3.821  21.235  0.00  0.00    +0.000 C 
BRANCH  20  21
ATOM     21  O   UNL     1       2.073   2.686  21.900  0.00  0.00    +0.000 OA
ATOM     22  H   UNL     1       2.929   2.971  22.269  0.00  0.00    +0.000 HD
ENDBRANCH  20  21
BRANCH  20  23
ATOM     23  C   UNL     1       2.554   4.900  20.899  0.00  0.00    +0.000 C 
BRANCH  23  24
ATOM     24  N   UNL     1       2.061   5.997  20.036  0.00  0.00    +0.000 NA
ATOM     25  C   UNL     1       3.067   6.441  19.051  0.00  0.00    +0.000 C 
ATOM     26  C   UNL     1       2.448   7.430  18.055  0.00  0.00    +0.000 C 
ATOM     27  C   UNL     1       1.740   8.566  18.748  0.00  0.00    +0.000 A 
ATOM     28  C   UNL     1       1.466   9.747  18.044  0.00  0.00    +0.000 A 
ATOM     29  C   UNL     1       0.806  10.792  18.682  0.00  0.00    +0.000 A 
ATOM     30  C   UNL     1       0.417  10.672  20.011  0.00  0.00    +0.000 A 
ATOM     31  C   UNL     1       0.679   9.491  20.706  0.00  0.00    +0.000 A 
ATOM     32  C   UNL     1       1.337   8.416  20.079  0.00  0.00    +0.000 A 
ATOM     33  C   UNL     1       1.655   7.159  20.866  0.00  0.00    +0.000 C 
ENDBRANCH  23  24
ENDBRANCH  20  23
ENDBRANCH  19  20
ENDBRANCH   3  19
TORSDOF 8
ENDMDL
MODEL 2
REMARK VINA RESULT:      -7.9      2.573      6.153
REMARK  Name = 
REMARK  9 active torsions:
REMARK  status: ('A' for Active; 'I' for Inactive)
REMARK    1  A    between atoms: C_1  and  N_2
REMARK    2  A    between atoms: C_11  and  O_12
REMARK    3  A    between atoms: O_12  and  C_13
REMARK    4  A    between atoms: C_13  and  C_14
REMARK    5  A    between atoms: N_16  and  C_17
REMARK    6  A    between atoms: C_17  and  C_18
REMARK    7  A    between atoms: C_18  and  O_19
REMARK    8  A    between atoms: C_18  and  C_20
REMARK    9  A    between atoms: C_20  and  N_21
REMARK                            x       y       z     vdW  Elec       q    Type
REMARK                         _______ _______ _______ _____ _____    ______ ____
ROOT
ATOM      1  C   UNL     1       1.747   4.205  20.777  0.00  0.00    +0.000 C 
ATOM      2  O   UNL     1       2.225   3.961  21.883  0.00  0.00    +0.000 OA
ATOM      3  N   UNL     1       1.855   3.343  19.708  0.00  0.00    +0.000 N 
ATOM      4  H   UNL     1       1.771   3.738  18.775  0.00  0.00    +0.000 HD
ENDROOT
BRANCH   1   5
ATOM      5  C   UNL     1       0.966   5.482  20.478  0.00  0.00    +0.000 C 
BRANCH   5   6
ATOM      6  O   UNL     1       1.858   6.574  20.631  0.00  0.00    +0.000 OA
BRANCH   6  17
ATOM      7  C   UNL     1       0.590   8.201  22.271  0.00  0.00    +0.000 C 
ATOM      8  N   UNL     1       0.806   9.169  21.212  0.00  0.00    +0.000 N 
ATOM      9  C   UNL     1       0.402  10.478  21.447  0.00  0.00    +0.000 C 
ATOM     10  O   UNL     1       0.116  10.932  22.554  0.00  0.00    +0.000 OA
ATOM     11  C   UNL     1       0.187  11.287  20.181  0.00  0.00    +0.000 C 
ATOM     12  O   UNL     1       1.125  11.123  19.139  0.00  0.00    +0.000 OA
ATOM     13  C   UNL     1       1.532   9.824  18.974  0.00  0.00    +0.000 A 
ATOM     14  C   UNL     1       2.148   9.574  17.744  0.00  0.00    +0.000 A 
ATOM     15  C   UNL     1       2.643   8.313  17.460  0.00  0.00    +0.000 A 
ATOM     16  C   UNL     1       2.540   7.298  18.411  0.00  0.00    +0.000 A 
ATOM     17  C   UNL     1       1.933   7.533  19.656  0.00  0.00    +0.000 A 
ATOM     18  C   UNL     1       1.402   8.815  19.957  0.00  0.00    +0.000 A 
ENDBRANCH   6  17
ENDBRANCH   5   6
ENDBRANCH   1   5
BRANCH   3  19
ATOM     19  C   UNL     1       2.613   2.104  19.803  0.00  0.00    +0.000 C 
BRANCH  19  20
ATOM     20  C   UNL     1       3.742   2.099  18.764  0.00  0.00    +0.000 C 
BRANCH  20  21
ATOM     21  O   UNL     1       3.980   0.731  18.388  0.00  0.00    +0.000 OA
ATOM     22  H   UNL     1       3.591   0.167  19.081  0.00  0.00    +0.000 HD
ENDBRANCH  20  21
BRANCH  20  23
ATOM     23  C   UNL     1       3.417   2.988  17.536  0.00  0.00    +0.000 C 
BRANCH  23  24
ATOM     24  N   UNL     1       4.139   4.279  17.505  0.00  0.00    +0.000 NA
ATOM     25  C   UNL     1       4.574   4.655  16.146  0.00  0.00    +0.000 C 
ATOM     26  C   UNL     1       5.133   6.083  16.132  0.00  0.00    +0.000 C 
ATOM     27  C   UNL     1       6.194   6.287  17.183  0.00  0.00    +0.000 A 
ATOM     28  C   UNL     1       7.083   7.366  17.073  0.00  0.00    +0.000 A 
ATOM     29  C   UNL     1       8.058   7.558  18.046  0.00  0.00    +0.000 A 
ATOM     30  C   UNL     1       8.154   6.689  19.127  0.00  0.00    +0.000 A 
ATOM     31  C   UNL     1       7.260   5.625  19.241  0.00  0.00    +0.000 A 
ATOM     32  C   UNL     1       6.259   5.415  18.274  0.00  0.00    +0.000 A 
ATOM     33  C   UNL     1       5.328   4.224  18.393  0.00  0.00    +0.000 C 
ENDBRANCH  23  24
ENDBRANCH  20  23
ENDBRANCH  19  20
ENDBRANCH   3  19
TORSDOF 8
ENDMDL
MODEL 3
REMARK VINA RESULT:      -7.8      3.696      5.936
REMARK  Name = 
REMARK  9 active torsions:
REMARK  status: ('A' for Active; 'I' for Inactive)
REMARK    1  A    between atoms: C_1  and  N_2
REMARK    2  A    between atoms: C_11  and  O_12
REMARK    3  A    between atoms: O_12  and  C_13
REMARK    4  A    between atoms: C_13  and  C_14
REMARK    5  A    between atoms: N_16  and  C_17
REMARK    6  A    between atoms: C_17  and  C_18
REMARK    7  A    between atoms: C_18  and  O_19
REMARK    8  A    between atoms: C_18  and  C_20
REMARK    9  A    between atoms: C_20  and  N_21
REMARK                            x       y       z     vdW  Elec       q    Type
REMARK                         _______ _______ _______ _____ _____    ______ ____
ROOT
ATOM      1  C   UNL     1       0.236   8.692  21.921  0.00  0.00    +0.000 C 
ATOM      2  O   UNL     1      -0.780   8.070  21.621  0.00  0.00    +0.000 OA
ATOM      3  N   UNL     1       0.210   9.868  22.638  0.00  0.00    +0.000 N 
ATOM      4  H   UNL     1       1.003  10.496  22.541  0.00  0.00    +0.000 HD
ENDROOT
BRANCH   1   5
ATOM      5  C   UNL     1       1.638   8.216  21.547  0.00  0.00    +0.000 C 
BRANCH   5   6
ATOM      6  O   UNL     1       1.494   7.129  20.648  0.00  0.00    +0.000 OA
BRANCH   6  17
ATOM      7  C   UNL     1       2.081   4.649  21.317  0.00  0.00    +0.000 C 
ATOM      8  N   UNL     1       2.806   4.657  20.061  0.00  0.00    +0.000 N 
ATOM      9  C   UNL     1       3.403   3.468  19.657  0.00  0.00    +0.000 C 
ATOM     10  O   UNL     1       3.156   2.364  20.140  0.00  0.00    +0.000 OA
ATOM     11  C   UNL     1       4.524   3.659  18.652  0.00  0.00    +0.000 C 
ATOM     12  O   UNL     1       4.324   4.611  17.630  0.00  0.00    +0.000 OA
ATOM     13  C   UNL     1       3.691   5.748  18.062  0.00  0.00    +0.000 A 
ATOM     14  C   UNL     1       3.815   6.834  17.192  0.00  0.00    +0.000 A 
ATOM     15  C   UNL     1       3.191   8.035  17.485  0.00  0.00    +0.000 A 
ATOM     16  C   UNL     1       2.423   8.150  18.645  0.00  0.00    +0.000 A 
ATOM     17  C   UNL     1       2.278   7.067  19.526  0.00  0.00    +0.000 A 
ATOM     18  C   UNL     1       2.928   5.834  19.251  0.00  0.00    +0.000 A 
ENDBRANCH   6  17
ENDBRANCH   5   6
ENDBRANCH   1   5
BRANCH   3  19
ATOM     19  C   UNL     1      -1.046  10.492  23.030  0.00  0.00    +0.000 C 
BRANCH  19  20
ATOM     20  C   UNL     1      -1.137  11.905  22.437  0.00  0.00    +0.000 C 
BRANCH  20  21
ATOM     21  O   UNL     1      -0.632  12.822  23.421  0.00  0.00    +0.000 OA
ATOM     22  H   UNL     1      -0.420  13.655  22.962  0.00  0.00    +0.000 HD
ENDBRANCH  20  21
BRANCH  20  23
ATOM     23  C   UNL     1      -0.380  12.027  21.089  0.00  0.00    +0.000 C 
BRANCH  23  24
ATOM     24  N   UNL     1      -0.972  11.246  19.980  0.00  0.00    +0.000 NA
ATOM     25  C   UNL     1      -0.015  11.005  18.881  0.00  0.00    +0.000 C 
ATOM     26  C   UNL     1      -0.605  10.028  17.857  0.00  0.00    +0.000 C 
ATOM     27  C   UNL     1      -1.971  10.456  17.384  0.00  0.00    +0.000 A 
ATOM     28  C   UNL     1      -2.489   9.935  16.190  0.00  0.00    +0.000 A 
ATOM     29  C   UNL     1      -3.753  10.324  15.758  0.00  0.00    +0.000 A 
ATOM     30  C   UNL     1      -4.503  11.227  16.503  0.00  0.00    +0.000 A 
ATOM     31  C   UNL     1      -3.991  11.734  17.697  0.00  0.00    +0.000 A 
ATOM     32  C   UNL     1      -2.719  11.347  18.160  0.00  0.00    +0.000 A 
ATOM     33  C   UNL     1      -2.162  11.948  19.436  0.00  0.00    +0.000 C 
ENDBRANCH  23  24
ENDBRANCH  20  23
ENDBRANCH  19  20
ENDBRANCH   3  19
TORSDOF 8
ENDMDL
MODEL 4
REMARK VINA RESULT:      -7.7      2.888      7.021
REMARK  Name = 
REMARK  9 active torsions:
REMARK  status: ('A' for Active; 'I' for Inactive)
REMARK    1  A    between atoms: C_1  and  N_2
REMARK    2  A    between atoms: C_11  and  O_12
REMARK    3  A    between atoms: O_12  and  C_13
REMARK    4  A    between atoms: C_13  and  C_14
REMARK    5  A    between atoms: N_16  and  C_17
REMARK    6  A    between atoms: C_17  and  C_18
REMARK    7  A    between atoms: C_18  and  O_19
REMARK    8  A    between atoms: C_18  and  C_20
REMARK    9  A    between atoms: C_20  and  N_21
REMARK                            x       y       z     vdW  Elec       q    Type
REMARK                         _______ _______ _______ _____ _____    ______ ____
ROOT
ATOM      1  C   UNL     1       2.006   6.131  19.128  0.00  0.00    +0.000 C 
ATOM      2  O   UNL     1       1.848   5.509  18.080  0.00  0.00    +0.000 OA
ATOM      3  N   UNL     1       1.800   5.571  20.370  0.00  0.00    +0.000 N 
ATOM      4  H   UNL     1       1.595   6.201  21.141  0.00  0.00    +0.000 HD
ENDROOT
BRANCH   1   5
ATOM      5  C   UNL     1       2.464   7.587  19.164  0.00  0.00    +0.000 C 
BRANCH   5   6
ATOM      6  O   UNL     1       1.313   8.392  19.358  0.00  0.00    +0.000 OA
BRANCH   6  17
ATOM      7  C   UNL     1      -0.140   8.618  21.545  0.00  0.00    +0.000 C 
ATOM      8  N   UNL     1       0.093  10.037  21.353  0.00  0.00    +0.000 N 
ATOM      9  C   UNL     1      -0.393  10.904  22.326  0.00  0.00    +0.000 C 
ATOM     10  O   UNL     1      -0.773  10.557  23.443  0.00  0.00    +0.000 OA
ATOM     11  C   UNL     1      -0.568  12.331  21.840  0.00  0.00    +0.000 C 
ATOM     12  O   UNL     1       0.443  12.861  21.009  0.00  0.00    +0.000 OA
ATOM     13  C   UNL     1       0.926  11.959  20.097  0.00  0.00    +0.000 A 
ATOM     14  C   UNL     1       1.633  12.541  19.041  0.00  0.00    +0.000 A 
ATOM     15  C   UNL     1       2.210  11.743  18.068  0.00  0.00    +0.000 A 
ATOM     16  C   UNL     1       2.098  10.355  18.155  0.00  0.00    +0.000 A 
ATOM     17  C   UNL     1       1.401   9.751  19.215  0.00  0.00    +0.000 A 
ATOM     18  C   UNL     1       0.786  10.556  20.210  0.00  0.00    +0.000 A 
ENDBRANCH   6  17
ENDBRANCH   5   6
ENDBRANCH   1   5
BRANCH   3  19
ATOM     19  C   UNL     1       1.310   4.209  20.518  0.00  0.00    +0.000 C 
BRANCH  19  20
ATOM     20  C   UNL     1       2.244   3.413  21.440  0.00  0.00    +0.000 C 
BRANCH  20  21
ATOM     21  O   UNL     1       1.433   2.487  22.184  0.00  0.00    +0.000 OA
ATOM     22  H   UNL     1       0.501   2.723  22.025  0.00  0.00    +0.000 HD
ENDBRANCH  20  21
BRANCH  20  23
ATOM     23  C   UNL     1       3.373   2.696  20.658  0.00  0.00    +0.000 C 
BRANCH  23  24
ATOM     24  N   UNL     1       3.648   3.263  19.319  0.00  0.00    +0.000 NA
ATOM     25  C   UNL     1       3.618   2.243  18.252  0.00  0.00    +0.000 C 
ATOM     26  C   UNL     1       3.705   2.903  16.870  0.00  0.00    +0.000 C 
ATOM     27  C   UNL     1       4.872   3.850  16.766  0.00  0.00    +0.000 A 
ATOM     28  C   UNL     1       5.346   4.234  15.503  0.00  0.00    +0.000 A 
ATOM     29  C   UNL     1       6.419   5.114  15.408  0.00  0.00    +0.000 A 
ATOM     30  C   UNL     1       7.022   5.615  16.555  0.00  0.00    +0.000 A 
ATOM     31  C   UNL     1       6.541   5.243  17.810  0.00  0.00    +0.000 A 
ATOM     32  C   UNL     1       5.450   4.362  17.932  0.00  0.00    +0.000 A 
ATOM     33  C   UNL     1       4.973   3.933  19.307  0.00  0.00    +0.000 C 
ENDBRANCH  23  24
ENDBRANCH  20  23
ENDBRANCH  19  20
ENDBRANCH   3  19
TORSDOF 8
ENDMDL
MODEL 5
REMARK VINA RESULT:      -7.7      4.932      7.748
REMARK  Name = 
REMARK  9 active torsions:
REMARK  status: ('A' for Active; 'I' for Inactive)
REMARK    1  A    between atoms: C_1  and  N_2
REMARK    2  A    between atoms: C_11  and  O_12
REMARK    3  A    between atoms: O_12  and  C_13
REMARK    4  A    between atoms: C_13  and  C_14
REMARK    5  A    between atoms: N_16  and  C_17
REMARK    6  A    between atoms: C_17  and  C_18
REMARK    7  A    between atoms: C_18  and  O_19
REMARK    8  A    between atoms: C_18  and  C_20
REMARK    9  A    between atoms: C_20  and  N_21
REMARK                            x       y       z     vdW  Elec       q    Type
REMARK                         _______ _______ _______ _____ _____    ______ ____
ROOT
ATOM      1  C   UNL     1       7.526   5.515  18.438  0.00  0.00    +0.000 C 
ATOM      2  O   UNL     1       7.863   5.143  19.560  0.00  0.00    +0.000 OA
ATOM      3  N   UNL     1       7.814   6.769  17.947  0.00  0.00    +0.000 N 
ATOM      4  H   UNL     1       7.222   7.131  17.203  0.00  0.00    +0.000 HD
ENDROOT
BRANCH   1   5
ATOM      5  C   UNL     1       6.767   4.618  17.464  0.00  0.00    +0.000 C 
BRANCH   5   6
ATOM      6  O   UNL     1       5.583   4.186  18.114  0.00  0.00    +0.000 OA
BRANCH   6  17
ATOM      7  C   UNL     1       4.590   2.507  19.885  0.00  0.00    +0.000 C 
ATOM      8  N   UNL     1       3.586   3.541  20.056  0.00  0.00    +0.000 N 
ATOM      9  C   UNL     1       2.626   3.345  21.043  0.00  0.00    +0.000 C 
ATOM     10  O   UNL     1       2.706   2.505  21.938  0.00  0.00    +0.000 OA
ATOM     11  C   UNL     1       1.365   4.165  20.838  0.00  0.00    +0.000 C 
ATOM     12  O   UNL     1       1.522   5.499  20.405  0.00  0.00    +0.000 OA
ATOM     13  C   UNL     1       2.511   5.653  19.467  0.00  0.00    +0.000 A 
ATOM     14  C   UNL     1       2.439   6.855  18.757  0.00  0.00    +0.000 A 
ATOM     15  C   UNL     1       3.399   7.159  17.807  0.00  0.00    +0.000 A 
ATOM     16  C   UNL     1       4.447   6.269  17.573  0.00  0.00    +0.000 A 
ATOM     17  C   UNL     1       4.542   5.061  18.283  0.00  0.00    +0.000 A 
ATOM     18  C   UNL     1       3.555   4.724  19.247  0.00  0.00    +0.000 A 
ENDBRANCH   6  17
ENDBRANCH   5   6
ENDBRANCH   1   5
BRANCH   3  19
ATOM     19  C   UNL     1       8.485   7.771  18.763  0.00  0.00    +0.000 C 
BRANCH  19  20
ATOM     20  C   UNL     1       8.567   9.100  18.000  0.00  0.00    +0.000 C 
BRANCH  20  21
ATOM     21  O   UNL     1       7.264   9.368  17.454  0.00  0.00    +0.000 OA
ATOM     22  H   UNL     1       6.818   8.510  17.331  0.00  0.00    +0.000 HD
ENDBRANCH  20  21
BRANCH  20  23
ATOM     23  C   UNL     1       9.070  10.262  18.894  0.00  0.00    +0.000 C 
BRANCH  23  24
ATOM     24  N   UNL     1       9.495  11.469  18.150  0.00  0.00    +0.000 NA
ATOM     25  C   UNL     1      10.964  11.592  18.057  0.00  0.00    +0.000 C 
ATOM     26  C   UNL     1      11.351  12.735  17.112  0.00  0.00    +0.000 C 
ATOM     27  C   UNL     1      10.660  14.026  17.469  0.00  0.00    +0.000 A 
ATOM     28  C   UNL     1      11.169  15.243  16.993  0.00  0.00    +0.000 A 
ATOM     29  C   UNL     1      10.526  16.434  17.317  0.00  0.00    +0.000 A 
ATOM     30  C   UNL     1       9.382  16.423  18.107  0.00  0.00    +0.000 A 
ATOM     31  C   UNL     1       8.869  15.210  18.567  0.00  0.00    +0.000 A 
ATOM     32  C   UNL     1       9.497  13.992  18.245  0.00  0.00    +0.000 A 
ATOM     33  C   UNL     1       8.950  12.689  18.796  0.00  0.00    +0.000 C 
ENDBRANCH  23  24
ENDBRANCH  20  23
ENDBRANCH  19  20
ENDBRANCH   3  19
TORSDOF 8
ENDMDL
MODEL 6
REMARK VINA RESULT:      -7.7      3.227      5.339
REMARK  Name = 
REMARK  9 active torsions:
REMARK  status: ('A' for Active; 'I' for Inactive)
REMARK    1  A    between atoms: C_1  and  N_2
REMARK    2  A    between atoms: C_11  and  O_12
REMARK    3  A    between atoms: O_12  and  C_13
REMARK    4  A    between atoms: C_13  and  C_14
REMARK    5  A    between atoms: N_16  and  C_17
REMARK    6  A    between atoms: C_17  and  C_18
REMARK    7  A    between atoms: C_18  and  O_19
REMARK    8  A    between atoms: C_18  and  C_20
REMARK    9  A    between atoms: C_20  and  N_21
REMARK                            x       y       z     vdW  Elec       q    Type
REMARK                         _______ _______ _______ _____ _____    ______ ____
ROOT
ATOM      1  C   UNL     1       1.666   7.822  20.496  0.00  0.00    +0.000 C 
ATOM      2  O   UNL     1       1.681   8.612  19.555  0.00  0.00    +0.000 OA
ATOM      3  N   UNL     1       1.435   8.210  21.797  0.00  0.00    +0.000 N 
ATOM      4  H   UNL     1       1.785   7.608  22.538  0.00  0.00    +0.000 HD
ENDROOT
BRANCH   1   5
ATOM      5  C   UNL     1       1.886   6.322  20.319  0.00  0.00    +0.000 C 
BRANCH   5   6
ATOM      6  O   UNL     1       2.121   6.084  18.940  0.00  0.00    +0.000 OA
BRANCH   6  17
ATOM      7  C   UNL     1       3.972   7.240  17.463  0.00  0.00    +0.000 C 
ATOM      8  N   UNL     1       4.344   5.872  17.154  0.00  0.00    +0.000 N 
ATOM      9  C   UNL     1       5.468   5.677  16.360  0.00  0.00    +0.000 C 
ATOM     10  O   UNL     1       6.308   6.543  16.114  0.00  0.00    +0.000 OA
ATOM     11  C   UNL     1       5.505   4.323  15.676  0.00  0.00    +0.000 C 
ATOM     12  O   UNL     1       5.099   3.203  16.433  0.00  0.00    +0.000 OA
ATOM     13  C   UNL     1       4.017   3.453  17.237  0.00  0.00    +0.000 A 
ATOM     14  C   UNL     1       3.372   2.302  17.697  0.00  0.00    +0.000 A 
ATOM     15  C   UNL     1       2.287   2.408  18.550  0.00  0.00    +0.000 A 
ATOM     16  C   UNL     1       1.850   3.667  18.962  0.00  0.00    +0.000 A 
ATOM     17  C   UNL     1       2.492   4.835  18.519  0.00  0.00    +0.000 A 
ATOM     18  C   UNL     1       3.593   4.746  17.627  0.00  0.00    +0.000 A 
ENDBRANCH   6  17
ENDBRANCH   5   6
ENDBRANCH   1   5
BRANCH   3  19
ATOM     19  C   UNL     1       1.259   9.611  22.153  0.00  0.00    +0.000 C 
BRANCH  19  20
ATOM     20  C   UNL     1      -0.221   9.999  22.038  0.00  0.00    +0.000 C 
BRANCH  20  21
ATOM     21  O   UNL     1      -0.868   9.611  23.263  0.00  0.00    +0.000 OA
ATOM     22  H   UNL     1      -1.757  10.012  23.262  0.00  0.00    +0.000 HD
ENDBRANCH  20  21
BRANCH  20  23
ATOM     23  C   UNL     1      -0.413  11.508  21.735  0.00  0.00    +0.000 C 
BRANCH  23  24
ATOM     24  N   UNL     1      -1.210  11.793  20.522  0.00  0.00    +0.000 NA
ATOM     25  C   UNL     1      -2.642  11.999  20.818  0.00  0.00    +0.000 C 
ATOM     26  C   UNL     1      -3.386  12.489  19.570  0.00  0.00    +0.000 C 
ATOM     27  C   UNL     1      -3.139  11.603  18.376  0.00  0.00    +0.000 A 
ATOM     28  C   UNL     1      -4.016  11.647  17.284  0.00  0.00    +0.000 A 
ATOM     29  C   UNL     1      -3.784  10.834  16.179  0.00  0.00    +0.000 A 
ATOM     30  C   UNL     1      -2.687   9.980  16.153  0.00  0.00    +0.000 A 
ATOM     31  C   UNL     1      -1.808   9.948  17.235  0.00  0.00    +0.000 A 
ATOM     32  C   UNL     1      -2.017  10.769  18.360  0.00  0.00    +0.000 A 
ATOM     33  C   UNL     1      -1.076  10.683  19.545  0.00  0.00    +0.000 C 
ENDBRANCH  23  24
ENDBRANCH  20  23
ENDBRANCH  19  20
ENDBRANCH   3  19
TORSDOF 8
ENDMDL
MODEL 7
REMARK VINA RESULT:      -7.6      2.870      6.822
REMARK  Name = 
REMARK  9 active torsions:
REMARK  status: ('A' for Active; 'I' for Inactive)
REMARK    1  A    between atoms: C_1  and  N_2
REMARK    2  A    between atoms: C_11  and  O_12
REMARK    3  A    between atoms: O_12  and  C_13
REMARK    4  A    between atoms: C_13  and  C_14
REMARK    5  A    between atoms: N_16  and  C_17
REMARK    6  A    between atoms: C_17  and  C_18
REMARK    7  A    between atoms: C_18  and  O_19
REMARK    8  A    between atoms: C_18  and  C_20
REMARK    9  A    between atoms: C_20  and  N_21
REMARK                            x       y       z     vdW  Elec       q    Type
REMARK                         _______ _______ _______ _____ _____    ______ ____
ROOT
ATOM      1  C   UNL     1       2.052   5.507  20.156  0.00  0.00    +0.000 C 
ATOM      2  O   UNL     1       2.123   4.953  21.250  0.00  0.00    +0.000 OA
ATOM      3  N   UNL     1       1.578   4.877  19.026  0.00  0.00    +0.000 N 
ATOM      4  H   UNL     1       1.875   5.240  18.124  0.00  0.00    +0.000 HD
ENDROOT
BRANCH   1   5
ATOM      5  C   UNL     1       2.467   6.960  19.936  0.00  0.00    +0.000 C 
BRANCH   5   6
ATOM      6  O   UNL     1       1.282   7.730  19.823  0.00  0.00    +0.000 OA
BRANCH   6  17
ATOM      7  C   UNL     1      -0.143   8.380  21.942  0.00  0.00    +0.000 C 
ATOM      8  N   UNL     1       0.072   9.734  21.466  0.00  0.00    +0.000 N 
ATOM      9  C   UNL     1      -0.409  10.775  22.252  0.00  0.00    +0.000 C 
ATOM     10  O   UNL     1      -0.771  10.656  23.422  0.00  0.00    +0.000 OA
ATOM     11  C   UNL     1      -0.605  12.074  21.491  0.00  0.00    +0.000 C 
ATOM     12  O   UNL     1       0.388  12.434  20.556  0.00  0.00    +0.000 OA
ATOM     13  C   UNL     1       0.869  11.370  19.836  0.00  0.00    +0.000 A 
ATOM     14  C   UNL     1       1.555  11.733  18.674  0.00  0.00    +0.000 A 
ATOM     15  C   UNL     1       2.127  10.760  17.872  0.00  0.00    +0.000 A 
ATOM     16  C   UNL     1       2.031   9.417  18.239  0.00  0.00    +0.000 A 
ATOM     17  C   UNL     1       1.355   9.033  19.408  0.00  0.00    +0.000 A 
ATOM     18  C   UNL     1       0.744  10.017  20.231  0.00  0.00    +0.000 A 
ENDBRANCH   6  17
ENDBRANCH   5   6
ENDBRANCH   1   5
BRANCH   3  19
ATOM     19  C   UNL     1       1.190   3.474  19.044  0.00  0.00    +0.000 C 
BRANCH  19  20
ATOM     20  C   UNL     1       2.417   2.587  18.797  0.00  0.00    +0.000 C 
BRANCH  20  21
ATOM     21  O   UNL     1       1.991   1.217  18.901  0.00  0.00    +0.000 OA
ATOM     22  H   UNL     1       1.763   1.054  19.834  0.00  0.00    +0.000 HD
ENDBRANCH  20  21
BRANCH  20  23
ATOM     23  C   UNL     1       3.092   2.881  17.433  0.00  0.00    +0.000 C 
BRANCH  23  24
ATOM     24  N   UNL     1       3.920   4.107  17.410  0.00  0.00    +0.000 NA
ATOM     25  C   UNL     1       4.530   4.356  16.089  0.00  0.00    +0.000 C 
ATOM     26  C   UNL     1       5.206   5.732  16.057  0.00  0.00    +0.000 C 
ATOM     27  C   UNL     1       6.161   5.922  17.207  0.00  0.00    +0.000 A 
ATOM     28  C   UNL     1       7.146   6.918  17.137  0.00  0.00    +0.000 A 
ATOM     29  C   UNL     1       8.023   7.099  18.202  0.00  0.00    +0.000 A 
ATOM     30  C   UNL     1       7.927   6.298  19.334  0.00  0.00    +0.000 A 
ATOM     31  C   UNL     1       6.939   5.317  19.408  0.00  0.00    +0.000 A 
ATOM     32  C   UNL     1       6.034   5.123  18.347  0.00  0.00    +0.000 A 
ATOM     33  C   UNL     1       4.998   4.018  18.428  0.00  0.00    +0.000 C 
ENDBRANCH  23  24
ENDBRANCH  20  23
ENDBRANCH  19  20
ENDBRANCH   3  19
TORSDOF 8
ENDMDL
MODEL 8
REMARK VINA RESULT:      -7.6      3.128      8.030
REMARK  Name = 
REMARK  9 active torsions:
REMARK  status: ('A' for Active; 'I' for Inactive)
REMARK    1  A    between atoms: C_1  and  N_2
REMARK    2  A    between atoms: C_11  and  O_12
REMARK    3  A    between atoms: O_12  and  C_13
REMARK    4  A    between atoms: C_13  and  C_14
REMARK    5  A    between atoms: N_16  and  C_17
REMARK    6  A    between atoms: C_17  and  C_18
REMARK    7  A    between atoms: C_18  and  O_19
REMARK    8  A    between atoms: C_18  and  C_20
REMARK    9  A    between atoms: C_20  and  N_21
REMARK                            x       y       z     vdW  Elec       q    Type
REMARK                         _______ _______ _______ _____ _____    ______ ____
ROOT
ATOM      1  C   UNL     1       2.002   6.534  19.897  0.00  0.00    +0.000 C 
ATOM      2  O   UNL     1       2.126   6.212  18.718  0.00  0.00    +0.000 OA
ATOM      3  N   UNL     1       1.742   5.625  20.898  0.00  0.00    +0.000 N 
ATOM      4  H   UNL     1       1.304   5.972  21.748  0.00  0.00    +0.000 HD
ENDROOT
BRANCH   1   5
ATOM      5  C   UNL     1       2.141   7.975  20.379  0.00  0.00    +0.000 C 
BRANCH   5   6
ATOM      6  O   UNL     1       0.934   8.650  20.064  0.00  0.00    +0.000 OA
BRANCH   6  17
ATOM      7  C   UNL     1      -0.012  10.132  18.102  0.00  0.00    +0.000 C 
ATOM      8  N   UNL     1      -0.695  10.826  19.178  0.00  0.00    +0.000 N 
ATOM      9  C   UNL     1      -1.575  11.844  18.828  0.00  0.00    +0.000 C 
ATOM     10  O   UNL     1      -2.010  12.031  17.692  0.00  0.00    +0.000 OA
ATOM     11  C   UNL     1      -1.849  12.827  19.951  0.00  0.00    +0.000 C 
ATOM     12  O   UNL     1      -2.023  12.298  21.248  0.00  0.00    +0.000 OA
ATOM     13  C   UNL     1      -1.167  11.266  21.533  0.00  0.00    +0.000 A 
ATOM     14  C   UNL     1      -1.055  10.981  22.897  0.00  0.00    +0.000 A 
ATOM     15  C   UNL     1      -0.254   9.936  23.325  0.00  0.00    +0.000 A 
ATOM     16  C   UNL     1       0.426   9.157  22.389  0.00  0.00    +0.000 A 
ATOM     17  C   UNL     1       0.318   9.422  21.013  0.00  0.00    +0.000 A 
ATOM     18  C   UNL     1      -0.482  10.503  20.558  0.00  0.00    +0.000 A 
ENDBRANCH   6  17
ENDBRANCH   5   6
ENDBRANCH   1   5
BRANCH   3  19
ATOM     19  C   UNL     1       1.527   4.214  20.609  0.00  0.00    +0.000 C 
BRANCH  19  20
ATOM     20  C   UNL     1       2.829   3.431  20.819  0.00  0.00    +0.000 C 
BRANCH  20  21
ATOM     21  O   UNL     1       2.662   2.618  21.994  0.00  0.00    +0.000 OA
ATOM     22  H   UNL     1       3.336   2.897  22.639  0.00  0.00    +0.000 HD
ENDBRANCH  20  21
BRANCH  20  23
ATOM     23  C   UNL     1       3.214   2.583  19.579  0.00  0.00    +0.000 C 
BRANCH  23  24
ATOM     24  N   UNL     1       4.409   3.067  18.853  0.00  0.00    +0.000 NA
ATOM     25  C   UNL     1       4.904   4.358  19.369  0.00  0.00    +0.000 C 
ATOM     26  C   UNL     1       6.250   4.716  18.727  0.00  0.00    +0.000 C 
ATOM     27  C   UNL     1       6.198   4.648  17.223  0.00  0.00    +0.000 A 
ATOM     28  C   UNL     1       7.175   5.307  16.462  0.00  0.00    +0.000 A 
ATOM     29  C   UNL     1       7.131   5.238  15.073  0.00  0.00    +0.000 A 
ATOM     30  C   UNL     1       6.125   4.519  14.437  0.00  0.00    +0.000 A 
ATOM     31  C   UNL     1       5.163   3.854  15.195  0.00  0.00    +0.000 A 
ATOM     32  C   UNL     1       5.192   3.901  16.602  0.00  0.00    +0.000 A 
ATOM     33  C   UNL     1       4.108   3.210  17.406  0.00  0.00    +0.000 C 
ENDBRANCH  23  24
ENDBRANCH  20  23
ENDBRANCH  19  20
ENDBRANCH   3  19
TORSDOF 8
ENDMDL
MODEL 9
REMARK VINA RESULT:      -7.5      1.025      1.809
REMARK  Name = 
REMARK  9 active torsions:
REMARK  status: ('A' for Active; 'I' for Inactive)
REMARK    1  A    between atoms: C_1  and  N_2
REMARK    2  A    between atoms: C_11  and  O_12
REMARK    3  A    between atoms: O_12  and  C_13
REMARK    4  A    between atoms: C_13  and  C_14
REMARK    5  A    between atoms: N_16  and  C_17
REMARK    6  A    between atoms: C_17  and  C_18
REMARK    7  A    between atoms: C_18  and  O_19
REMARK    8  A    between atoms: C_18  and  C_20
REMARK    9  A    between atoms: C_20  and  N_21
REMARK                            x       y       z     vdW  Elec       q    Type
REMARK                         _______ _______ _______ _____ _____    ______ ____
ROOT
ATOM      1  C   UNL     1       2.237   2.849  18.374  0.00  0.00    +0.000 C 
ATOM      2  O   UNL     1       2.299   1.951  19.210  0.00  0.00    +0.000 OA
ATOM      3  N   UNL     1       1.542   4.020  18.583  0.00  0.00    +0.000 N 
ATOM      4  H   UNL     1       1.231   4.536  17.763  0.00  0.00    +0.000 HD
ENDROOT
BRANCH   1   5
ATOM      5  C   UNL     1       2.937   2.767  17.020  0.00  0.00    +0.000 C 
BRANCH   5   6
ATOM      6  O   UNL     1       4.330   2.909  17.250  0.00  0.00    +0.000 OA
BRANCH   6  17
ATOM      7  C   UNL     1       5.325   4.026  19.420  0.00  0.00    +0.000 C 
ATOM      8  N   UNL     1       6.136   4.761  18.468  0.00  0.00    +0.000 N 
ATOM      9  C   UNL     1       7.102   5.621  18.978  0.00  0.00    +0.000 C 
ATOM     10  O   UNL     1       7.492   5.619  20.145  0.00  0.00    +0.000 OA
ATOM     11  C   UNL     1       7.542   6.695  18.000  0.00  0.00    +0.000 C 
ATOM     12  O   UNL     1       7.727   6.309  16.655  0.00  0.00    +0.000 OA
ATOM     13  C   UNL     1       6.780   5.424  16.207  0.00  0.00    +0.000 A 
ATOM     14  C   UNL     1       6.711   5.321  14.815  0.00  0.00    +0.000 A 
ATOM     15  C   UNL     1       5.825   4.434  14.227  0.00  0.00    +0.000 A 
ATOM     16  C   UNL     1       5.014   3.632  15.030  0.00  0.00    +0.000 A 
ATOM     17  C   UNL     1       5.076   3.714  16.431  0.00  0.00    +0.000 A 
ATOM     18  C   UNL     1       5.964   4.633  17.050  0.00  0.00    +0.000 A 
ENDBRANCH   6  17
ENDBRANCH   5   6
ENDBRANCH   1   5
BRANCH   3  19
ATOM     19  C   UNL     1       0.772   4.241  19.798  0.00  0.00    +0.000 C 
BRANCH  19  20
ATOM     20  C   UNL     1       1.542   5.171  20.745  0.00  0.00    +0.000 C 
BRANCH  20  21
ATOM     21  O   UNL     1       2.415   4.352  21.542  0.00  0.00    +0.000 OA
ATOM     22  H   UNL     1       3.036   4.948  21.999  0.00  0.00    +0.000 HD
ENDBRANCH  20  21
BRANCH  20  23
ATOM     23  C   UNL     1       2.320   6.275  19.983  0.00  0.00    +0.000 C 
BRANCH  23  24
ATOM     24  N   UNL     1       1.999   7.656  20.407  0.00  0.00    +0.000 NA
ATOM     25  C   UNL     1       0.932   7.704  21.426  0.00  0.00    +0.000 C 
ATOM     26  C   UNL     1       0.776   9.126  21.979  0.00  0.00    +0.000 C 
ATOM     27  C   UNL     1       0.609  10.146  20.882  0.00  0.00    +0.000 A 
ATOM     28  C   UNL     1       0.067  11.405  21.180  0.00  0.00    +0.000 A 
ATOM     29  C   UNL     1      -0.080  12.349  20.168  0.00  0.00    +0.000 A 
ATOM     30  C   UNL     1       0.308  12.052  18.867  0.00  0.00    +0.000 A 
ATOM     31  C   UNL     1       0.859  10.804  18.576  0.00  0.00    +0.000 A 
ATOM     32  C   UNL     1       1.027   9.836  19.584  0.00  0.00    +0.000 A 
ATOM     33  C   UNL     1       1.583   8.469  19.236  0.00  0.00    +0.000 C 
ENDBRANCH  23  24
ENDBRANCH  20  23
ENDBRANCH  19  20
ENDBRANCH   3  19
TORSDOF 8
ENDMDL
