MODEL 1
REMARK VINA RESULT:      -5.7      0.000      0.000
REMARK  Name = 
REMARK  5 active torsions:
REMARK  status: ('A' for Active; 'I' for Inactive)
REMARK    1  A    between atoms: C_2  and  C_3
REMARK    2  A    between atoms: C_3  and  O_4
REMARK    3  A    between atoms: O_4  and  C_5
REMARK    4  A    between atoms: C_5  and  N_6
REMARK    5  A    between atoms: C_10  and  S_11
REMARK                            x       y       z     vdW  Elec       q    Type
REMARK                         _______ _______ _______ _____ _____    ______ ____
ROOT
ATOM      1  N   UNL     1       4.304   3.292  18.054  0.00  0.00    +0.000 N 
ATOM      2  C   UNL     1       4.761   3.605  19.306  0.00  0.00    +0.000 A 
ATOM      3  N   UNL     1       5.669   4.559  19.272  0.00  0.00    +0.000 NA
ATOM      4  C   UNL     1       5.787   4.889  17.935  0.00  0.00    +0.000 A 
ATOM      5  C   UNL     1       6.569   5.809  17.235  0.00  0.00    +0.000 A 
ATOM      6  N   UNL     1       6.464   5.895  15.885  0.00  0.00    +0.000 NA
ATOM      7  C   UNL     1       5.595   5.070  15.271  0.00  0.00    +0.000 A 
ATOM      8  N   UNL     1       4.797   4.136  15.827  0.00  0.00    +0.000 NA
ATOM      9  C   UNL     1       4.941   4.106  17.162  0.00  0.00    +0.000 A 
ENDROOT
BRANCH   5  10
ATOM     10  S   UNL     1       7.705   6.848  18.092  0.00  0.00    +0.000 S 
ATOM     11  H   UNL     1       7.049   7.993  17.844  0.00  0.00    +0.000 HD
ENDBRANCH   5  10
BRANCH   1  12
ATOM     12  C   UNL     1       3.363   2.244  17.729  0.00  0.00    +0.000 C 
BRANCH  12  13
ATOM     13  O   UNL     1       2.084   2.836  17.540  0.00  0.00    +0.000 OA
BRANCH  13  14
ATOM     14  C   UNL     1       1.180   2.412  18.551  0.00  0.00    +0.000 C 
BRANCH  14  16
ATOM     15  C   UNL     1       1.098   4.369  20.585  0.00  0.00    +0.000 C 
ATOM     16  C   UNL     1       1.135   3.465  19.646  0.00  0.00    +0.000 C 
ENDBRANCH  14  16
ENDBRANCH  13  14
ENDBRANCH  12  13
ENDBRANCH   1  12
TORSDOF 5
ENDMDL
MODEL 2
REMARK VINA RESULT:      -5.7      1.300      1.300
REMARK  Name = 
REMARK  5 active torsions:
REMARK  status: ('A' for Active; 'I' for Inactive)
REMARK    1  A    between atoms: C_2  and  C_3
REMARK    2  A    between atoms: C_3  and  O_4
REMARK    3  A    between atoms: O_4  and  C_5
REMARK    4  A    between atoms: C_5  and  N_6
REMARK    5  A    between atoms: C_10  and  S_11
REMARK                            x       y       z     vdW  Elec       q    Type
REMARK                         _______ _______ _______ _____ _____    ______ ____
ROOT
ATOM      1  N   UNL     1       3.591   4.351  17.393  0.00  0.00    +0.000 N 
ATOM      2  C   UNL     1       3.408   5.420  18.231  0.00  0.00    +0.000 A 
ATOM      3  N   UNL     1       4.454   6.219  18.241  0.00  0.00    +0.000 NA
ATOM      4  C   UNL     1       5.347   5.647  17.353  0.00  0.00    +0.000 A 
ATOM      5  C   UNL     1       6.627   5.993  16.917  0.00  0.00    +0.000 A 
ATOM      6  N   UNL     1       7.270   5.205  16.019  0.00  0.00    +0.000 NA
ATOM      7  C   UNL     1       6.630   4.103  15.583  0.00  0.00    +0.000 A 
ATOM      8  N   UNL     1       5.407   3.655  15.933  0.00  0.00    +0.000 NA
ATOM      9  C   UNL     1       4.821   4.481  16.815  0.00  0.00    +0.000 A 
ENDROOT
BRANCH   5  10
ATOM     10  S   UNL     1       7.422   7.437  17.539  0.00  0.00    +0.000 S 
ATOM     11  H   UNL     1       8.672   6.968  17.403  0.00  0.00    +0.000 HD
ENDBRANCH   5  10
BRANCH   1  12
ATOM     12  C   UNL     1       2.673   3.251  17.204  0.00  0.00    +0.000 C 
BRANCH  12  13
ATOM     13  O   UNL     1       1.425   3.608  17.785  0.00  0.00    +0.000 OA
BRANCH  13  14
ATOM     14  C   UNL     1       0.944   2.566  18.623  0.00  0.00    +0.000 C 
BRANCH  14  16
ATOM     15  C   UNL     1       1.566   3.189  21.306  0.00  0.00    +0.000 C 
ATOM     16  C   UNL     1       1.279   2.901  20.068  0.00  0.00    +0.000 C 
ENDBRANCH  14  16
ENDBRANCH  13  14
ENDBRANCH  12  13
ENDBRANCH   1  12
TORSDOF 5
ENDMDL
MODEL 3
REMARK VINA RESULT:      -5.6      1.950      2.726
REMARK  Name = 
REMARK  5 active torsions:
REMARK  status: ('A' for Active; 'I' for Inactive)
REMARK    1  A    between atoms: C_2  and  C_3
REMARK    2  A    between atoms: C_3  and  O_4
REMARK    3  A    between atoms: O_4  and  C_5
REMARK    4  A    between atoms: C_5  and  N_6
REMARK    5  A    between atoms: C_10  and  S_11
REMARK                            x       y       z     vdW  Elec       q    Type
REMARK                         _______ _______ _______ _____ _____    ______ ____
ROOT
ATOM      1  N   UNL     1       4.268   4.262  18.431  0.00  0.00    +0.000 N 
ATOM      2  C   UNL     1       3.461   4.115  17.334  0.00  0.00    +0.000 A 
ATOM      3  N   UNL     1       4.147   4.157  16.212  0.00  0.00    +0.000 NA
ATOM      4  C   UNL     1       5.463   4.320  16.606  0.00  0.00    +0.000 A 
ATOM      5  C   UNL     1       6.669   4.439  15.912  0.00  0.00    +0.000 A 
ATOM      6  N   UNL     1       7.828   4.602  16.598  0.00  0.00    +0.000 NA
ATOM      7  C   UNL     1       7.759   4.646  17.942  0.00  0.00    +0.000 A 
ATOM      8  N   UNL     1       6.664   4.556  18.725  0.00  0.00    +0.000 NA
ATOM      9  C   UNL     1       5.553   4.387  17.989  0.00  0.00    +0.000 A 
ENDROOT
BRANCH   5  10
ATOM     10  S   UNL     1       6.694   4.395  14.152  0.00  0.00    +0.000 S 
ATOM     11  H   UNL     1       5.591   5.143  13.986  0.00  0.00    +0.000 HD
ENDBRANCH   5  10
BRANCH   1  12
ATOM     12  C   UNL     1       3.829   4.337  19.806  0.00  0.00    +0.000 C 
BRANCH  12  13
ATOM     13  O   UNL     1       3.760   3.014  20.323  0.00  0.00    +0.000 OA
BRANCH  13  14
ATOM     14  C   UNL     1       2.502   2.782  20.943  0.00  0.00    +0.000 C 
BRANCH  14  16
ATOM     15  C   UNL     1       0.556   2.369  18.937  0.00  0.00    +0.000 C 
ATOM     16  C   UNL     1       1.455   2.560  19.863  0.00  0.00    +0.000 C 
ENDBRANCH  14  16
ENDBRANCH  13  14
ENDBRANCH  12  13
ENDBRANCH   1  12
TORSDOF 5
ENDMDL
MODEL 4
REMARK VINA RESULT:      -5.6      2.034      2.838
REMARK  Name = 
REMARK  5 active torsions:
REMARK  status: ('A' for Active; 'I' for Inactive)
REMARK    1  A    between atoms: C_2  and  C_3
REMARK    2  A    between atoms: C_3  and  O_4
REMARK    3  A    between atoms: O_4  and  C_5
REMARK    4  A    between atoms: C_5  and  N_6
REMARK    5  A    between atoms: C_10  and  S_11
REMARK                            x       y       z     vdW  Elec       q    Type
REMARK                         _______ _______ _______ _____ _____    ______ ____
ROOT
ATOM      1  N   UNL     1       4.205   4.395  18.476  0.00  0.00    +0.000 N 
ATOM      2  C   UNL     1       3.384   4.192  17.398  0.00  0.00    +0.000 A 
ATOM      3  N   UNL     1       4.059   4.143  16.270  0.00  0.00    +0.000 NA
ATOM      4  C   UNL     1       5.382   4.304  16.640  0.00  0.00    +0.000 A 
ATOM      5  C   UNL     1       6.583   4.349  15.930  0.00  0.00    +0.000 A 
ATOM      6  N   UNL     1       7.752   4.533  16.593  0.00  0.00    +0.000 NA
ATOM      7  C   UNL     1       7.698   4.669  17.931  0.00  0.00    +0.000 A 
ATOM      8  N   UNL     1       6.610   4.656  18.728  0.00  0.00    +0.000 NA
ATOM      9  C   UNL     1       5.488   4.462  18.014  0.00  0.00    +0.000 A 
ENDROOT
BRANCH   5  10
ATOM     10  S   UNL     1       6.589   4.186  14.176  0.00  0.00    +0.000 S 
ATOM     11  H   UNL     1       6.739   5.495  13.922  0.00  0.00    +0.000 HD
ENDBRANCH   5  10
BRANCH   1  12
ATOM     12  C   UNL     1       3.782   4.572  19.846  0.00  0.00    +0.000 C 
BRANCH  12  13
ATOM     13  O   UNL     1       2.976   5.742  19.916  0.00  0.00    +0.000 OA
BRANCH  13  14
ATOM     14  C   UNL     1       1.836   5.519  20.735  0.00  0.00    +0.000 C 
BRANCH  14  16
ATOM     15  C   UNL     1       0.891   2.895  20.294  0.00  0.00    +0.000 C 
ATOM     16  C   UNL     1       1.328   4.107  20.497  0.00  0.00    +0.000 C 
ENDBRANCH  14  16
ENDBRANCH  13  14
ENDBRANCH  12  13
ENDBRANCH   1  12
TORSDOF 5
ENDMDL
MODEL 5
REMARK VINA RESULT:      -5.6      1.401      1.451
REMARK  Name = 
REMARK  5 active torsions:
REMARK  status: ('A' for Active; 'I' for Inactive)
REMARK    1  A    between atoms: C_2  and  C_3
REMARK    2  A    between atoms: C_3  and  O_4
REMARK    3  A    between atoms: O_4  and  C_5
REMARK    4  A    between atoms: C_5  and  N_6
REMARK    5  A    between atoms: C_10  and  S_11
REMARK                            x       y       z     vdW  Elec       q    Type
REMARK                         _______ _______ _______ _____ _____    ______ ____
ROOT
ATOM      1  N   UNL     1       3.078   4.683  18.113  0.00  0.00    +0.000 N 
ATOM      2  C   UNL     1       3.274   5.333  19.304  0.00  0.00    +0.000 A 
ATOM      3  N   UNL     1       4.546   5.608  19.508  0.00  0.00    +0.000 NA
ATOM      4  C   UNL     1       5.197   5.129  18.387  0.00  0.00    +0.000 A 
ATOM      5  C   UNL     1       6.535   5.104  17.987  0.00  0.00    +0.000 A 
ATOM      6  N   UNL     1       6.873   4.540  16.800  0.00  0.00    +0.000 NA
ATOM      7  C   UNL     1       5.884   4.019  16.050  0.00  0.00    +0.000 A 
ATOM      8  N   UNL     1       4.565   3.969  16.326  0.00  0.00    +0.000 NA
ATOM      9  C   UNL     1       4.294   4.549  17.507  0.00  0.00    +0.000 A 
ENDROOT
BRANCH   5  10
ATOM     10  S   UNL     1       7.788   5.783  19.021  0.00  0.00    +0.000 S 
ATOM     11  H   UNL     1       7.006   5.920  20.103  0.00  0.00    +0.000 HD
ENDBRANCH   5  10
BRANCH   1  12
ATOM     12  C   UNL     1       1.819   4.175  17.619  0.00  0.00    +0.000 C 
BRANCH  12  13
ATOM     13  O   UNL     1       1.759   2.783  17.906  0.00  0.00    +0.000 OA
BRANCH  13  14
ATOM     14  C   UNL     1       0.656   2.492  18.754  0.00  0.00    +0.000 C 
BRANCH  14  16
ATOM     15  C   UNL     1       1.474   2.761  21.443  0.00  0.00    +0.000 C 
ATOM     16  C   UNL     1       1.096   2.636  20.202  0.00  0.00    +0.000 C 
ENDBRANCH  14  16
ENDBRANCH  13  14
ENDBRANCH  12  13
ENDBRANCH   1  12
TORSDOF 5
ENDMDL
MODEL 6
REMARK VINA RESULT:      -5.5      3.399      5.634
REMARK  Name = 
REMARK  5 active torsions:
REMARK  status: ('A' for Active; 'I' for Inactive)
REMARK    1  A    between atoms: C_2  and  C_3
REMARK    2  A    between atoms: C_3  and  O_4
REMARK    3  A    between atoms: O_4  and  C_5
REMARK    4  A    between atoms: C_5  and  N_6
REMARK    5  A    between atoms: C_10  and  S_11
REMARK                            x       y       z     vdW  Elec       q    Type
REMARK                         _______ _______ _______ _____ _____    ______ ____
ROOT
ATOM      1  N   UNL     1       6.475   4.071  13.596  0.00  0.00    +0.000 N 
ATOM      2  C   UNL     1       7.548   4.913  13.461  0.00  0.00    +0.000 A 
ATOM      3  N   UNL     1       7.762   5.613  14.555  0.00  0.00    +0.000 NA
ATOM      4  C   UNL     1       6.793   5.187  15.444  0.00  0.00    +0.000 A 
ATOM      5  C   UNL     1       6.475   5.531  16.760  0.00  0.00    +0.000 A 
ATOM      6  N   UNL     1       5.431   4.927  17.381  0.00  0.00    +0.000 NA
ATOM      7  C   UNL     1       4.736   4.007  16.685  0.00  0.00    +0.000 A 
ATOM      8  N   UNL     1       4.933   3.597  15.416  0.00  0.00    +0.000 NA
ATOM      9  C   UNL     1       5.983   4.224  14.860  0.00  0.00    +0.000 A 
ENDROOT
BRANCH   5  10
ATOM     10  S   UNL     1       7.408   6.758  17.612  0.00  0.00    +0.000 S 
ATOM     11  H   UNL     1       7.755   7.446  16.513  0.00  0.00    +0.000 HD
ENDBRANCH   5  10
BRANCH   1  12
ATOM     12  C   UNL     1       5.926   3.221  12.565  0.00  0.00    +0.000 C 
BRANCH  12  13
ATOM     13  O   UNL     1       4.672   3.760  12.165  0.00  0.00    +0.000 OA
BRANCH  13  14
ATOM     14  C   UNL     1       4.055   2.928  11.192  0.00  0.00    +0.000 C 
BRANCH  14  16
ATOM     15  C   UNL     1       2.683   4.555   9.336  0.00  0.00    +0.000 C 
ATOM     16  C   UNL     1       3.315   3.804  10.193  0.00  0.00    +0.000 C 
ENDBRANCH  14  16
ENDBRANCH  13  14
ENDBRANCH  12  13
ENDBRANCH   1  12
TORSDOF 5
ENDMDL
MODEL 7
REMARK VINA RESULT:      -5.4      3.134      5.425
REMARK  Name = 
REMARK  5 active torsions:
REMARK  status: ('A' for Active; 'I' for Inactive)
REMARK    1  A    between atoms: C_2  and  C_3
REMARK    2  A    between atoms: C_3  and  O_4
REMARK    3  A    between atoms: O_4  and  C_5
REMARK    4  A    between atoms: C_5  and  N_6
REMARK    5  A    between atoms: C_10  and  S_11
REMARK                            x       y       z     vdW  Elec       q    Type
REMARK                         _______ _______ _______ _____ _____    ______ ____
ROOT
ATOM      1  N   UNL     1       4.341   5.234  17.940  0.00  0.00    +0.000 N 
ATOM      2  C   UNL     1       3.959   6.040  18.980  0.00  0.00    +0.000 A 
ATOM      3  N   UNL     1       3.252   5.383  19.875  0.00  0.00    +0.000 NA
ATOM      4  C   UNL     1       3.192   4.086  19.398  0.00  0.00    +0.000 A 
ATOM      5  C   UNL     1       2.597   2.913  19.868  0.00  0.00    +0.000 A 
ATOM      6  N   UNL     1       2.709   1.767  19.151  0.00  0.00    +0.000 NA
ATOM      7  C   UNL     1       3.400   1.815  17.997  0.00  0.00    +0.000 A 
ATOM      8  N   UNL     1       4.007   2.879  17.431  0.00  0.00    +0.000 NA
ATOM      9  C   UNL     1       3.867   3.978  18.191  0.00  0.00    +0.000 A 
ENDROOT
BRANCH   5  10
ATOM     10  S   UNL     1       1.688   2.916  21.376  0.00  0.00    +0.000 S 
ATOM     11  H   UNL     1       0.890   1.887  21.051  0.00  0.00    +0.000 HD
ENDBRANCH   5  10
BRANCH   1  12
ATOM     12  C   UNL     1       5.060   5.652  16.759  0.00  0.00    +0.000 C 
BRANCH  12  13
ATOM     13  O   UNL     1       5.718   6.879  17.050  0.00  0.00    +0.000 OA
BRANCH  13  14
ATOM     14  C   UNL     1       7.115   6.674  17.213  0.00  0.00    +0.000 C 
BRANCH  14  16
ATOM     15  C   UNL     1       8.304   9.097  18.044  0.00  0.00    +0.000 C 
ATOM     16  C   UNL     1       7.756   7.978  17.660  0.00  0.00    +0.000 C 
ENDBRANCH  14  16
ENDBRANCH  13  14
ENDBRANCH  12  13
ENDBRANCH   1  12
TORSDOF 5
ENDMDL
MODEL 8
REMARK VINA RESULT:      -5.4      2.539      3.258
REMARK  Name = 
REMARK  5 active torsions:
REMARK  status: ('A' for Active; 'I' for Inactive)
REMARK    1  A    between atoms: C_2  and  C_3
REMARK    2  A    between atoms: C_3  and  O_4
REMARK    3  A    between atoms: O_4  and  C_5
REMARK    4  A    between atoms: C_5  and  N_6
REMARK    5  A    between atoms: C_10  and  S_11
REMARK                            x       y       z     vdW  Elec       q    Type
REMARK                         _______ _______ _______ _____ _____    ______ ____
ROOT
ATOM      1  N   UNL     1       4.183   4.102  18.320  0.00  0.00    +0.000 N 
ATOM      2  C   UNL     1       3.395   3.861  17.225  0.00  0.00    +0.000 A 
ATOM      3  N   UNL     1       4.086   3.899  16.106  0.00  0.00    +0.000 NA
ATOM      4  C   UNL     1       5.386   4.157  16.499  0.00  0.00    +0.000 A 
ATOM      5  C   UNL     1       6.588   4.320  15.807  0.00  0.00    +0.000 A 
ATOM      6  N   UNL     1       7.729   4.582  16.492  0.00  0.00    +0.000 NA
ATOM      7  C   UNL     1       7.648   4.677  17.832  0.00  0.00    +0.000 A 
ATOM      8  N   UNL     1       6.555   4.553  18.613  0.00  0.00    +0.000 NA
ATOM      9  C   UNL     1       5.462   4.287  17.878  0.00  0.00    +0.000 A 
ENDROOT
BRANCH   5  10
ATOM     10  S   UNL     1       6.628   4.206  14.050  0.00  0.00    +0.000 S 
ATOM     11  H   UNL     1       5.903   3.079  13.975  0.00  0.00    +0.000 HD
ENDBRANCH   5  10
BRANCH   1  12
ATOM     12  C   UNL     1       3.730   4.206  19.688  0.00  0.00    +0.000 C 
BRANCH  12  13
ATOM     13  O   UNL     1       3.674   5.585  20.034  0.00  0.00    +0.000 OA
BRANCH  13  14
ATOM     14  C   UNL     1       2.374   6.109  19.803  0.00  0.00    +0.000 C 
BRANCH  14  16
ATOM     15  C   UNL     1       2.547   8.171  17.881  0.00  0.00    +0.000 C 
ATOM     16  C   UNL     1       2.467   7.218  18.768  0.00  0.00    +0.000 C 
ENDBRANCH  14  16
ENDBRANCH  13  14
ENDBRANCH  12  13
ENDBRANCH   1  12
TORSDOF 5
ENDMDL
MODEL 9
REMARK VINA RESULT:      -5.4      2.907      5.351
REMARK  Name = 
REMARK  5 active torsions:
REMARK  status: ('A' for Active; 'I' for Inactive)
REMARK    1  A    between atoms: C_2  and  C_3
REMARK    2  A    between atoms: C_3  and  O_4
REMARK    3  A    between atoms: O_4  and  C_5
REMARK    4  A    between atoms: C_5  and  N_6
REMARK    5  A    between atoms: C_10  and  S_11
REMARK                            x       y       z     vdW  Elec       q    Type
REMARK                         _______ _______ _______ _____ _____    ______ ____
ROOT
ATOM      1  N   UNL     1       4.670   4.230  17.447  0.00  0.00    +0.000 N 
ATOM      2  C   UNL     1       5.516   4.141  18.520  0.00  0.00    +0.000 A 
ATOM      3  N   UNL     1       4.886   3.755  19.610  0.00  0.00    +0.000 NA
ATOM      4  C   UNL     1       3.575   3.568  19.215  0.00  0.00    +0.000 A 
ATOM      5  C   UNL     1       2.414   3.171  19.882  0.00  0.00    +0.000 A 
ATOM      6  N   UNL     1       1.242   3.088  19.205  0.00  0.00    +0.000 NA
ATOM      7  C   UNL     1       1.252   3.402  17.895  0.00  0.00    +0.000 A 
ATOM      8  N   UNL     1       2.294   3.808  17.143  0.00  0.00    +0.000 NA
ATOM      9  C   UNL     1       3.424   3.861  17.867  0.00  0.00    +0.000 A 
ENDROOT
BRANCH   5  10
ATOM     10  S   UNL     1       2.459   2.793  21.602  0.00  0.00    +0.000 S 
ATOM     11  H   UNL     1       1.781   1.639  21.501  0.00  0.00    +0.000 HD
ENDBRANCH   5  10
BRANCH   1  12
ATOM     12  C   UNL     1       5.020   4.694  16.124  0.00  0.00    +0.000 C 
BRANCH  12  13
ATOM     13  O   UNL     1       5.940   3.770  15.557  0.00  0.00    +0.000 OA
BRANCH  13  14
ATOM     14  C   UNL     1       6.629   4.355  14.460  0.00  0.00    +0.000 C 
BRANCH  14  16
ATOM     15  C   UNL     1       5.731   3.153  12.068  0.00  0.00    +0.000 C 
ATOM     16  C   UNL     1       6.145   3.709  13.173  0.00  0.00    +0.000 C 
ENDBRANCH  14  16
ENDBRANCH  13  14
ENDBRANCH  12  13
ENDBRANCH   1  12
TORSDOF 5
ENDMDL
