MODEL 1
REMARK VINA RESULT:      -8.6      0.000      0.000
REMARK  Name = 
REMARK  8 active torsions:
REMARK  status: ('A' for Active; 'I' for Inactive)
REMARK    1  A    between atoms: C_1  and  N_2
REMARK    2  A    between atoms: N_6  and  C_7
REMARK    3  A    between atoms: C_10  and  C_11
REMARK    4  A    between atoms: N_13  and  C_14
REMARK    5  A    between atoms: C_15  and  O_16
REMARK    6  A    between atoms: C_20  and  N_21
REMARK    7  A    between atoms: C_22  and  C_24
REMARK    8  A    between atoms: C_27  and  O_28
REMARK                            x       y       z     vdW  Elec       q    Type
REMARK                         _______ _______ _______ _____ _____    ______ ____
ROOT
ATOM      1  C   UNL     1       5.116   5.864  16.817  0.00  0.00    +0.000 A 
ATOM      2  C   UNL     1       4.823   4.517  16.494  0.00  0.00    +0.000 A 
ATOM      3  C   UNL     1       5.792   3.676  15.954  0.00  0.00    +0.000 A 
ATOM      4  C   UNL     1       7.061   4.171  15.676  0.00  0.00    +0.000 A 
ATOM      5  C   UNL     1       7.374   5.490  16.000  0.00  0.00    +0.000 A 
ATOM      6  C   UNL     1       6.434   6.326  16.635  0.00  0.00    +0.000 A 
ENDROOT
BRANCH   1   9
ATOM      7  C   UNL     1       3.387   6.611  18.429  0.00  0.00    +0.000 C 
ATOM      8  O   UNL     1       3.543   5.664  19.195  0.00  0.00    +0.000 OA
ATOM      9  N   UNL     1       4.112   6.766  17.262  0.00  0.00    +0.000 N 
ATOM     10  H   UNL     1       3.761   7.395  16.547  0.00  0.00    +0.000 HD
BRANCH   7  14
ATOM     11  C   UNL     1       0.708   9.766  19.692  0.00  0.00    +0.000 A 
ATOM     12  C   UNL     1       1.125   8.747  20.554  0.00  0.00    +0.000 A 
ATOM     13  C   UNL     1       1.952   7.705  20.118  0.00  0.00    +0.000 A 
ATOM     14  C   UNL     1       2.392   7.650  18.787  0.00  0.00    +0.000 A 
ATOM     15  C   UNL     1       1.963   8.636  17.897  0.00  0.00    +0.000 A 
ATOM     16  C   UNL     1       1.127   9.666  18.352  0.00  0.00    +0.000 A 
BRANCH  11  22
ATOM     17  C   UNL     1      -0.521  14.646  22.266  0.00  0.00    +0.000 C 
ATOM     18  N   UNL     1      -0.220  14.029  20.973  0.00  0.00    +0.000 NA
ATOM     19  C   UNL     1      -1.461  13.634  20.296  0.00  0.00    +0.000 C 
ATOM     20  C   UNL     1      -1.304  12.713  19.085  0.00  0.00    +0.000 C 
ATOM     21  C   UNL     1      -1.286  11.229  19.459  0.00  0.00    +0.000 C 
ATOM     22  N   UNL     1      -0.054  10.834  20.144  0.00  0.00    +0.000 N 
ATOM     23  C   UNL     1       0.302  11.540  21.384  0.00  0.00    +0.000 C 
ATOM     24  C   UNL     1       0.801  12.971  21.095  0.00  0.00    +0.000 C 
ENDBRANCH  11  22
ENDBRANCH   7  14
ENDBRANCH   1   9
BRANCH   6  25
ATOM     25  N   UNL     1       6.893   7.626  16.958  0.00  0.00    +0.000 N 
ATOM     26  C   UNL     1       7.798   7.873  17.971  0.00  0.00    +0.000 C 
ATOM     27  O   UNL     1       8.202   7.017  18.754  0.00  0.00    +0.000 OA
ATOM     28  H   UNL     1       6.811   8.304  16.217  0.00  0.00    +0.000 HD
BRANCH  26  29
ATOM     29  C   UNL     1       8.284   9.277  18.136  0.00  0.00    +0.000 A 
ATOM     30  C   UNL     1       9.253   9.496  19.132  0.00  0.00    +0.000 A 
ATOM     31  C   UNL     1       9.724  10.782  19.406  0.00  0.00    +0.000 A 
ATOM     32  C   UNL     1       9.231  11.852  18.670  0.00  0.00    +0.000 A 
ATOM     33  C   UNL     1       8.289  11.657  17.666  0.00  0.00    +0.000 A 
ATOM     34  C   UNL     1       7.816  10.367  17.393  0.00  0.00    +0.000 A 
BRANCH  32  35
ATOM     35  O   UNL     1       9.657  13.126  18.901  0.00  0.00    +0.000 OA
ATOM     36  H   UNL     1      10.361  13.103  19.570  0.00  0.00    +0.000 HD
ENDBRANCH  32  35
ENDBRANCH  26  29
ENDBRANCH   6  25
BRANCH   2  37
ATOM     37  O   UNL     1       3.608   3.928  16.728  0.00  0.00    +0.000 OA
ATOM     38  H   UNL     1       3.793   3.131  17.265  0.00  0.00    +0.000 HD
ENDBRANCH   2  37
TORSDOF 7
ENDMDL
MODEL 2
REMARK VINA RESULT:      -8.6      2.991      7.726
REMARK  Name = 
REMARK  8 active torsions:
REMARK  status: ('A' for Active; 'I' for Inactive)
REMARK    1  A    between atoms: C_1  and  N_2
REMARK    2  A    between atoms: N_6  and  C_7
REMARK    3  A    between atoms: C_10  and  C_11
REMARK    4  A    between atoms: N_13  and  C_14
REMARK    5  A    between atoms: C_15  and  O_16
REMARK    6  A    between atoms: C_20  and  N_21
REMARK    7  A    between atoms: C_22  and  C_24
REMARK    8  A    between atoms: C_27  and  O_28
REMARK                            x       y       z     vdW  Elec       q    Type
REMARK                         _______ _______ _______ _____ _____    ______ ____
ROOT
ATOM      1  C   UNL     1       6.070   6.103  16.460  0.00  0.00    +0.000 A 
ATOM      2  C   UNL     1       6.736   5.282  15.520  0.00  0.00    +0.000 A 
ATOM      3  C   UNL     1       6.271   4.006  15.215  0.00  0.00    +0.000 A 
ATOM      4  C   UNL     1       5.158   3.499  15.877  0.00  0.00    +0.000 A 
ATOM      5  C   UNL     1       4.478   4.298  16.794  0.00  0.00    +0.000 A 
ATOM      6  C   UNL     1       4.880   5.625  17.044  0.00  0.00    +0.000 A 
ENDROOT
BRANCH   1   9
ATOM      7  C   UNL     1       7.576   7.522  17.826  0.00  0.00    +0.000 C 
ATOM      8  O   UNL     1       8.086   6.581  18.428  0.00  0.00    +0.000 OA
ATOM      9  N   UNL     1       6.594   7.360  16.866  0.00  0.00    +0.000 N 
ATOM     10  H   UNL     1       6.024   8.159  16.607  0.00  0.00    +0.000 HD
BRANCH   7  14
ATOM     11  C   UNL     1       9.281  11.416  18.637  0.00  0.00    +0.000 A 
ATOM     12  C   UNL     1       9.558  10.296  19.429  0.00  0.00    +0.000 A 
ATOM     13  C   UNL     1       8.960   9.054  19.184  0.00  0.00    +0.000 A 
ATOM     14  C   UNL     1       8.053   8.893  18.126  0.00  0.00    +0.000 A 
ATOM     15  C   UNL     1       7.732  10.002  17.342  0.00  0.00    +0.000 A 
ATOM     16  C   UNL     1       8.336  11.239  17.609  0.00  0.00    +0.000 A 
BRANCH  11  22
ATOM     17  C   UNL     1      12.331  16.023  17.445  0.00  0.00    +0.000 C 
ATOM     18  N   UNL     1      10.970  15.508  17.600  0.00  0.00    +0.000 NA
ATOM     19  C   UNL     1      10.504  15.707  18.978  0.00  0.00    +0.000 C 
ATOM     20  C   UNL     1       9.229  14.958  19.372  0.00  0.00    +0.000 C 
ATOM     21  C   UNL     1       9.501  13.547  19.894  0.00  0.00    +0.000 C 
ATOM     22  N   UNL     1       9.927  12.627  18.839  0.00  0.00    +0.000 N 
ATOM     23  C   UNL     1      11.126  12.978  18.061  0.00  0.00    +0.000 C 
ATOM     24  C   UNL     1      10.841  14.134  17.078  0.00  0.00    +0.000 C 
ENDBRANCH  11  22
ENDBRANCH   7  14
ENDBRANCH   1   9
BRANCH   6  25
ATOM     25  N   UNL     1       4.075   6.346  17.958  0.00  0.00    +0.000 N 
ATOM     26  C   UNL     1       3.307   7.432  17.588  0.00  0.00    +0.000 C 
ATOM     27  O   UNL     1       3.333   7.943  16.471  0.00  0.00    +0.000 OA
ATOM     28  H   UNL     1       3.814   5.840  18.789  0.00  0.00    +0.000 HD
BRANCH  26  29
ATOM     29  C   UNL     1       2.417   8.036  18.627  0.00  0.00    +0.000 A 
ATOM     30  C   UNL     1       1.822   9.270  18.309  0.00  0.00    +0.000 A 
ATOM     31  C   UNL     1       1.025   9.944  19.237  0.00  0.00    +0.000 A 
ATOM     32  C   UNL     1       0.814   9.374  20.485  0.00  0.00    +0.000 A 
ATOM     33  C   UNL     1       1.376   8.145  20.816  0.00  0.00    +0.000 A 
ATOM     34  C   UNL     1       2.175   7.470  19.885  0.00  0.00    +0.000 A 
BRANCH  32  35
ATOM     35  O   UNL     1       0.048   9.994  21.426  0.00  0.00    +0.000 OA
ATOM     36  H   UNL     1      -0.888   9.859  21.204  0.00  0.00    +0.000 HD
ENDBRANCH  32  35
ENDBRANCH  26  29
ENDBRANCH   6  25
BRANCH   2  37
ATOM     37  O   UNL     1       7.839   5.682  14.810  0.00  0.00    +0.000 OA
ATOM     38  H   UNL     1       8.614   5.447  15.360  0.00  0.00    +0.000 HD
ENDBRANCH   2  37
TORSDOF 7
ENDMDL
MODEL 3
REMARK VINA RESULT:      -8.6      0.634      1.039
REMARK  Name = 
REMARK  8 active torsions:
REMARK  status: ('A' for Active; 'I' for Inactive)
REMARK    1  A    between atoms: C_1  and  N_2
REMARK    2  A    between atoms: N_6  and  C_7
REMARK    3  A    between atoms: C_10  and  C_11
REMARK    4  A    between atoms: N_13  and  C_14
REMARK    5  A    between atoms: C_15  and  O_16
REMARK    6  A    between atoms: C_20  and  N_21
REMARK    7  A    between atoms: C_22  and  C_24
REMARK    8  A    between atoms: C_27  and  O_28
REMARK                            x       y       z     vdW  Elec       q    Type
REMARK                         _______ _______ _______ _____ _____    ______ ____
ROOT
ATOM      1  C   UNL     1       5.014   5.943  16.926  0.00  0.00    +0.000 A 
ATOM      2  C   UNL     1       4.666   4.617  16.569  0.00  0.00    +0.000 A 
ATOM      3  C   UNL     1       5.573   3.779  15.925  0.00  0.00    +0.000 A 
ATOM      4  C   UNL     1       6.831   4.258  15.577  0.00  0.00    +0.000 A 
ATOM      5  C   UNL     1       7.199   5.555  15.933  0.00  0.00    +0.000 A 
ATOM      6  C   UNL     1       6.328   6.383  16.669  0.00  0.00    +0.000 A 
ENDROOT
BRANCH   1   9
ATOM      7  C   UNL     1       3.404   6.642  18.675  0.00  0.00    +0.000 C 
ATOM      8  O   UNL     1       3.570   5.647  19.374  0.00  0.00    +0.000 OA
ATOM      9  N   UNL     1       4.068   6.845  17.479  0.00  0.00    +0.000 N 
ATOM     10  H   UNL     1       3.699   7.526  16.823  0.00  0.00    +0.000 HD
BRANCH   7  14
ATOM     11  C   UNL     1       0.450   9.591  19.820  0.00  0.00    +0.000 A 
ATOM     12  C   UNL     1       1.095   9.618  18.578  0.00  0.00    +0.000 A 
ATOM     13  C   UNL     1       2.085   8.686  18.242  0.00  0.00    +0.000 A 
ATOM     14  C   UNL     1       2.465   7.687  19.150  0.00  0.00    +0.000 A 
ATOM     15  C   UNL     1       1.861   7.658  20.408  0.00  0.00    +0.000 A 
ATOM     16  C   UNL     1       0.879   8.606  20.729  0.00  0.00    +0.000 A 
BRANCH  11  22
ATOM     17  C   UNL     1      -2.351  13.689  22.523  0.00  0.00    +0.000 C 
ATOM     18  N   UNL     1      -1.521  13.390  21.355  0.00  0.00    +0.000 NA
ATOM     19  C   UNL     1      -2.365  13.049  20.204  0.00  0.00    +0.000 C 
ATOM     20  C   UNL     1      -1.648  12.424  19.005  0.00  0.00    +0.000 C 
ATOM     21  C   UNL     1      -1.534  10.902  19.102  0.00  0.00    +0.000 C 
ATOM     22  N   UNL     1      -0.578  10.471  20.124  0.00  0.00    +0.000 N 
ATOM     23  C   UNL     1      -0.799  10.922  21.507  0.00  0.00    +0.000 C 
ATOM     24  C   UNL     1      -0.458  12.418  21.674  0.00  0.00    +0.000 C 
ENDBRANCH  11  22
ENDBRANCH   7  14
ENDBRANCH   1   9
BRANCH   6  25
ATOM     25  N   UNL     1       6.840   7.657  17.012  0.00  0.00    +0.000 N 
ATOM     26  C   UNL     1       7.795   7.844  17.992  0.00  0.00    +0.000 C 
ATOM     27  O   UNL     1       8.205   6.951  18.730  0.00  0.00    +0.000 OA
ATOM     28  H   UNL     1       6.748   8.361  16.297  0.00  0.00    +0.000 HD
BRANCH  26  29
ATOM     29  C   UNL     1       8.332   9.227  18.180  0.00  0.00    +0.000 A 
ATOM     30  C   UNL     1       9.211   9.421  19.260  0.00  0.00    +0.000 A 
ATOM     31  C   UNL     1       9.717  10.688  19.556  0.00  0.00    +0.000 A 
ATOM     32  C   UNL     1       9.349  11.764  18.760  0.00  0.00    +0.000 A 
ATOM     33  C   UNL     1       8.497  11.593  17.674  0.00  0.00    +0.000 A 
ATOM     34  C   UNL     1       7.990  10.322  17.377  0.00  0.00    +0.000 A 
BRANCH  32  35
ATOM     35  O   UNL     1       9.813  13.021  19.009  0.00  0.00    +0.000 OA
ATOM     36  H   UNL     1      10.401  12.989  19.782  0.00  0.00    +0.000 HD
ENDBRANCH  32  35
ENDBRANCH  26  29
ENDBRANCH   6  25
BRANCH   2  37
ATOM     37  O   UNL     1       3.457   4.045  16.865  0.00  0.00    +0.000 OA
ATOM     38  H   UNL     1       3.113   3.687  16.021  0.00  0.00    +0.000 HD
ENDBRANCH   2  37
TORSDOF 7
ENDMDL
MODEL 4
REMARK VINA RESULT:      -8.5      0.854      1.135
REMARK  Name = 
REMARK  8 active torsions:
REMARK  status: ('A' for Active; 'I' for Inactive)
REMARK    1  A    between atoms: C_1  and  N_2
REMARK    2  A    between atoms: N_6  and  C_7
REMARK    3  A    between atoms: C_10  and  C_11
REMARK    4  A    between atoms: N_13  and  C_14
REMARK    5  A    between atoms: C_15  and  O_16
REMARK    6  A    between atoms: C_20  and  N_21
REMARK    7  A    between atoms: C_22  and  C_24
REMARK    8  A    between atoms: C_27  and  O_28
REMARK                            x       y       z     vdW  Elec       q    Type
REMARK                         _______ _______ _______ _____ _____    ______ ____
ROOT
ATOM      1  C   UNL     1       4.968   6.007  16.954  0.00  0.00    +0.000 A 
ATOM      2  C   UNL     1       4.620   4.673  16.631  0.00  0.00    +0.000 A 
ATOM      3  C   UNL     1       5.545   3.800  16.065  0.00  0.00    +0.000 A 
ATOM      4  C   UNL     1       6.825   4.251  15.760  0.00  0.00    +0.000 A 
ATOM      5  C   UNL     1       7.192   5.556  16.084  0.00  0.00    +0.000 A 
ATOM      6  C   UNL     1       6.298   6.422  16.744  0.00  0.00    +0.000 A 
ENDROOT
BRANCH   1   9
ATOM      7  C   UNL     1       3.242   6.765  18.563  0.00  0.00    +0.000 C 
ATOM      8  O   UNL     1       3.318   5.768  19.275  0.00  0.00    +0.000 OA
ATOM      9  N   UNL     1       4.008   6.942  17.426  0.00  0.00    +0.000 N 
ATOM     10  H   UNL     1       3.716   7.631  16.741  0.00  0.00    +0.000 HD
BRANCH   7  14
ATOM     11  C   UNL     1       0.725  10.006  19.938  0.00  0.00    +0.000 A 
ATOM     12  C   UNL     1       1.072   8.926  20.758  0.00  0.00    +0.000 A 
ATOM     13  C   UNL     1       1.847   7.860  20.284  0.00  0.00    +0.000 A 
ATOM     14  C   UNL     1       2.301   7.841  18.957  0.00  0.00    +0.000 A 
ATOM     15  C   UNL     1       1.940   8.888  18.109  0.00  0.00    +0.000 A 
ATOM     16  C   UNL     1       1.156   9.942  18.600  0.00  0.00    +0.000 A 
BRANCH  11  22
ATOM     17  C   UNL     1      -2.501  13.043  23.449  0.00  0.00    +0.000 C 
ATOM     18  N   UNL     1      -1.122  12.771  23.040  0.00  0.00    +0.000 NA
ATOM     19  C   UNL     1      -0.706  13.714  21.995  0.00  0.00    +0.000 C 
ATOM     20  C   UNL     1       0.591  13.373  21.257  0.00  0.00    +0.000 C 
ATOM     21  C   UNL     1       0.370  12.461  20.049  0.00  0.00    +0.000 C 
ATOM     22  N   UNL     1       0.017  11.093  20.430  0.00  0.00    +0.000 N 
ATOM     23  C   UNL     1      -1.173  10.897  21.272  0.00  0.00    +0.000 C 
ATOM     24  C   UNL     1      -0.914  11.344  22.727  0.00  0.00    +0.000 C 
ENDBRANCH  11  22
ENDBRANCH   7  14
ENDBRANCH   1   9
BRANCH   6  25
ATOM     25  N   UNL     1       6.811   7.703  17.062  0.00  0.00    +0.000 N 
ATOM     26  C   UNL     1       7.792   7.904  18.013  0.00  0.00    +0.000 C 
ATOM     27  O   UNL     1       8.231   7.020  18.745  0.00  0.00    +0.000 OA
ATOM     28  H   UNL     1       6.692   8.401  16.346  0.00  0.00    +0.000 HD
BRANCH  26  29
ATOM     29  C   UNL     1       8.323   9.292  18.175  0.00  0.00    +0.000 A 
ATOM     30  C   UNL     1       9.235   9.501  19.225  0.00  0.00    +0.000 A 
ATOM     31  C   UNL     1       9.740  10.774  19.496  0.00  0.00    +0.000 A 
ATOM     32  C   UNL     1       9.338  11.842  18.705  0.00  0.00    +0.000 A 
ATOM     33  C   UNL     1       8.454  11.657  17.648  0.00  0.00    +0.000 A 
ATOM     34  C   UNL     1       7.948  10.380  17.376  0.00  0.00    +0.000 A 
BRANCH  32  35
ATOM     35  O   UNL     1       9.800  13.104  18.932  0.00  0.00    +0.000 OA
ATOM     36  H   UNL     1      10.212  13.436  18.118  0.00  0.00    +0.000 HD
ENDBRANCH  32  35
ENDBRANCH  26  29
ENDBRANCH   6  25
BRANCH   2  37
ATOM     37  O   UNL     1       3.390   4.127  16.890  0.00  0.00    +0.000 OA
ATOM     38  H   UNL     1       3.205   3.514  16.150  0.00  0.00    +0.000 HD
ENDBRANCH   2  37
TORSDOF 7
ENDMDL
MODEL 5
REMARK VINA RESULT:      -8.5      4.549      9.784
REMARK  Name = 
REMARK  8 active torsions:
REMARK  status: ('A' for Active; 'I' for Inactive)
REMARK    1  A    between atoms: C_1  and  N_2
REMARK    2  A    between atoms: N_6  and  C_7
REMARK    3  A    between atoms: C_10  and  C_11
REMARK    4  A    between atoms: N_13  and  C_14
REMARK    5  A    between atoms: C_15  and  O_16
REMARK    6  A    between atoms: C_20  and  N_21
REMARK    7  A    between atoms: C_22  and  C_24
REMARK    8  A    between atoms: C_27  and  O_28
REMARK                            x       y       z     vdW  Elec       q    Type
REMARK                         _______ _______ _______ _____ _____    ______ ____
ROOT
ATOM      1  C   UNL     1       2.136  14.139  18.910  0.00  0.00    +0.000 A 
ATOM      2  C   UNL     1       3.098  14.842  18.147  0.00  0.00    +0.000 A 
ATOM      3  C   UNL     1       2.988  16.212  17.927  0.00  0.00    +0.000 A 
ATOM      4  C   UNL     1       1.888  16.906  18.421  0.00  0.00    +0.000 A 
ATOM      5  C   UNL     1       0.937  16.235  19.189  0.00  0.00    +0.000 A 
ATOM      6  C   UNL     1       1.085  14.869  19.500  0.00  0.00    +0.000 A 
ENDROOT
BRANCH   1   9
ATOM      7  C   UNL     1       1.126  11.883  18.722  0.00  0.00    +0.000 C 
ATOM      8  O   UNL     1       0.053  12.285  18.281  0.00  0.00    +0.000 OA
ATOM      9  N   UNL     1       2.172  12.726  19.049  0.00  0.00    +0.000 N 
ATOM     10  H   UNL     1       2.911  12.379  19.653  0.00  0.00    +0.000 HD
BRANCH   7  14
ATOM     11  C   UNL     1       2.014   7.673  19.184  0.00  0.00    +0.000 A 
ATOM     12  C   UNL     1       2.301   8.375  18.008  0.00  0.00    +0.000 A 
ATOM     13  C   UNL     1       1.962   9.725  17.855  0.00  0.00    +0.000 A 
ATOM     14  C   UNL     1       1.316  10.422  18.887  0.00  0.00    +0.000 A 
ATOM     15  C   UNL     1       0.988   9.736  20.057  0.00  0.00    +0.000 A 
ATOM     16  C   UNL     1       1.328   8.381  20.187  0.00  0.00    +0.000 A 
BRANCH  11  22
ATOM     17  C   UNL     1       1.991   2.379  21.167  0.00  0.00    +0.000 C 
ATOM     18  N   UNL     1       1.593   3.227  20.042  0.00  0.00    +0.000 NA
ATOM     19  C   UNL     1       2.647   3.245  19.020  0.00  0.00    +0.000 C 
ATOM     20  C   UNL     1       2.512   4.314  17.933  0.00  0.00    +0.000 C 
ATOM     21  C   UNL     1       3.159   5.645  18.319  0.00  0.00    +0.000 C 
ATOM     22  N   UNL     1       2.413   6.355  19.359  0.00  0.00    +0.000 N 
ATOM     23  C   UNL     1       2.183   5.663  20.637  0.00  0.00    +0.000 C 
ATOM     24  C   UNL     1       1.123   4.551  20.493  0.00  0.00    +0.000 C 
ENDBRANCH  11  22
ENDBRANCH   7  14
ENDBRANCH   1   9
BRANCH   6  25
ATOM     25  N   UNL     1       0.078  14.319  20.330  0.00  0.00    +0.000 N 
ATOM     26  C   UNL     1       0.235  14.154  21.692  0.00  0.00    +0.000 C 
ATOM     27  O   UNL     1       1.288  14.358  22.292  0.00  0.00    +0.000 OA
ATOM     28  H   UNL     1      -0.858  14.379  19.963  0.00  0.00    +0.000 HD
BRANCH  26  29
ATOM     29  C   UNL     1      -0.945  13.665  22.470  0.00  0.00    +0.000 A 
ATOM     30  C   UNL     1      -1.105  12.271  22.564  0.00  0.00    +0.000 A 
ATOM     31  C   UNL     1      -2.208  11.716  23.216  0.00  0.00    +0.000 A 
ATOM     32  C   UNL     1      -3.151  12.562  23.785  0.00  0.00    +0.000 A 
ATOM     33  C   UNL     1      -3.003  13.944  23.723  0.00  0.00    +0.000 A 
ATOM     34  C   UNL     1      -1.896  14.499  23.069  0.00  0.00    +0.000 A 
BRANCH  32  35
ATOM     35  O   UNL     1      -4.246  12.070  24.429  0.00  0.00    +0.000 OA
ATOM     36  H   UNL     1      -3.973  11.734  25.298  0.00  0.00    +0.000 HD
ENDBRANCH  32  35
ENDBRANCH  26  29
ENDBRANCH   6  25
BRANCH   2  37
ATOM     37  O   UNL     1       4.219  14.258  17.616  0.00  0.00    +0.000 OA
ATOM     38  H   UNL     1       4.354  14.677  16.742  0.00  0.00    +0.000 HD
ENDBRANCH   2  37
TORSDOF 7
ENDMDL
MODEL 6
REMARK VINA RESULT:      -8.4      0.935      1.610
REMARK  Name = 
REMARK  8 active torsions:
REMARK  status: ('A' for Active; 'I' for Inactive)
REMARK    1  A    between atoms: C_1  and  N_2
REMARK    2  A    between atoms: N_6  and  C_7
REMARK    3  A    between atoms: C_10  and  C_11
REMARK    4  A    between atoms: N_13  and  C_14
REMARK    5  A    between atoms: C_15  and  O_16
REMARK    6  A    between atoms: C_20  and  N_21
REMARK    7  A    between atoms: C_22  and  C_24
REMARK    8  A    between atoms: C_27  and  O_28
REMARK                            x       y       z     vdW  Elec       q    Type
REMARK                         _______ _______ _______ _____ _____    ______ ____
ROOT
ATOM      1  C   UNL     1       4.925   5.986  16.980  0.00  0.00    +0.000 A 
ATOM      2  C   UNL     1       4.571   4.666  16.610  0.00  0.00    +0.000 A 
ATOM      3  C   UNL     1       5.484   3.820  15.986  0.00  0.00    +0.000 A 
ATOM      4  C   UNL     1       6.756   4.286  15.671  0.00  0.00    +0.000 A 
ATOM      5  C   UNL     1       7.129   5.577  16.040  0.00  0.00    +0.000 A 
ATOM      6  C   UNL     1       6.250   6.412  16.757  0.00  0.00    +0.000 A 
ENDROOT
BRANCH   1   9
ATOM      7  C   UNL     1       3.217   6.660  18.645  0.00  0.00    +0.000 C 
ATOM      8  O   UNL     1       3.292   5.623  19.297  0.00  0.00    +0.000 OA
ATOM      9  N   UNL     1       3.975   6.898  17.513  0.00  0.00    +0.000 N 
ATOM     10  H   UNL     1       3.683   7.628  16.872  0.00  0.00    +0.000 HD
BRANCH   7  14
ATOM     11  C   UNL     1       0.732   9.831  20.227  0.00  0.00    +0.000 A 
ATOM     12  C   UNL     1       1.074   8.701  20.978  0.00  0.00    +0.000 A 
ATOM     13  C   UNL     1       1.838   7.659  20.436  0.00  0.00    +0.000 A 
ATOM     14  C   UNL     1       2.286   7.717  19.108  0.00  0.00    +0.000 A 
ATOM     15  C   UNL     1       1.931   8.818  18.327  0.00  0.00    +0.000 A 
ATOM     16  C   UNL     1       1.158   9.846  18.886  0.00  0.00    +0.000 A 
BRANCH  11  22
ATOM     17  C   UNL     1      -3.037  14.021  20.653  0.00  0.00    +0.000 C 
ATOM     18  N   UNL     1      -2.771  12.625  21.001  0.00  0.00    +0.000 NA
ATOM     19  C   UNL     1      -2.145  12.541  22.326  0.00  0.00    +0.000 C 
ATOM     20  C   UNL     1      -1.536  11.188  22.699  0.00  0.00    +0.000 C 
ATOM     21  C   UNL     1      -0.085  11.037  22.239  0.00  0.00    +0.000 C 
ATOM     22  N   UNL     1       0.036  10.892  20.787  0.00  0.00    +0.000 N 
ATOM     23  C   UNL     1      -0.520  11.958  19.940  0.00  0.00    +0.000 C 
ATOM     24  C   UNL     1      -2.062  11.915  19.918  0.00  0.00    +0.000 C 
ENDBRANCH  11  22
ENDBRANCH   7  14
ENDBRANCH   1   9
BRANCH   6  25
ATOM     25  N   UNL     1       6.768   7.679  17.117  0.00  0.00    +0.000 N 
ATOM     26  C   UNL     1       7.786   7.842  18.036  0.00  0.00    +0.000 C 
ATOM     27  O   UNL     1       8.258   6.926  18.705  0.00  0.00    +0.000 OA
ATOM     28  H   UNL     1       6.617   8.411  16.441  0.00  0.00    +0.000 HD
BRANCH  26  29
ATOM     29  C   UNL     1       8.316   9.224  18.244  0.00  0.00    +0.000 A 
ATOM     30  C   UNL     1       7.785  10.234  17.422  0.00  0.00    +0.000 A 
ATOM     31  C   UNL     1       8.260  11.545  17.498  0.00  0.00    +0.000 A 
ATOM     32  C   UNL     1       9.263  11.848  18.408  0.00  0.00    +0.000 A 
ATOM     33  C   UNL     1       9.789  10.871  19.246  0.00  0.00    +0.000 A 
ATOM     34  C   UNL     1       9.313   9.556  19.170  0.00  0.00    +0.000 A 
BRANCH  32  35
ATOM     35  O   UNL     1       9.761  13.112  18.517  0.00  0.00    +0.000 OA
ATOM     36  H   UNL     1      10.225  13.337  17.694  0.00  0.00    +0.000 HD
ENDBRANCH  32  35
ENDBRANCH  26  29
ENDBRANCH   6  25
BRANCH   2  37
ATOM     37  O   UNL     1       3.348   4.107  16.874  0.00  0.00    +0.000 OA
ATOM     38  H   UNL     1       3.531   3.210  17.222  0.00  0.00    +0.000 HD
ENDBRANCH   2  37
TORSDOF 7
ENDMDL
MODEL 7
REMARK VINA RESULT:      -8.3      4.659     10.119
REMARK  Name = 
REMARK  8 active torsions:
REMARK  status: ('A' for Active; 'I' for Inactive)
REMARK    1  A    between atoms: C_1  and  N_2
REMARK    2  A    between atoms: N_6  and  C_7
REMARK    3  A    between atoms: C_10  and  C_11
REMARK    4  A    between atoms: N_13  and  C_14
REMARK    5  A    between atoms: C_15  and  O_16
REMARK    6  A    between atoms: C_20  and  N_21
REMARK    7  A    between atoms: C_22  and  C_24
REMARK    8  A    between atoms: C_27  and  O_28
REMARK                            x       y       z     vdW  Elec       q    Type
REMARK                         _______ _______ _______ _____ _____    ______ ____
ROOT
ATOM      1  C   UNL     1       0.815  12.959  19.609  0.00  0.00    +0.000 A 
ATOM      2  C   UNL     1       1.452  13.787  20.564  0.00  0.00    +0.000 A 
ATOM      3  C   UNL     1       1.147  15.141  20.667  0.00  0.00    +0.000 A 
ATOM      4  C   UNL     1       0.236  15.714  19.786  0.00  0.00    +0.000 A 
ATOM      5  C   UNL     1      -0.414  14.913  18.848  0.00  0.00    +0.000 A 
ATOM      6  C   UNL     1      -0.187  13.523  18.795  0.00  0.00    +0.000 A 
ENDROOT
BRANCH   1   9
ATOM      7  C   UNL     1       0.873  10.573  20.279  0.00  0.00    +0.000 C 
ATOM      8  O   UNL     1       0.225  10.739  21.309  0.00  0.00    +0.000 OA
ATOM      9  N   UNL     1       1.195  11.604  19.415  0.00  0.00    +0.000 N 
ATOM     10  H   UNL     1       1.946  11.467  18.747  0.00  0.00    +0.000 HD
BRANCH   7  14
ATOM     11  C   UNL     1       2.449   6.688  19.205  0.00  0.00    +0.000 A 
ATOM     12  C   UNL     1       2.330   7.731  18.280  0.00  0.00    +0.000 A 
ATOM     13  C   UNL     1       1.772   8.967  18.630  0.00  0.00    +0.000 A 
ATOM     14  C   UNL     1       1.308   9.199  19.934  0.00  0.00    +0.000 A 
ATOM     15  C   UNL     1       1.384   8.164  20.867  0.00  0.00    +0.000 A 
ATOM     16  C   UNL     1       1.938   6.931  20.494  0.00  0.00    +0.000 A 
BRANCH  11  22
ATOM     17  C   UNL     1       4.560   1.488  19.874  0.00  0.00    +0.000 C 
ATOM     18  N   UNL     1       3.397   2.246  19.411  0.00  0.00    +0.000 NA
ATOM     19  C   UNL     1       3.505   2.517  17.973  0.00  0.00    +0.000 C 
ATOM     20  C   UNL     1       2.527   3.549  17.407  0.00  0.00    +0.000 C 
ATOM     21  C   UNL     1       3.049   4.984  17.501  0.00  0.00    +0.000 C 
ATOM     22  N   UNL     1       3.065   5.490  18.874  0.00  0.00    +0.000 N 
ATOM     23  C   UNL     1       3.840   4.741  19.876  0.00  0.00    +0.000 C 
ATOM     24  C   UNL     1       3.136   3.423  20.262  0.00  0.00    +0.000 C 
ENDBRANCH  11  22
ENDBRANCH   7  14
ENDBRANCH   1   9
BRANCH   6  25
ATOM     25  N   UNL     1      -0.948  12.816  17.833  0.00  0.00    +0.000 N 
ATOM     26  C   UNL     1      -1.925  11.901  18.172  0.00  0.00    +0.000 C 
ATOM     27  O   UNL     1      -2.150  11.532  19.322  0.00  0.00    +0.000 OA
ATOM     28  H   UNL     1      -0.996  13.249  16.924  0.00  0.00    +0.000 HD
BRANCH  26  29
ATOM     29  C   UNL     1      -2.730  11.306  17.062  0.00  0.00    +0.000 A 
ATOM     30  C   UNL     1      -2.080  10.363  16.246  0.00  0.00    +0.000 A 
ATOM     31  C   UNL     1      -2.728   9.797  15.146  0.00  0.00    +0.000 A 
ATOM     32  C   UNL     1      -4.036  10.169  14.868  0.00  0.00    +0.000 A 
ATOM     33  C   UNL     1      -4.707  11.084  15.673  0.00  0.00    +0.000 A 
ATOM     34  C   UNL     1      -4.057  11.651  16.776  0.00  0.00    +0.000 A 
BRANCH  32  35
ATOM     35  O   UNL     1      -4.710   9.647  13.805  0.00  0.00    +0.000 OA
ATOM     36  H   UNL     1      -5.654   9.851  13.903  0.00  0.00    +0.000 HD
ENDBRANCH  32  35
ENDBRANCH  26  29
ENDBRANCH   6  25
BRANCH   2  37
ATOM     37  O   UNL     1       2.362  13.327  21.480  0.00  0.00    +0.000 OA
ATOM     38  H   UNL     1       2.130  13.754  22.329  0.00  0.00    +0.000 HD
ENDBRANCH   2  37
TORSDOF 7
ENDMDL
MODEL 8
REMARK VINA RESULT:      -8.1      2.928      7.855
REMARK  Name = 
REMARK  8 active torsions:
REMARK  status: ('A' for Active; 'I' for Inactive)
REMARK    1  A    between atoms: C_1  and  N_2
REMARK    2  A    between atoms: N_6  and  C_7
REMARK    3  A    between atoms: C_10  and  C_11
REMARK    4  A    between atoms: N_13  and  C_14
REMARK    5  A    between atoms: C_15  and  O_16
REMARK    6  A    between atoms: C_20  and  N_21
REMARK    7  A    between atoms: C_22  and  C_24
REMARK    8  A    between atoms: C_27  and  O_28
REMARK                            x       y       z     vdW  Elec       q    Type
REMARK                         _______ _______ _______ _____ _____    ______ ____
ROOT
ATOM      1  C   UNL     1       6.050   6.499  16.702  0.00  0.00    +0.000 A 
ATOM      2  C   UNL     1       6.675   5.492  15.928  0.00  0.00    +0.000 A 
ATOM      3  C   UNL     1       6.077   4.249  15.736  0.00  0.00    +0.000 A 
ATOM      4  C   UNL     1       4.864   3.963  16.354  0.00  0.00    +0.000 A 
ATOM      5  C   UNL     1       4.224   4.946  17.107  0.00  0.00    +0.000 A 
ATOM      6  C   UNL     1       4.770   6.239  17.232  0.00  0.00    +0.000 A 
ENDROOT
BRANCH   1   9
ATOM      7  C   UNL     1       7.702   7.872  17.938  0.00  0.00    +0.000 C 
ATOM      8  O   UNL     1       8.130   6.940  18.612  0.00  0.00    +0.000 OA
ATOM      9  N   UNL     1       6.696   7.728  17.000  0.00  0.00    +0.000 N 
ATOM     10  H   UNL     1       6.201   8.554  16.681  0.00  0.00    +0.000 HD
BRANCH   7  14
ATOM     11  C   UNL     1       9.176  11.892  18.569  0.00  0.00    +0.000 A 
ATOM     12  C   UNL     1       8.238  11.584  17.577  0.00  0.00    +0.000 A 
ATOM     13  C   UNL     1       7.808  10.271  17.352  0.00  0.00    +0.000 A 
ATOM     14  C   UNL     1       8.311   9.212  18.122  0.00  0.00    +0.000 A 
ATOM     15  C   UNL     1       9.273   9.487  19.095  0.00  0.00    +0.000 A 
ATOM     16  C   UNL     1       9.697  10.808  19.298  0.00  0.00    +0.000 A 
BRANCH  11  22
ATOM     17  C   UNL     1      12.252  16.195  20.563  0.00  0.00    +0.000 C 
ATOM     18  N   UNL     1      11.960  15.396  19.371  0.00  0.00    +0.000 NA
ATOM     19  C   UNL     1      10.892  16.025  18.585  0.00  0.00    +0.000 C 
ATOM     20  C   UNL     1      10.272  15.165  17.482  0.00  0.00    +0.000 C 
ATOM     21  C   UNL     1       9.109  14.304  17.977  0.00  0.00    +0.000 C 
ATOM     22  N   UNL     1       9.547  13.202  18.835  0.00  0.00    +0.000 N 
ATOM     23  C   UNL     1      10.312  13.535  20.047  0.00  0.00    +0.000 C 
ATOM     24  C   UNL     1      11.751  13.973  19.703  0.00  0.00    +0.000 C 
ENDBRANCH  11  22
ENDBRANCH   7  14
ENDBRANCH   1   9
BRANCH   6  25
ATOM     25  N   UNL     1       3.998   7.159  17.980  0.00  0.00    +0.000 N 
ATOM     26  C   UNL     1       2.666   6.953  18.281  0.00  0.00    +0.000 C 
ATOM     27  O   UNL     1       1.999   6.019  17.840  0.00  0.00    +0.000 OA
ATOM     28  H   UNL     1       4.527   7.782  18.569  0.00  0.00    +0.000 HD
BRANCH  26  29
ATOM     29  C   UNL     1       1.995   7.949  19.171  0.00  0.00    +0.000 A 
ATOM     30  C   UNL     1       1.808   7.571  20.513  0.00  0.00    +0.000 A 
ATOM     31  C   UNL     1       1.137   8.406  21.408  0.00  0.00    +0.000 A 
ATOM     32  C   UNL     1       0.660   9.631  20.960  0.00  0.00    +0.000 A 
ATOM     33  C   UNL     1       0.851  10.036  19.644  0.00  0.00    +0.000 A 
ATOM     34  C   UNL     1       1.525   9.197  18.746  0.00  0.00    +0.000 A 
BRANCH  32  35
ATOM     35  O   UNL     1      -0.004  10.480  21.794  0.00  0.00    +0.000 OA
ATOM     36  H   UNL     1      -0.770  10.014  22.168  0.00  0.00    +0.000 HD
ENDBRANCH  32  35
ENDBRANCH  26  29
ENDBRANCH   6  25
BRANCH   2  37
ATOM     37  O   UNL     1       7.867   5.668  15.275  0.00  0.00    +0.000 OA
ATOM     38  H   UNL     1       7.700   6.338  14.582  0.00  0.00    +0.000 HD
ENDBRANCH   2  37
TORSDOF 7
ENDMDL
MODEL 9
REMARK VINA RESULT:      -8.1      2.854      7.645
REMARK  Name = 
REMARK  8 active torsions:
REMARK  status: ('A' for Active; 'I' for Inactive)
REMARK    1  A    between atoms: C_1  and  N_2
REMARK    2  A    between atoms: N_6  and  C_7
REMARK    3  A    between atoms: C_10  and  C_11
REMARK    4  A    between atoms: N_13  and  C_14
REMARK    5  A    between atoms: C_15  and  O_16
REMARK    6  A    between atoms: C_20  and  N_21
REMARK    7  A    between atoms: C_22  and  C_24
REMARK    8  A    between atoms: C_27  and  O_28
REMARK                            x       y       z     vdW  Elec       q    Type
REMARK                         _______ _______ _______ _____ _____    ______ ____
ROOT
ATOM      1  C   UNL     1       5.872   6.343  16.806  0.00  0.00    +0.000 A 
ATOM      2  C   UNL     1       6.541   5.240  16.224  0.00  0.00    +0.000 A 
ATOM      3  C   UNL     1       5.904   4.013  16.056  0.00  0.00    +0.000 A 
ATOM      4  C   UNL     1       4.600   3.843  16.510  0.00  0.00    +0.000 A 
ATOM      5  C   UNL     1       3.919   4.922  17.072  0.00  0.00    +0.000 A 
ATOM      6  C   UNL     1       4.517   6.194  17.161  0.00  0.00    +0.000 A 
ENDROOT
BRANCH   1   9
ATOM      7  C   UNL     1       7.611   7.686  17.954  0.00  0.00    +0.000 C 
ATOM      8  O   UNL     1       8.084   6.737  18.572  0.00  0.00    +0.000 OA
ATOM      9  N   UNL     1       6.541   7.565  17.086  0.00  0.00    +0.000 N 
ATOM     10  H   UNL     1       6.026   8.399  16.823  0.00  0.00    +0.000 HD
BRANCH   7  14
ATOM     11  C   UNL     1       9.124  11.700  18.528  0.00  0.00    +0.000 A 
ATOM     12  C   UNL     1       8.241  11.372  17.494  0.00  0.00    +0.000 A 
ATOM     13  C   UNL     1       7.799  10.059  17.290  0.00  0.00    +0.000 A 
ATOM     14  C   UNL     1       8.235   9.020  18.126  0.00  0.00    +0.000 A 
ATOM     15  C   UNL     1       9.142   9.314  19.144  0.00  0.00    +0.000 A 
ATOM     16  C   UNL     1       9.579  10.634  19.326  0.00  0.00    +0.000 A 
BRANCH  11  22
ATOM     17  C   UNL     1      11.958  16.556  17.948  0.00  0.00    +0.000 C 
ATOM     18  N   UNL     1      10.719  15.857  17.605  0.00  0.00    +0.000 NA
ATOM     19  C   UNL     1       9.681  16.140  18.604  0.00  0.00    +0.000 C 
ATOM     20  C   UNL     1       8.436  15.252  18.551  0.00  0.00    +0.000 C 
ATOM     21  C   UNL     1       8.578  13.971  19.374  0.00  0.00    +0.000 C 
ATOM     22  N   UNL     1       9.505  13.012  18.770  0.00  0.00    +0.000 N 
ATOM     23  C   UNL     1      10.885  13.453  18.517  0.00  0.00    +0.000 C 
ATOM     24  C   UNL     1      10.956  14.428  17.323  0.00  0.00    +0.000 C 
ENDBRANCH  11  22
ENDBRANCH   7  14
ENDBRANCH   1   9
BRANCH   6  25
ATOM     25  N   UNL     1       3.701   7.216  17.703  0.00  0.00    +0.000 N 
ATOM     26  C   UNL     1       2.677   6.966  18.596  0.00  0.00    +0.000 C 
ATOM     27  O   UNL     1       2.305   5.840  18.916  0.00  0.00    +0.000 OA
ATOM     28  H   UNL     1       4.106   8.139  17.690  0.00  0.00    +0.000 HD
BRANCH  26  29
ATOM     29  C   UNL     1       1.964   8.145  19.177  0.00  0.00    +0.000 A 
ATOM     30  C   UNL     1       1.786   9.255  18.333  0.00  0.00    +0.000 A 
ATOM     31  C   UNL     1       1.187  10.426  18.801  0.00  0.00    +0.000 A 
ATOM     32  C   UNL     1       0.754  10.482  20.119  0.00  0.00    +0.000 A 
ATOM     33  C   UNL     1       0.901   9.389  20.968  0.00  0.00    +0.000 A 
ATOM     34  C   UNL     1       1.501   8.215  20.497  0.00  0.00    +0.000 A 
BRANCH  32  35
ATOM     35  O   UNL     1       0.167  11.603  20.625  0.00  0.00    +0.000 OA
ATOM     36  H   UNL     1       0.776  12.351  20.515  0.00  0.00    +0.000 HD
ENDBRANCH  32  35
ENDBRANCH  26  29
ENDBRANCH   6  25
BRANCH   2  37
ATOM     37  O   UNL     1       7.823   5.298  15.741  0.00  0.00    +0.000 OA
ATOM     38  H   UNL     1       7.759   5.117  14.782  0.00  0.00    +0.000 HD
ENDBRANCH   2  37
TORSDOF 7
ENDMDL
