MODEL 1
REMARK VINA RESULT:      -7.4      0.000      0.000
REMARK  Name = 
REMARK  5 active torsions:
REMARK  status: ('A' for Active; 'I' for Inactive)
REMARK    1  A    between atoms: C_2  and  O_3
REMARK    2  A    between atoms: C_2  and  C_4
REMARK    3  A    between atoms: C_4  and  O_5
REMARK    4  A    between atoms: O_5  and  C_6
REMARK    5  A    between atoms: C_10  and  C_11
REMARK                            x       y       z     vdW  Elec       q    Type
REMARK                         _______ _______ _______ _____ _____    ______ ____
ROOT
ATOM      1  C   UNL     1       2.276   6.105  19.918  0.00  0.00    +0.000 A 
ATOM      2  C   UNL     1       2.805   6.764  18.768  0.00  0.00    +0.000 A 
ATOM      3  C   UNL     1       3.671   6.152  17.845  0.00  0.00    +0.000 A 
ATOM      4  C   UNL     1       3.910   4.809  18.139  0.00  0.00    +0.000 A 
ATOM      5  C   UNL     1       4.734   3.963  17.430  0.00  0.00    +0.000 A 
ATOM      6  N   UNL     1       4.686   2.794  18.156  0.00  0.00    +0.000 N 
ATOM      7  N   UNL     1       3.855   2.815  19.218  0.00  0.00    +0.000 NA
ATOM      8  C   UNL     1       3.376   4.070  19.267  0.00  0.00    +0.000 A 
ATOM      9  C   UNL     1       2.523   4.737  20.176  0.00  0.00    +0.000 A 
ATOM     10 CL   UNL     1       1.933   3.870  21.518  0.00  0.00    +0.000 Cl
ATOM     11  H   UNL     1       5.206   1.942  17.974  0.00  0.00    +0.000 HD
ENDROOT
BRANCH   5  12
ATOM     12  C   UNL     1       5.579   4.152  16.247  0.00  0.00    +0.000 A 
ATOM     13  C   UNL     1       5.118   3.784  14.974  0.00  0.00    +0.000 A 
ATOM     14  C   UNL     1       5.839   4.110  13.822  0.00  0.00    +0.000 A 
ATOM     15  C   UNL     1       7.061   4.767  13.929  0.00  0.00    +0.000 A 
ATOM     16  C   UNL     1       7.572   5.074  15.190  0.00  0.00    +0.000 A 
ATOM     17  C   UNL     1       6.835   4.766  16.332  0.00  0.00    +0.000 A 
ATOM     18  F   UNL     1       7.349   5.093  17.529  0.00  0.00    +0.000 F 
ENDBRANCH   5  12
BRANCH   1  19
ATOM     19  O   UNL     1       1.493   6.775  20.836  0.00  0.00    +0.000 OA
BRANCH  19  20
ATOM     20  C   UNL     1       1.500   8.202  20.710  0.00  0.00    +0.000 C 
BRANCH  20  22
ATOM     21  O   UNL     1      -0.571   8.556  21.905  0.00  0.00    +0.000 OA
ATOM     22  C   UNL     1       0.619   8.809  21.786  0.00  0.00    +0.000 C 
BRANCH  22  23
ATOM     23  O   UNL     1       1.274   9.671  22.595  0.00  0.00    +0.000 OA
ATOM     24  H   UNL     1       1.140   9.423  23.538  0.00  0.00    +0.000 HD
ENDBRANCH  22  23
ENDBRANCH  20  22
ENDBRANCH  19  20
ENDBRANCH   1  19
TORSDOF 5
ENDMDL
MODEL 2
REMARK VINA RESULT:      -7.3      3.855      7.121
REMARK  Name = 
REMARK  5 active torsions:
REMARK  status: ('A' for Active; 'I' for Inactive)
REMARK    1  A    between atoms: C_2  and  O_3
REMARK    2  A    between atoms: C_2  and  C_4
REMARK    3  A    between atoms: C_4  and  O_5
REMARK    4  A    between atoms: O_5  and  C_6
REMARK    5  A    between atoms: C_10  and  C_11
REMARK                            x       y       z     vdW  Elec       q    Type
REMARK                         _______ _______ _______ _____ _____    ______ ____
ROOT
ATOM      1  C   UNL     1       4.508   4.831  17.523  0.00  0.00    +0.000 A 
ATOM      2  C   UNL     1       4.290   6.182  17.120  0.00  0.00    +0.000 A 
ATOM      3  C   UNL     1       3.481   7.089  17.825  0.00  0.00    +0.000 A 
ATOM      4  C   UNL     1       2.959   6.545  18.999  0.00  0.00    +0.000 A 
ATOM      5  C   UNL     1       2.113   7.185  19.880  0.00  0.00    +0.000 A 
ATOM      6  N   UNL     1       1.836   6.213  20.814  0.00  0.00    +0.000 N 
ATOM      7  N   UNL     1       2.483   5.043  20.632  0.00  0.00    +0.000 NA
ATOM      8  C   UNL     1       3.169   5.194  19.485  0.00  0.00    +0.000 A 
ATOM      9  C   UNL     1       3.979   4.316  18.729  0.00  0.00    +0.000 A 
ATOM     10 CL   UNL     1       4.187   2.722  19.289  0.00  0.00    +0.000 Cl
ATOM     11  H   UNL     1       1.203   6.290  21.604  0.00  0.00    +0.000 HD
ENDROOT
BRANCH   5  12
ATOM     12  C   UNL     1       1.510   8.520  19.890  0.00  0.00    +0.000 A 
ATOM     13  C   UNL     1       1.207   9.176  18.687  0.00  0.00    +0.000 A 
ATOM     14  C   UNL     1       0.482  10.370  18.678  0.00  0.00    +0.000 A 
ATOM     15  C   UNL     1       0.091  10.956  19.878  0.00  0.00    +0.000 A 
ATOM     16  C   UNL     1       0.448  10.359  21.087  0.00  0.00    +0.000 A 
ATOM     17  C   UNL     1       1.151   9.155  21.086  0.00  0.00    +0.000 A 
ATOM     18  F   UNL     1       1.463   8.598  22.267  0.00  0.00    +0.000 F 
ENDBRANCH   5  12
BRANCH   1  19
ATOM     19  O   UNL     1       5.249   3.959  16.752  0.00  0.00    +0.000 OA
BRANCH  19  20
ATOM     20  C   UNL     1       5.689   4.488  15.495  0.00  0.00    +0.000 C 
BRANCH  20  22
ATOM     21  O   UNL     1       7.879   4.472  16.517  0.00  0.00    +0.000 OA
ATOM     22  C   UNL     1       7.181   4.757  15.555  0.00  0.00    +0.000 C 
BRANCH  22  23
ATOM     23  O   UNL     1       7.665   5.358  14.445  0.00  0.00    +0.000 OA
ATOM     24  H   UNL     1       8.134   4.704  13.880  0.00  0.00    +0.000 HD
ENDBRANCH  22  23
ENDBRANCH  20  22
ENDBRANCH  19  20
ENDBRANCH   1  19
TORSDOF 5
ENDMDL
MODEL 3
REMARK VINA RESULT:      -7.3      3.134      3.896
REMARK  Name = 
REMARK  5 active torsions:
REMARK  status: ('A' for Active; 'I' for Inactive)
REMARK    1  A    between atoms: C_2  and  O_3
REMARK    2  A    between atoms: C_2  and  C_4
REMARK    3  A    between atoms: C_4  and  O_5
REMARK    4  A    between atoms: O_5  and  C_6
REMARK    5  A    between atoms: C_10  and  C_11
REMARK                            x       y       z     vdW  Elec       q    Type
REMARK                         _______ _______ _______ _____ _____    ______ ____
ROOT
ATOM      1  C   UNL     1       1.063   9.584  19.122  0.00  0.00    +0.000 A 
ATOM      2  C   UNL     1       1.779   9.453  17.896  0.00  0.00    +0.000 A 
ATOM      3  C   UNL     1       2.650   8.388  17.607  0.00  0.00    +0.000 A 
ATOM      4  C   UNL     1       2.692   7.436  18.627  0.00  0.00    +0.000 A 
ATOM      5  C   UNL     1       3.472   6.300  18.638  0.00  0.00    +0.000 A 
ATOM      6  N   UNL     1       3.209   5.749  19.871  0.00  0.00    +0.000 N 
ATOM      7  N   UNL     1       2.287   6.404  20.605  0.00  0.00    +0.000 NA
ATOM      8  C   UNL     1       1.964   7.488  19.880  0.00  0.00    +0.000 A 
ATOM      9  C   UNL     1       1.113   8.590  20.128  0.00  0.00    +0.000 A 
ATOM     10 CL   UNL     1       0.292   8.660  21.618  0.00  0.00    +0.000 Cl
ATOM     11  H   UNL     1       3.637   4.920  20.272  0.00  0.00    +0.000 HD
ENDROOT
BRANCH   5  12
ATOM     12  C   UNL     1       4.446   5.750  17.691  0.00  0.00    +0.000 A 
ATOM     13  C   UNL     1       5.690   6.372  17.504  0.00  0.00    +0.000 A 
ATOM     14  C   UNL     1       6.690   5.771  16.735  0.00  0.00    +0.000 A 
ATOM     15  C   UNL     1       6.443   4.559  16.097  0.00  0.00    +0.000 A 
ATOM     16  C   UNL     1       5.188   3.962  16.209  0.00  0.00    +0.000 A 
ATOM     17  C   UNL     1       4.204   4.557  16.997  0.00  0.00    +0.000 A 
ATOM     18  F   UNL     1       3.013   3.946  17.098  0.00  0.00    +0.000 F 
ENDBRANCH   5  12
BRANCH   1  19
ATOM     19  O   UNL     1       0.281  10.690  19.387  0.00  0.00    +0.000 OA
BRANCH  19  20
ATOM     20  C   UNL     1      -1.013  10.676  18.769  0.00  0.00    +0.000 C 
BRANCH  20  22
ATOM     21  O   UNL     1      -2.142  12.689  19.489  0.00  0.00    +0.000 OA
ATOM     22  C   UNL     1      -1.515  12.100  18.620  0.00  0.00    +0.000 C 
BRANCH  22  23
ATOM     23  O   UNL     1      -1.214  12.655  17.425  0.00  0.00    +0.000 OA
ATOM     24  H   UNL     1      -0.291  12.996  17.428  0.00  0.00    +0.000 HD
ENDBRANCH  22  23
ENDBRANCH  20  22
ENDBRANCH  19  20
ENDBRANCH   1  19
TORSDOF 5
ENDMDL
MODEL 4
REMARK VINA RESULT:      -7.2      2.890      3.482
REMARK  Name = 
REMARK  5 active torsions:
REMARK  status: ('A' for Active; 'I' for Inactive)
REMARK    1  A    between atoms: C_2  and  O_3
REMARK    2  A    between atoms: C_2  and  C_4
REMARK    3  A    between atoms: C_4  and  O_5
REMARK    4  A    between atoms: O_5  and  C_6
REMARK    5  A    between atoms: C_10  and  C_11
REMARK                            x       y       z     vdW  Elec       q    Type
REMARK                         _______ _______ _______ _____ _____    ______ ____
ROOT
ATOM      1  C   UNL     1       1.414   9.236  19.067  0.00  0.00    +0.000 A 
ATOM      2  C   UNL     1       2.234   9.037  17.917  0.00  0.00    +0.000 A 
ATOM      3  C   UNL     1       3.066   7.919  17.732  0.00  0.00    +0.000 A 
ATOM      4  C   UNL     1       2.960   6.991  18.769  0.00  0.00    +0.000 A 
ATOM      5  C   UNL     1       3.670   5.815  18.876  0.00  0.00    +0.000 A 
ATOM      6  N   UNL     1       3.263   5.310  20.089  0.00  0.00    +0.000 N 
ATOM      7  N   UNL     1       2.314   6.031  20.720  0.00  0.00    +0.000 NA
ATOM      8  C   UNL     1       2.122   7.114  19.946  0.00  0.00    +0.000 A 
ATOM      9  C   UNL     1       1.315   8.266  20.092  0.00  0.00    +0.000 A 
ATOM     10 CL   UNL     1       0.364   8.417  21.497  0.00  0.00    +0.000 Cl
ATOM     11  H   UNL     1       3.604   4.469  20.544  0.00  0.00    +0.000 HD
ENDROOT
BRANCH   5  12
ATOM     12  C   UNL     1       4.696   5.190  18.035  0.00  0.00    +0.000 A 
ATOM     13  C   UNL     1       4.359   4.638  16.790  0.00  0.00    +0.000 A 
ATOM     14  C   UNL     1       5.346   4.191  15.908  0.00  0.00    +0.000 A 
ATOM     15  C   UNL     1       6.686   4.242  16.279  0.00  0.00    +0.000 A 
ATOM     16  C   UNL     1       7.036   4.717  17.543  0.00  0.00    +0.000 A 
ATOM     17  C   UNL     1       6.046   5.183  18.407  0.00  0.00    +0.000 A 
ATOM     18  F   UNL     1       6.419   5.651  19.609  0.00  0.00    +0.000 F 
ENDBRANCH   5  12
BRANCH   1  19
ATOM     19  O   UNL     1       0.675  10.389  19.235  0.00  0.00    +0.000 OA
BRANCH  19  20
ATOM     20  C   UNL     1      -0.444  10.523  18.349  0.00  0.00    +0.000 C 
BRANCH  20  22
ATOM     21  O   UNL     1      -0.907  12.629  19.442  0.00  0.00    +0.000 OA
ATOM     22  C   UNL     1      -0.992  11.935  18.439  0.00  0.00    +0.000 C 
BRANCH  22  23
ATOM     23  O   UNL     1      -1.599  12.351  17.305  0.00  0.00    +0.000 OA
ATOM     24  H   UNL     1      -0.957  12.821  16.727  0.00  0.00    +0.000 HD
ENDBRANCH  22  23
ENDBRANCH  20  22
ENDBRANCH  19  20
ENDBRANCH   1  19
TORSDOF 5
ENDMDL
MODEL 5
REMARK VINA RESULT:      -7.2      4.416      7.585
REMARK  Name = 
REMARK  5 active torsions:
REMARK  status: ('A' for Active; 'I' for Inactive)
REMARK    1  A    between atoms: C_2  and  O_3
REMARK    2  A    between atoms: C_2  and  C_4
REMARK    3  A    between atoms: C_4  and  O_5
REMARK    4  A    between atoms: O_5  and  C_6
REMARK    5  A    between atoms: C_10  and  C_11
REMARK                            x       y       z     vdW  Elec       q    Type
REMARK                         _______ _______ _______ _____ _____    ______ ____
ROOT
ATOM      1  C   UNL     1       3.064   6.480  18.336  0.00  0.00    +0.000 A 
ATOM      2  C   UNL     1       2.978   7.658  17.536  0.00  0.00    +0.000 A 
ATOM      3  C   UNL     1       2.267   8.810  17.912  0.00  0.00    +0.000 A 
ATOM      4  C   UNL     1       1.702   8.703  19.184  0.00  0.00    +0.000 A 
ATOM      5  C   UNL     1       0.930   9.659  19.807  0.00  0.00    +0.000 A 
ATOM      6  N   UNL     1       0.565   9.051  20.986  0.00  0.00    +0.000 N 
ATOM      7  N   UNL     1       1.093   7.825  21.185  0.00  0.00    +0.000 NA
ATOM      8  C   UNL     1       1.781   7.552  20.063  0.00  0.00    +0.000 A 
ATOM      9  C   UNL     1       2.496   6.411  19.629  0.00  0.00    +0.000 A 
ATOM     10 CL   UNL     1       2.550   5.052  20.653  0.00  0.00    +0.000 Cl
ATOM     11  H   UNL     1      -0.051   9.426  21.700  0.00  0.00    +0.000 HD
ENDROOT
BRANCH   5  12
ATOM     12  C   UNL     1       0.461  10.986  19.396  0.00  0.00    +0.000 A 
ATOM     13  C   UNL     1       1.274  12.116  19.571  0.00  0.00    +0.000 A 
ATOM     14  C   UNL     1       0.913  13.355  19.035  0.00  0.00    +0.000 A 
ATOM     15  C   UNL     1      -0.294  13.495  18.357  0.00  0.00    +0.000 A 
ATOM     16  C   UNL     1      -1.151  12.401  18.239  0.00  0.00    +0.000 A 
ATOM     17  C   UNL     1      -0.772  11.163  18.756  0.00  0.00    +0.000 A 
ATOM     18  F   UNL     1      -1.613  10.127  18.608  0.00  0.00    +0.000 F 
ENDBRANCH   5  12
BRANCH   1  19
ATOM     19  O   UNL     1       3.710   5.347  17.885  0.00  0.00    +0.000 OA
BRANCH  19  20
ATOM     20  C   UNL     1       5.134   5.468  17.774  0.00  0.00    +0.000 C 
BRANCH  20  22
ATOM     21  O   UNL     1       6.603   5.324  19.688  0.00  0.00    +0.000 OA
ATOM     22  C   UNL     1       5.792   4.778  18.954  0.00  0.00    +0.000 C 
BRANCH  22  23
ATOM     23  O   UNL     1       5.407   3.492  19.109  0.00  0.00    +0.000 OA
ATOM     24  H   UNL     1       6.117   2.882  18.805  0.00  0.00    +0.000 HD
ENDBRANCH  22  23
ENDBRANCH  20  22
ENDBRANCH  19  20
ENDBRANCH   1  19
TORSDOF 5
ENDMDL
MODEL 6
REMARK VINA RESULT:      -7.2      3.051      3.824
REMARK  Name = 
REMARK  5 active torsions:
REMARK  status: ('A' for Active; 'I' for Inactive)
REMARK    1  A    between atoms: C_2  and  O_3
REMARK    2  A    between atoms: C_2  and  C_4
REMARK    3  A    between atoms: C_4  and  O_5
REMARK    4  A    between atoms: O_5  and  C_6
REMARK    5  A    between atoms: C_10  and  C_11
REMARK                            x       y       z     vdW  Elec       q    Type
REMARK                         _______ _______ _______ _____ _____    ______ ____
ROOT
ATOM      1  C   UNL     1       3.661   4.031  19.041  0.00  0.00    +0.000 A 
ATOM      2  C   UNL     1       4.242   3.030  18.207  0.00  0.00    +0.000 A 
ATOM      3  C   UNL     1       4.827   3.296  16.956  0.00  0.00    +0.000 A 
ATOM      4  C   UNL     1       4.835   4.656  16.644  0.00  0.00    +0.000 A 
ATOM      5  C   UNL     1       5.318   5.214  15.480  0.00  0.00    +0.000 A 
ATOM      6  N   UNL     1       5.031   6.551  15.628  0.00  0.00    +0.000 N 
ATOM      7  N   UNL     1       4.472   6.889  16.808  0.00  0.00    +0.000 NA
ATOM      8  C   UNL     1       4.296   5.727  17.460  0.00  0.00    +0.000 A 
ATOM      9  C   UNL     1       3.703   5.404  18.703  0.00  0.00    +0.000 A 
ATOM     10 CL   UNL     1       3.039   6.665  19.635  0.00  0.00    +0.000 Cl
ATOM     11  H   UNL     1       5.194   7.288  14.949  0.00  0.00    +0.000 HD
ENDROOT
BRANCH   5  12
ATOM     12  C   UNL     1       5.918   4.638  14.273  0.00  0.00    +0.000 A 
ATOM     13  C   UNL     1       5.177   3.777  13.448  0.00  0.00    +0.000 A 
ATOM     14  C   UNL     1       5.675   3.356  12.212  0.00  0.00    +0.000 A 
ATOM     15  C   UNL     1       6.946   3.748  11.803  0.00  0.00    +0.000 A 
ATOM     16  C   UNL     1       7.728   4.542  12.642  0.00  0.00    +0.000 A 
ATOM     17  C   UNL     1       7.214   4.977  13.863  0.00  0.00    +0.000 A 
ATOM     18  F   UNL     1       7.986   5.755  14.638  0.00  0.00    +0.000 F 
ENDBRANCH   5  12
BRANCH   1  19
ATOM     19  O   UNL     1       3.029   3.707  20.224  0.00  0.00    +0.000 OA
BRANCH  19  20
ATOM     20  C   UNL     1       2.228   2.519  20.174  0.00  0.00    +0.000 C 
BRANCH  20  22
ATOM     21  O   UNL     1       0.284   2.243  18.765  0.00  0.00    +0.000 OA
ATOM     22  C   UNL     1       0.845   2.865  19.655  0.00  0.00    +0.000 C 
BRANCH  22  23
ATOM     23  O   UNL     1       0.295   3.940  20.262  0.00  0.00    +0.000 OA
ATOM     24  H   UNL     1       0.265   3.805  21.236  0.00  0.00    +0.000 HD
ENDBRANCH  22  23
ENDBRANCH  20  22
ENDBRANCH  19  20
ENDBRANCH   1  19
TORSDOF 5
ENDMDL
MODEL 7
REMARK VINA RESULT:      -7.1      3.224      4.001
REMARK  Name = 
REMARK  5 active torsions:
REMARK  status: ('A' for Active; 'I' for Inactive)
REMARK    1  A    between atoms: C_2  and  O_3
REMARK    2  A    between atoms: C_2  and  C_4
REMARK    3  A    between atoms: C_4  and  O_5
REMARK    4  A    between atoms: O_5  and  C_6
REMARK    5  A    between atoms: C_10  and  C_11
REMARK                            x       y       z     vdW  Elec       q    Type
REMARK                         _______ _______ _______ _____ _____    ______ ____
ROOT
ATOM      1  C   UNL     1       0.948   9.783  19.268  0.00  0.00    +0.000 A 
ATOM      2  C   UNL     1       1.558   9.556  17.999  0.00  0.00    +0.000 A 
ATOM      3  C   UNL     1       2.351   8.435  17.700  0.00  0.00    +0.000 A 
ATOM      4  C   UNL     1       2.428   7.531  18.761  0.00  0.00    +0.000 A 
ATOM      5  C   UNL     1       3.151   6.358  18.771  0.00  0.00    +0.000 A 
ATOM      6  N   UNL     1       2.961   5.882  20.048  0.00  0.00    +0.000 N 
ATOM      7  N   UNL     1       2.132   6.618  20.816  0.00  0.00    +0.000 NA
ATOM      8  C   UNL     1       1.805   7.682  20.062  0.00  0.00    +0.000 A 
ATOM      9  C   UNL     1       1.031   8.837  20.317  0.00  0.00    +0.000 A 
ATOM     10 CL   UNL     1       0.335   9.022  21.861  0.00  0.00    +0.000 Cl
ATOM     11  H   UNL     1       3.379   5.052  20.457  0.00  0.00    +0.000 HD
ENDROOT
BRANCH   5  12
ATOM     12  C   UNL     1       4.019   5.713  17.782  0.00  0.00    +0.000 A 
ATOM     13  C   UNL     1       3.737   4.418  17.321  0.00  0.00    +0.000 A 
ATOM     14  C   UNL     1       4.454   3.857  16.261  0.00  0.00    +0.000 A 
ATOM     15  C   UNL     1       5.500   4.564  15.677  0.00  0.00    +0.000 A 
ATOM     16  C   UNL     1       5.846   5.821  16.171  0.00  0.00    +0.000 A 
ATOM     17  C   UNL     1       5.110   6.384  17.213  0.00  0.00    +0.000 A 
ATOM     18  F   UNL     1       5.458   7.604  17.652  0.00  0.00    +0.000 F 
ENDBRANCH   5  12
BRANCH   1  19
ATOM     19  O   UNL     1       0.244  10.939  19.534  0.00  0.00    +0.000 OA
BRANCH  19  20
ATOM     20  C   UNL     1      -1.046  11.017  18.913  0.00  0.00    +0.000 C 
BRANCH  20  22
ATOM     21  O   UNL     1      -0.625  13.349  18.436  0.00  0.00    +0.000 OA
ATOM     22  C   UNL     1      -1.135  12.291  18.095  0.00  0.00    +0.000 C 
BRANCH  22  23
ATOM     23  O   UNL     1      -1.848  12.150  16.955  0.00  0.00    +0.000 OA
ATOM     24  H   UNL     1      -1.866  11.206  16.678  0.00  0.00    +0.000 HD
ENDBRANCH  22  23
ENDBRANCH  20  22
ENDBRANCH  19  20
ENDBRANCH   1  19
TORSDOF 5
ENDMDL
MODEL 8
REMARK VINA RESULT:      -7.0      2.985      3.688
REMARK  Name = 
REMARK  5 active torsions:
REMARK  status: ('A' for Active; 'I' for Inactive)
REMARK    1  A    between atoms: C_2  and  O_3
REMARK    2  A    between atoms: C_2  and  C_4
REMARK    3  A    between atoms: C_4  and  O_5
REMARK    4  A    between atoms: O_5  and  C_6
REMARK    5  A    between atoms: C_10  and  C_11
REMARK                            x       y       z     vdW  Elec       q    Type
REMARK                         _______ _______ _______ _____ _____    ______ ____
ROOT
ATOM      1  C   UNL     1       2.434   4.276  18.705  0.00  0.00    +0.000 A 
ATOM      2  C   UNL     1       2.873   3.262  17.803  0.00  0.00    +0.000 A 
ATOM      3  C   UNL     1       3.777   3.489  16.750  0.00  0.00    +0.000 A 
ATOM      4  C   UNL     1       4.251   4.801  16.720  0.00  0.00    +0.000 A 
ATOM      5  C   UNL     1       5.124   5.323  15.791  0.00  0.00    +0.000 A 
ATOM      6  N   UNL     1       5.213   6.648  16.150  0.00  0.00    +0.000 N 
ATOM      7  N   UNL     1       4.523   6.988  17.259  0.00  0.00    +0.000 NA
ATOM      8  C   UNL     1       3.875   5.869  17.627  0.00  0.00    +0.000 A 
ATOM      9  C   UNL     1       2.949   5.593  18.659  0.00  0.00    +0.000 A 
ATOM     10 CL   UNL     1       2.486   6.864  19.694  0.00  0.00    +0.000 Cl
ATOM     11  H   UNL     1       5.731   7.377  15.669  0.00  0.00    +0.000 HD
ENDROOT
BRANCH   5  12
ATOM     12  C   UNL     1       5.789   4.751  14.616  0.00  0.00    +0.000 A 
ATOM     13  C   UNL     1       5.080   3.933  13.723  0.00  0.00    +0.000 A 
ATOM     14  C   UNL     1       5.649   3.519  12.516  0.00  0.00    +0.000 A 
ATOM     15  C   UNL     1       6.958   3.876  12.205  0.00  0.00    +0.000 A 
ATOM     16  C   UNL     1       7.704   4.626  13.114  0.00  0.00    +0.000 A 
ATOM     17  C   UNL     1       7.120   5.054  14.305  0.00  0.00    +0.000 A 
ATOM     18  F   UNL     1       7.862   5.790  15.149  0.00  0.00    +0.000 F 
ENDBRANCH   5  12
BRANCH   1  19
ATOM     19  O   UNL     1       1.485   4.019  19.673  0.00  0.00    +0.000 OA
BRANCH  19  20
ATOM     20  C   UNL     1       1.412   2.652  20.099  0.00  0.00    +0.000 C 
BRANCH  20  22
ATOM     21  O   UNL     1       1.159   2.559  22.501  0.00  0.00    +0.000 OA
ATOM     22  C   UNL     1       1.902   2.543  21.531  0.00  0.00    +0.000 C 
BRANCH  22  23
ATOM     23  O   UNL     1       3.246   2.441  21.634  0.00  0.00    +0.000 OA
ATOM     24  H   UNL     1       3.685   3.075  21.024  0.00  0.00    +0.000 HD
ENDBRANCH  22  23
ENDBRANCH  20  22
ENDBRANCH  19  20
ENDBRANCH   1  19
TORSDOF 5
ENDMDL
MODEL 9
REMARK VINA RESULT:      -7.0      2.539      3.331
REMARK  Name = 
REMARK  5 active torsions:
REMARK  status: ('A' for Active; 'I' for Inactive)
REMARK    1  A    between atoms: C_2  and  O_3
REMARK    2  A    between atoms: C_2  and  C_4
REMARK    3  A    between atoms: C_4  and  O_5
REMARK    4  A    between atoms: O_5  and  C_6
REMARK    5  A    between atoms: C_10  and  C_11
REMARK                            x       y       z     vdW  Elec       q    Type
REMARK                         _______ _______ _______ _____ _____    ______ ____
ROOT
ATOM      1  C   UNL     1       1.256   9.355  19.180  0.00  0.00    +0.000 A 
ATOM      2  C   UNL     1       2.074   9.156  18.029  0.00  0.00    +0.000 A 
ATOM      3  C   UNL     1       2.899   8.034  17.839  0.00  0.00    +0.000 A 
ATOM      4  C   UNL     1       2.786   7.101  18.871  0.00  0.00    +0.000 A 
ATOM      5  C   UNL     1       3.488   5.920  18.972  0.00  0.00    +0.000 A 
ATOM      6  N   UNL     1       3.077   5.411  20.182  0.00  0.00    +0.000 N 
ATOM      7  N   UNL     1       2.133   6.136  20.817  0.00  0.00    +0.000 NA
ATOM      8  C   UNL     1       1.948   7.224  20.048  0.00  0.00    +0.000 A 
ATOM      9  C   UNL     1       1.149   8.380  20.200  0.00  0.00    +0.000 A 
ATOM     10 CL   UNL     1       0.199   8.531  21.604  0.00  0.00    +0.000 Cl
ATOM     11  H   UNL     1       3.412   4.565  20.633  0.00  0.00    +0.000 HD
ENDROOT
BRANCH   5  12
ATOM     12  C   UNL     1       4.510   5.292  18.129  0.00  0.00    +0.000 A 
ATOM     13  C   UNL     1       4.177   4.780  16.865  0.00  0.00    +0.000 A 
ATOM     14  C   UNL     1       5.165   4.333  15.984  0.00  0.00    +0.000 A 
ATOM     15  C   UNL     1       6.501   4.342  16.374  0.00  0.00    +0.000 A 
ATOM     16  C   UNL     1       6.845   4.776  17.654  0.00  0.00    +0.000 A 
ATOM     17  C   UNL     1       5.855   5.243  18.518  0.00  0.00    +0.000 A 
ATOM     18  F   UNL     1       6.223   5.671  19.736  0.00  0.00    +0.000 F 
ENDBRANCH   5  12
BRANCH   1  19
ATOM     19  O   UNL     1       0.524  10.512  19.354  0.00  0.00    +0.000 OA
BRANCH  19  20
ATOM     20  C   UNL     1       1.288  11.723  19.302  0.00  0.00    +0.000 C 
BRANCH  20  22
ATOM     21  O   UNL     1       2.370  12.996  21.049  0.00  0.00    +0.000 OA
ATOM     22  C   UNL     1       1.437  12.286  20.703  0.00  0.00    +0.000 C 
BRANCH  22  23
ATOM     23  O   UNL     1       0.443  11.915  21.541  0.00  0.00    +0.000 OA
ATOM     24  H   UNL     1       0.647  12.200  22.460  0.00  0.00    +0.000 HD
ENDBRANCH  22  23
ENDBRANCH  20  22
ENDBRANCH  19  20
ENDBRANCH   1  19
TORSDOF 5
ENDMDL
