MODEL 1
REMARK VINA RESULT:      -8.3      0.000      0.000
REMARK  Name = 
REMARK  5 active torsions:
REMARK  status: ('A' for Active; 'I' for Inactive)
REMARK    1  A    between atoms: C_5  and  C_6
REMARK    2  A    between atoms: N_12  and  O_13
REMARK    3  A    between atoms: O_13  and  C_14
REMARK    4  A    between atoms: C_14  and  C_15
REMARK    5  A    between atoms: C_18  and  C_19
REMARK                            x       y       z     vdW  Elec       q    Type
REMARK                         _______ _______ _______ _____ _____    ______ ____
ROOT
ATOM      1  C   UNL     1       5.627   5.316  16.878  0.00  0.00    +0.000 C 
ATOM      2  C   UNL     1       6.218   4.497  18.051  0.00  0.00    +0.000 C 
ATOM      3  C   UNL     1       7.692   4.854  18.314  0.00  0.00    +0.000 C 
ATOM      4  N   UNL     1       7.818   6.286  18.638  0.00  0.00    +0.000 NA
ATOM      5  C   UNL     1       7.353   7.127  17.528  0.00  0.00    +0.000 C 
ATOM      6  C   UNL     1       5.925   6.770  17.189  0.00  0.00    +0.000 C 
ATOM      7  N   UNL     1       5.006   7.674  17.228  0.00  0.00    +0.000 NA
ATOM      8  H   UNL     1       8.827   6.501  18.819  0.00  0.00    +0.000 HD
ENDROOT
BRANCH   1  13
ATOM      9  F   UNL     1       7.141   3.858  11.571  0.00  0.00    +0.000 F 
ATOM     10  C   UNL     1       6.812   4.176  12.848  0.00  0.00    +0.000 A 
ATOM     11  C   UNL     1       5.637   3.679  13.414  0.00  0.00    +0.000 A 
ATOM     12  C   UNL     1       5.281   4.029  14.721  0.00  0.00    +0.000 A 
ATOM     13  C   UNL     1       6.100   4.883  15.488  0.00  0.00    +0.000 A 
ATOM     14  C   UNL     1       7.290   5.371  14.894  0.00  0.00    +0.000 A 
ATOM     15  C   UNL     1       7.640   5.014  13.591  0.00  0.00    +0.000 A 
ENDBRANCH   1  13
BRANCH   7  16
ATOM     16  O   UNL     1       3.745   7.405  16.939  0.00  0.00    +0.000 OA
BRANCH  16  17
ATOM     17  C   UNL     1       2.763   7.596  17.880  0.00  0.00    +0.000 C 
BRANCH  17  18
ATOM     18  C   UNL     1       2.492   6.319  18.630  0.00  0.00    +0.000 A 
ATOM     19  C   UNL     1       2.237   5.130  17.930  0.00  0.00    +0.000 A 
ATOM     20  C   UNL     1       2.007   3.937  18.619  0.00  0.00    +0.000 A 
ATOM     21  C   UNL     1       2.029   3.909  20.025  0.00  0.00    +0.000 A 
ATOM     22  C   UNL     1       2.281   5.103  20.725  0.00  0.00    +0.000 A 
ATOM     23  C   UNL     1       2.509   6.298  20.033  0.00  0.00    +0.000 A 
BRANCH  21  24
ATOM     24  C   UNL     1       1.794   2.631  20.790  0.00  0.00    +0.000 C 
ATOM     25  F   UNL     1       0.657   2.705  21.575  0.00  0.00    +0.000 F 
ATOM     26  F   UNL     1       1.645   1.582  19.900  0.00  0.00    +0.000 F 
ATOM     27  F   UNL     1       2.878   2.377  21.609  0.00  0.00    +0.000 F 
ENDBRANCH  21  24
ENDBRANCH  17  18
ENDBRANCH  16  17
ENDBRANCH   7  16
TORSDOF 5
ENDMDL
MODEL 2
REMARK VINA RESULT:      -8.2      0.198      1.228
REMARK  Name = 
REMARK  5 active torsions:
REMARK  status: ('A' for Active; 'I' for Inactive)
REMARK    1  A    between atoms: C_5  and  C_6
REMARK    2  A    between atoms: N_12  and  O_13
REMARK    3  A    between atoms: O_13  and  C_14
REMARK    4  A    between atoms: C_14  and  C_15
REMARK    5  A    between atoms: C_18  and  C_19
REMARK                            x       y       z     vdW  Elec       q    Type
REMARK                         _______ _______ _______ _____ _____    ______ ____
ROOT
ATOM      1  C   UNL     1       5.506   5.265  16.673  0.00  0.00    +0.000 C 
ATOM      2  C   UNL     1       6.078   4.352  17.785  0.00  0.00    +0.000 C 
ATOM      3  C   UNL     1       7.566   4.638  18.053  0.00  0.00    +0.000 C 
ATOM      4  N   UNL     1       7.748   6.042  18.465  0.00  0.00    +0.000 NA
ATOM      5  C   UNL     1       7.304   6.968  17.415  0.00  0.00    +0.000 C 
ATOM      6  C   UNL     1       5.861   6.684  17.071  0.00  0.00    +0.000 C 
ATOM      7  N   UNL     1       4.975   7.617  17.177  0.00  0.00    +0.000 NA
ATOM      8  H   UNL     1       8.766   6.208  18.646  0.00  0.00    +0.000 HD
ENDROOT
BRANCH   1  13
ATOM      9  F   UNL     1       7.412   3.774  11.504  0.00  0.00    +0.000 F 
ATOM     10  C   UNL     1       6.929   4.155  12.713  0.00  0.00    +0.000 A 
ATOM     11  C   UNL     1       7.639   5.066  13.496  0.00  0.00    +0.000 A 
ATOM     12  C   UNL     1       7.156   5.437  14.756  0.00  0.00    +0.000 A 
ATOM     13  C   UNL     1       5.949   4.904  15.253  0.00  0.00    +0.000 A 
ATOM     14  C   UNL     1       5.244   3.985  14.438  0.00  0.00    +0.000 A 
ATOM     15  C   UNL     1       5.730   3.622  13.181  0.00  0.00    +0.000 A 
ENDBRANCH   1  13
BRANCH   7  16
ATOM     16  O   UNL     1       3.704   7.413  16.888  0.00  0.00    +0.000 OA
BRANCH  16  17
ATOM     17  C   UNL     1       2.736   7.597  17.845  0.00  0.00    +0.000 C 
BRANCH  17  18
ATOM     18  C   UNL     1       2.478   6.315  18.591  0.00  0.00    +0.000 A 
ATOM     19  C   UNL     1       2.068   5.166  17.898  0.00  0.00    +0.000 A 
ATOM     20  C   UNL     1       1.848   3.967  18.580  0.00  0.00    +0.000 A 
ATOM     21  C   UNL     1       2.037   3.893  19.972  0.00  0.00    +0.000 A 
ATOM     22  C   UNL     1       2.444   5.046  20.665  0.00  0.00    +0.000 A 
ATOM     23  C   UNL     1       2.662   6.248  19.981  0.00  0.00    +0.000 A 
BRANCH  21  24
ATOM     24  C   UNL     1       1.816   2.607  20.728  0.00  0.00    +0.000 C 
ATOM     25  F   UNL     1       1.619   1.536  19.873  0.00  0.00    +0.000 F 
ATOM     26  F   UNL     1       2.921   2.340  21.516  0.00  0.00    +0.000 F 
ATOM     27  F   UNL     1       0.703   2.732  21.538  0.00  0.00    +0.000 F 
ENDBRANCH  21  24
ENDBRANCH  17  18
ENDBRANCH  16  17
ENDBRANCH   7  16
TORSDOF 5
ENDMDL
MODEL 3
REMARK VINA RESULT:      -8.2      0.192      1.559
REMARK  Name = 
REMARK  5 active torsions:
REMARK  status: ('A' for Active; 'I' for Inactive)
REMARK    1  A    between atoms: C_5  and  C_6
REMARK    2  A    between atoms: N_12  and  O_13
REMARK    3  A    between atoms: O_13  and  C_14
REMARK    4  A    between atoms: C_14  and  C_15
REMARK    5  A    between atoms: C_18  and  C_19
REMARK                            x       y       z     vdW  Elec       q    Type
REMARK                         _______ _______ _______ _____ _____    ______ ____
ROOT
ATOM      1  C   UNL     1       5.520   5.253  16.680  0.00  0.00    +0.000 C 
ATOM      2  C   UNL     1       6.114   4.348  17.786  0.00  0.00    +0.000 C 
ATOM      3  C   UNL     1       7.601   4.655  18.041  0.00  0.00    +0.000 C 
ATOM      4  N   UNL     1       7.767   6.060  18.451  0.00  0.00    +0.000 NA
ATOM      5  C   UNL     1       7.301   6.980  17.406  0.00  0.00    +0.000 C 
ATOM      6  C   UNL     1       5.859   6.677  17.075  0.00  0.00    +0.000 C 
ATOM      7  N   UNL     1       4.961   7.598  17.190  0.00  0.00    +0.000 NA
ATOM      8  H   UNL     1       8.784   6.240  18.624  0.00  0.00    +0.000 HD
ENDROOT
BRANCH   1  13
ATOM      9  F   UNL     1       7.397   3.786  11.493  0.00  0.00    +0.000 F 
ATOM     10  C   UNL     1       6.921   4.161  12.707  0.00  0.00    +0.000 A 
ATOM     11  C   UNL     1       7.636   5.067  13.491  0.00  0.00    +0.000 A 
ATOM     12  C   UNL     1       7.160   5.433  14.755  0.00  0.00    +0.000 A 
ATOM     13  C   UNL     1       5.955   4.899  15.256  0.00  0.00    +0.000 A 
ATOM     14  C   UNL     1       5.244   3.985  14.440  0.00  0.00    +0.000 A 
ATOM     15  C   UNL     1       5.723   3.628  13.178  0.00  0.00    +0.000 A 
ENDBRANCH   1  13
BRANCH   7  16
ATOM     16  O   UNL     1       3.690   7.376  16.911  0.00  0.00    +0.000 OA
BRANCH  16  17
ATOM     17  C   UNL     1       2.728   7.555  17.876  0.00  0.00    +0.000 C 
BRANCH  17  18
ATOM     18  C   UNL     1       2.506   6.280  18.644  0.00  0.00    +0.000 A 
ATOM     19  C   UNL     1       2.404   6.307  20.044  0.00  0.00    +0.000 A 
ATOM     20  C   UNL     1       2.176   5.132  20.762  0.00  0.00    +0.000 A 
ATOM     21  C   UNL     1       2.042   3.902  20.093  0.00  0.00    +0.000 A 
ATOM     22  C   UNL     1       2.149   3.875  18.691  0.00  0.00    +0.000 A 
ATOM     23  C   UNL     1       2.380   5.054  17.972  0.00  0.00    +0.000 A 
BRANCH  21  24
ATOM     24  C   UNL     1       1.785   2.620  20.846  0.00  0.00    +0.000 C 
ATOM     25  F   UNL     1       2.860   2.271  21.645  0.00  0.00    +0.000 F 
ATOM     26  F   UNL     1       0.672   2.776  21.652  0.00  0.00    +0.000 F 
ATOM     27  F   UNL     1       1.553   1.595  19.948  0.00  0.00    +0.000 F 
ENDBRANCH  21  24
ENDBRANCH  17  18
ENDBRANCH  16  17
ENDBRANCH   7  16
TORSDOF 5
ENDMDL
MODEL 4
REMARK VINA RESULT:      -8.1      3.308      5.427
REMARK  Name = 
REMARK  5 active torsions:
REMARK  status: ('A' for Active; 'I' for Inactive)
REMARK    1  A    between atoms: C_5  and  C_6
REMARK    2  A    between atoms: N_12  and  O_13
REMARK    3  A    between atoms: O_13  and  C_14
REMARK    4  A    between atoms: C_14  and  C_15
REMARK    5  A    between atoms: C_18  and  C_19
REMARK                            x       y       z     vdW  Elec       q    Type
REMARK                         _______ _______ _______ _____ _____    ______ ____
ROOT
ATOM      1  C   UNL     1       4.444   5.762  18.568  0.00  0.00    +0.000 C 
ATOM      2  C   UNL     1       5.871   5.313  18.969  0.00  0.00    +0.000 C 
ATOM      3  C   UNL     1       6.507   4.406  17.900  0.00  0.00    +0.000 C 
ATOM      4  N   UNL     1       6.588   5.117  16.612  0.00  0.00    +0.000 NA
ATOM      5  C   UNL     1       5.255   5.498  16.128  0.00  0.00    +0.000 C 
ATOM      6  C   UNL     1       4.562   6.342  17.172  0.00  0.00    +0.000 C 
ATOM      7  N   UNL     1       4.150   7.528  16.876  0.00  0.00    +0.000 NA
ATOM      8  H   UNL     1       7.029   4.482  15.907  0.00  0.00    +0.000 HD
ENDROOT
BRANCH   1  13
ATOM      9  F   UNL     1       0.486   1.652  18.699  0.00  0.00    +0.000 F 
ATOM     10  C   UNL     1       1.414   2.641  18.709  0.00  0.00    +0.000 A 
ATOM     11  C   UNL     1       1.206   3.804  17.965  0.00  0.00    +0.000 A 
ATOM     12  C   UNL     1       2.176   4.813  17.951  0.00  0.00    +0.000 A 
ATOM     13  C   UNL     1       3.371   4.677  18.686  0.00  0.00    +0.000 A 
ATOM     14  C   UNL     1       3.557   3.490  19.437  0.00  0.00    +0.000 A 
ATOM     15  C   UNL     1       2.584   2.490  19.449  0.00  0.00    +0.000 A 
ENDBRANCH   1  13
BRANCH   7  16
ATOM     16  O   UNL     1       3.540   8.299  17.758  0.00  0.00    +0.000 OA
BRANCH  16  17
ATOM     17  C   UNL     1       2.191   8.536  17.655  0.00  0.00    +0.000 C 
BRANCH  17  18
ATOM     18  C   UNL     1       1.600   8.829  19.009  0.00  0.00    +0.000 A 
ATOM     19  C   UNL     1       0.867  10.007  19.219  0.00  0.00    +0.000 A 
ATOM     20  C   UNL     1       0.297  10.275  20.466  0.00  0.00    +0.000 A 
ATOM     21  C   UNL     1       0.449   9.367  21.529  0.00  0.00    +0.000 A 
ATOM     22  C   UNL     1       1.187   8.189  21.318  0.00  0.00    +0.000 A 
ATOM     23  C   UNL     1       1.760   7.923  20.068  0.00  0.00    +0.000 A 
BRANCH  21  24
ATOM     24  C   UNL     1      -0.166   9.629  22.881  0.00  0.00    +0.000 C 
ATOM     25  F   UNL     1      -0.659  10.919  22.979  0.00  0.00    +0.000 F 
ATOM     26  F   UNL     1      -1.209   8.745  23.093  0.00  0.00    +0.000 F 
ATOM     27  F   UNL     1       0.787   9.447  23.866  0.00  0.00    +0.000 F 
ENDBRANCH  21  24
ENDBRANCH  17  18
ENDBRANCH  16  17
ENDBRANCH   7  16
TORSDOF 5
ENDMDL
MODEL 5
REMARK VINA RESULT:      -8.1      4.016      7.677
REMARK  Name = 
REMARK  5 active torsions:
REMARK  status: ('A' for Active; 'I' for Inactive)
REMARK    1  A    between atoms: C_5  and  C_6
REMARK    2  A    between atoms: N_12  and  O_13
REMARK    3  A    between atoms: O_13  and  C_14
REMARK    4  A    between atoms: C_14  and  C_15
REMARK    5  A    between atoms: C_18  and  C_19
REMARK                            x       y       z     vdW  Elec       q    Type
REMARK                         _______ _______ _______ _____ _____    ______ ____
ROOT
ATOM      1  C   UNL     1       0.148  10.078  18.829  0.00  0.00    +0.000 C 
ATOM      2  C   UNL     1      -0.929  11.036  18.265  0.00  0.00    +0.000 C 
ATOM      3  C   UNL     1      -0.622  12.506  18.601  0.00  0.00    +0.000 C 
ATOM      4  N   UNL     1       0.685  12.894  18.040  0.00  0.00    +0.000 NA
ATOM      5  C   UNL     1       1.770  12.078  18.600  0.00  0.00    +0.000 C 
ATOM      6  C   UNL     1       1.482  10.617  18.349  0.00  0.00    +0.000 C 
ATOM      7  N   UNL     1       2.329   9.893  17.699  0.00  0.00    +0.000 NA
ATOM      8  H   UNL     1       0.866  13.897  18.277  0.00  0.00    +0.000 HD
ENDROOT
BRANCH   1  13
ATOM      9  F   UNL     1       0.222   9.399  24.496  0.00  0.00    +0.000 F 
ATOM     10  C   UNL     1       0.167   9.536  23.148  0.00  0.00    +0.000 A 
ATOM     11  C   UNL     1       1.024   8.795  22.332  0.00  0.00    +0.000 A 
ATOM     12  C   UNL     1       0.988   8.957  20.943  0.00  0.00    +0.000 A 
ATOM     13  C   UNL     1       0.089   9.864  20.344  0.00  0.00    +0.000 A 
ATOM     14  C   UNL     1      -0.774  10.601  21.192  0.00  0.00    +0.000 A 
ATOM     15  C   UNL     1      -0.735  10.431  22.577  0.00  0.00    +0.000 A 
ENDBRANCH   1  13
BRANCH   7  16
ATOM     16  O   UNL     1       2.117   8.612  17.458  0.00  0.00    +0.000 OA
BRANCH  16  17
ATOM     17  C   UNL     1       3.157   7.716  17.509  0.00  0.00    +0.000 C 
BRANCH  17  18
ATOM     18  C   UNL     1       2.761   6.488  18.284  0.00  0.00    +0.000 A 
ATOM     19  C   UNL     1       2.541   5.273  17.619  0.00  0.00    +0.000 A 
ATOM     20  C   UNL     1       2.195   4.124  18.334  0.00  0.00    +0.000 A 
ATOM     21  C   UNL     1       2.065   4.168  19.734  0.00  0.00    +0.000 A 
ATOM     22  C   UNL     1       2.282   5.388  20.399  0.00  0.00    +0.000 A 
ATOM     23  C   UNL     1       2.626   6.539  19.681  0.00  0.00    +0.000 A 
BRANCH  21  24
ATOM     24  C   UNL     1       1.702   2.939  20.529  0.00  0.00    +0.000 C 
ATOM     25  F   UNL     1       1.942   1.777  19.815  0.00  0.00    +0.000 F 
ATOM     26  F   UNL     1       2.455   2.902  21.689  0.00  0.00    +0.000 F 
ATOM     27  F   UNL     1       0.361   2.982  20.862  0.00  0.00    +0.000 F 
ENDBRANCH  21  24
ENDBRANCH  17  18
ENDBRANCH  16  17
ENDBRANCH   7  16
TORSDOF 5
ENDMDL
MODEL 6
REMARK VINA RESULT:      -8.1      3.399      7.376
REMARK  Name = 
REMARK  5 active torsions:
REMARK  status: ('A' for Active; 'I' for Inactive)
REMARK    1  A    between atoms: C_5  and  C_6
REMARK    2  A    between atoms: N_12  and  O_13
REMARK    3  A    between atoms: O_13  and  C_14
REMARK    4  A    between atoms: C_14  and  C_15
REMARK    5  A    between atoms: C_18  and  C_19
REMARK                            x       y       z     vdW  Elec       q    Type
REMARK                         _______ _______ _______ _____ _____    ______ ____
ROOT
ATOM      1  C   UNL     1       3.052   5.076  19.868  0.00  0.00    +0.000 C 
ATOM      2  C   UNL     1       2.229   4.386  20.981  0.00  0.00    +0.000 C 
ATOM      3  C   UNL     1       0.846   3.935  20.477  0.00  0.00    +0.000 C 
ATOM      4  N   UNL     1       0.997   2.989  19.357  0.00  0.00    +0.000 NA
ATOM      5  C   UNL     1       1.698   3.610  18.225  0.00  0.00    +0.000 C 
ATOM      6  C   UNL     1       3.041   4.126  18.686  0.00  0.00    +0.000 C 
ATOM      7  N   UNL     1       4.123   3.713  18.117  0.00  0.00    +0.000 NA
ATOM      8  H   UNL     1       0.045   2.694  19.037  0.00  0.00    +0.000 HD
ENDROOT
BRANCH   1  13
ATOM      9  F   UNL     1       1.140  10.230  18.330  0.00  0.00    +0.000 F 
ATOM     10  C   UNL     1       1.627   9.025  18.718  0.00  0.00    +0.000 A 
ATOM     11  C   UNL     1       2.345   8.236  17.819  0.00  0.00    +0.000 A 
ATOM     12  C   UNL     1       2.823   6.980  18.209  0.00  0.00    +0.000 A 
ATOM     13  C   UNL     1       2.593   6.493  19.512  0.00  0.00    +0.000 A 
ATOM     14  C   UNL     1       1.866   7.313  20.409  0.00  0.00    +0.000 A 
ATOM     15  C   UNL     1       1.395   8.566  20.013  0.00  0.00    +0.000 A 
ENDBRANCH   1  13
BRANCH   7  16
ATOM     16  O   UNL     1       5.316   4.138  18.488  0.00  0.00    +0.000 OA
BRANCH  16  17
ATOM     17  C   UNL     1       5.938   5.149  17.798  0.00  0.00    +0.000 C 
BRANCH  17  18
ATOM     18  C   UNL     1       6.064   4.796  16.340  0.00  0.00    +0.000 A 
ATOM     19  C   UNL     1       7.262   5.045  15.654  0.00  0.00    +0.000 A 
ATOM     20  C   UNL     1       7.394   4.700  14.307  0.00  0.00    +0.000 A 
ATOM     21  C   UNL     1       6.328   4.095  13.618  0.00  0.00    +0.000 A 
ATOM     22  C   UNL     1       5.126   3.849  14.306  0.00  0.00    +0.000 A 
ATOM     23  C   UNL     1       4.994   4.198  15.655  0.00  0.00    +0.000 A 
BRANCH  21  24
ATOM     24  C   UNL     1       6.450   3.703  12.167  0.00  0.00    +0.000 C 
ATOM     25  F   UNL     1       6.966   2.426  12.022  0.00  0.00    +0.000 F 
ATOM     26  F   UNL     1       5.202   3.741  11.572  0.00  0.00    +0.000 F 
ATOM     27  F   UNL     1       7.287   4.591  11.518  0.00  0.00    +0.000 F 
ENDBRANCH  21  24
ENDBRANCH  17  18
ENDBRANCH  16  17
ENDBRANCH   7  16
TORSDOF 5
ENDMDL
MODEL 7
REMARK VINA RESULT:      -8.1      4.986      6.560
REMARK  Name = 
REMARK  5 active torsions:
REMARK  status: ('A' for Active; 'I' for Inactive)
REMARK    1  A    between atoms: C_5  and  C_6
REMARK    2  A    between atoms: N_12  and  O_13
REMARK    3  A    between atoms: O_13  and  C_14
REMARK    4  A    between atoms: C_14  and  C_15
REMARK    5  A    between atoms: C_18  and  C_19
REMARK                            x       y       z     vdW  Elec       q    Type
REMARK                         _______ _______ _______ _____ _____    ______ ____
ROOT
ATOM      1  C   UNL     1       2.446   5.075  18.574  0.00  0.00    +0.000 C 
ATOM      2  C   UNL     1       1.477   4.156  17.793  0.00  0.00    +0.000 C 
ATOM      3  C   UNL     1       1.471   2.721  18.351  0.00  0.00    +0.000 C 
ATOM      4  N   UNL     1       1.064   2.729  19.768  0.00  0.00    +0.000 NA
ATOM      5  C   UNL     1       1.996   3.516  20.586  0.00  0.00    +0.000 C 
ATOM      6  C   UNL     1       2.083   4.921  20.038  0.00  0.00    +0.000 C 
ATOM      7  N   UNL     1       1.798   5.928  20.793  0.00  0.00    +0.000 NA
ATOM      8  H   UNL     1       1.063   1.743  20.120  0.00  0.00    +0.000 HD
ENDROOT
BRANCH   1  13
ATOM      9  F   UNL     1       7.965   4.402  17.281  0.00  0.00    +0.000 F 
ATOM     10  C   UNL     1       6.656   4.526  17.614  0.00  0.00    +0.000 A 
ATOM     11  C   UNL     1       5.663   4.165  16.702  0.00  0.00    +0.000 A 
ATOM     12  C   UNL     1       4.313   4.319  17.033  0.00  0.00    +0.000 A 
ATOM     13  C   UNL     1       3.931   4.835  18.289  0.00  0.00    +0.000 A 
ATOM     14  C   UNL     1       4.956   5.190  19.200  0.00  0.00    +0.000 A 
ATOM     15  C   UNL     1       6.301   5.030  18.863  0.00  0.00    +0.000 A 
ENDBRANCH   1  13
BRANCH   7  16
ATOM     16  O   UNL     1       1.862   7.172  20.354  0.00  0.00    +0.000 OA
BRANCH  16  17
ATOM     17  C   UNL     1       1.474   8.213  21.163  0.00  0.00    +0.000 C 
BRANCH  17  18
ATOM     18  C   UNL     1       0.685   9.227  20.380  0.00  0.00    +0.000 A 
ATOM     19  C   UNL     1       0.829   9.310  18.986  0.00  0.00    +0.000 A 
ATOM     20  C   UNL     1       0.084  10.234  18.250  0.00  0.00    +0.000 A 
ATOM     21  C   UNL     1      -0.823  11.094  18.894  0.00  0.00    +0.000 A 
ATOM     22  C   UNL     1      -0.963  11.013  20.291  0.00  0.00    +0.000 A 
ATOM     23  C   UNL     1      -0.214  10.088  21.028  0.00  0.00    +0.000 A 
BRANCH  21  24
ATOM     24  C   UNL     1      -1.646  12.093  18.119  0.00  0.00    +0.000 C 
ATOM     25  F   UNL     1      -1.974  11.620  16.860  0.00  0.00    +0.000 F 
ATOM     26  F   UNL     1      -2.817  12.357  18.806  0.00  0.00    +0.000 F 
ATOM     27  F   UNL     1      -0.932  13.268  17.975  0.00  0.00    +0.000 F 
ENDBRANCH  21  24
ENDBRANCH  17  18
ENDBRANCH  16  17
ENDBRANCH   7  16
TORSDOF 5
ENDMDL
MODEL 8
REMARK VINA RESULT:      -8.1      3.195      5.217
REMARK  Name = 
REMARK  5 active torsions:
REMARK  status: ('A' for Active; 'I' for Inactive)
REMARK    1  A    between atoms: C_5  and  C_6
REMARK    2  A    between atoms: N_12  and  O_13
REMARK    3  A    between atoms: O_13  and  C_14
REMARK    4  A    between atoms: C_14  and  C_15
REMARK    5  A    between atoms: C_18  and  C_19
REMARK                            x       y       z     vdW  Elec       q    Type
REMARK                         _______ _______ _______ _____ _____    ______ ____
ROOT
ATOM      1  C   UNL     1       5.160   5.545  18.324  0.00  0.00    +0.000 C 
ATOM      2  C   UNL     1       6.660   5.304  18.619  0.00  0.00    +0.000 C 
ATOM      3  C   UNL     1       7.348   4.519  17.488  0.00  0.00    +0.000 C 
ATOM      4  N   UNL     1       7.238   5.257  16.217  0.00  0.00    +0.000 NA
ATOM      5  C   UNL     1       5.834   5.447  15.830  0.00  0.00    +0.000 C 
ATOM      6  C   UNL     1       5.098   6.161  16.940  0.00  0.00    +0.000 C 
ATOM      7  N   UNL     1       4.498   7.279  16.703  0.00  0.00    +0.000 NA
ATOM      8  H   UNL     1       7.718   4.706  15.468  0.00  0.00    +0.000 HD
ENDROOT
BRANCH   1  13
ATOM      9  F   UNL     1       1.747   1.054  19.195  0.00  0.00    +0.000 F 
ATOM     10  C   UNL     1       2.574   2.101  18.952  0.00  0.00    +0.000 A 
ATOM     11  C   UNL     1       3.724   2.279  19.723  0.00  0.00    +0.000 A 
ATOM     12  C   UNL     1       4.563   3.375  19.492  0.00  0.00    +0.000 A 
ATOM     13  C   UNL     1       4.267   4.312  18.480  0.00  0.00    +0.000 A 
ATOM     14  C   UNL     1       3.097   4.107  17.708  0.00  0.00    +0.000 A 
ATOM     15  C   UNL     1       2.267   3.010  17.942  0.00  0.00    +0.000 A 
ENDBRANCH   1  13
BRANCH   7  16
ATOM     16  O   UNL     1       3.844   7.935  17.643  0.00  0.00    +0.000 OA
BRANCH  16  17
ATOM     17  C   UNL     1       2.524   8.271  17.463  0.00  0.00    +0.000 C 
BRANCH  17  18
ATOM     18  C   UNL     1       1.875   8.597  18.782  0.00  0.00    +0.000 A 
ATOM     19  C   UNL     1       1.133   9.779  18.931  0.00  0.00    +0.000 A 
ATOM     20  C   UNL     1       0.510  10.077  20.144  0.00  0.00    +0.000 A 
ATOM     21  C   UNL     1       0.616   9.196  21.236  0.00  0.00    +0.000 A 
ATOM     22  C   UNL     1       1.363   8.014  21.086  0.00  0.00    +0.000 A 
ATOM     23  C   UNL     1       1.989   7.718  19.870  0.00  0.00    +0.000 A 
BRANCH  21  24
ATOM     24  C   UNL     1      -0.057   9.491  22.553  0.00  0.00    +0.000 C 
ATOM     25  F   UNL     1       0.825   9.386  23.615  0.00  0.00    +0.000 F 
ATOM     26  F   UNL     1      -0.566  10.777  22.532  0.00  0.00    +0.000 F 
ATOM     27  F   UNL     1      -1.094   8.599  22.753  0.00  0.00    +0.000 F 
ENDBRANCH  21  24
ENDBRANCH  17  18
ENDBRANCH  16  17
ENDBRANCH   7  16
TORSDOF 5
ENDMDL
MODEL 9
REMARK VINA RESULT:      -8.1      3.842      7.097
REMARK  Name = 
REMARK  5 active torsions:
REMARK  status: ('A' for Active; 'I' for Inactive)
REMARK    1  A    between atoms: C_5  and  C_6
REMARK    2  A    between atoms: N_12  and  O_13
REMARK    3  A    between atoms: O_13  and  C_14
REMARK    4  A    between atoms: C_14  and  C_15
REMARK    5  A    between atoms: C_18  and  C_19
REMARK                            x       y       z     vdW  Elec       q    Type
REMARK                         _______ _______ _______ _____ _____    ______ ____
ROOT
ATOM      1  C   UNL     1       2.951   4.176  19.655  0.00  0.00    +0.000 C 
ATOM      2  C   UNL     1       2.553   3.608  21.038  0.00  0.00    +0.000 C 
ATOM      3  C   UNL     1       1.045   3.314  21.125  0.00  0.00    +0.000 C 
ATOM      4  N   UNL     1       0.656   2.337  20.093  0.00  0.00    +0.000 NA
ATOM      5  C   UNL     1       0.927   2.850  18.744  0.00  0.00    +0.000 C 
ATOM      6  C   UNL     1       2.389   3.212  18.627  0.00  0.00    +0.000 C 
ATOM      7  N   UNL     1       3.121   2.664  17.717  0.00  0.00    +0.000 NA
ATOM      8  H   UNL     1      -0.370   2.150  20.178  0.00  0.00    +0.000 HD
ENDROOT
BRANCH   1  13
ATOM      9  F   UNL     1       1.639   9.686  18.951  0.00  0.00    +0.000 F 
ATOM     10  C   UNL     1       1.913   8.366  19.097  0.00  0.00    +0.000 A 
ATOM     11  C   UNL     1       1.728   7.744  20.333  0.00  0.00    +0.000 A 
ATOM     12  C   UNL     1       2.038   6.389  20.492  0.00  0.00    +0.000 A 
ATOM     13  C   UNL     1       2.537   5.630  19.413  0.00  0.00    +0.000 A 
ATOM     14  C   UNL     1       2.712   6.282  18.168  0.00  0.00    +0.000 A 
ATOM     15  C   UNL     1       2.397   7.634  18.016  0.00  0.00    +0.000 A 
ENDBRANCH   1  13
BRANCH   7  16
ATOM     16  O   UNL     1       4.402   2.952  17.580  0.00  0.00    +0.000 OA
BRANCH  16  17
ATOM     17  C   UNL     1       4.851   3.601  16.455  0.00  0.00    +0.000 C 
BRANCH  17  18
ATOM     18  C   UNL     1       5.657   4.816  16.830  0.00  0.00    +0.000 A 
ATOM     19  C   UNL     1       6.665   4.722  17.802  0.00  0.00    +0.000 A 
ATOM     20  C   UNL     1       7.431   5.840  18.139  0.00  0.00    +0.000 A 
ATOM     21  C   UNL     1       7.206   7.076  17.507  0.00  0.00    +0.000 A 
ATOM     22  C   UNL     1       6.192   7.170  16.537  0.00  0.00    +0.000 A 
ATOM     23  C   UNL     1       5.423   6.049  16.202  0.00  0.00    +0.000 A 
BRANCH  21  24
ATOM     24  C   UNL     1       8.028   8.295  17.847  0.00  0.00    +0.000 C 
ATOM     25  F   UNL     1       7.231   9.403  18.079  0.00  0.00    +0.000 F 
ATOM     26  F   UNL     1       8.773   8.045  18.986  0.00  0.00    +0.000 F 
ATOM     27  F   UNL     1       8.885   8.580  16.801  0.00  0.00    +0.000 F 
ENDBRANCH  21  24
ENDBRANCH  17  18
ENDBRANCH  16  17
ENDBRANCH   7  16
TORSDOF 5
ENDMDL
