MODEL 1
REMARK VINA RESULT:      -7.6      0.000      0.000
REMARK  Name = 
REMARK  1 active torsions:
REMARK  status: ('A' for Active; 'I' for Inactive)
REMARK    1  A    between atoms: C_1  and  C_2
REMARK                            x       y       z     vdW  Elec       q    Type
REMARK                         _______ _______ _______ _____ _____    ______ ____
ROOT
ATOM      1  C   UNL     1       6.685   4.632  14.155  0.00  0.00    +0.000 C 
ATOM      2  C   UNL     1       5.775   5.017  15.284  0.00  0.00    +0.000 C 
ATOM      3  C   UNL     1       5.493   6.282  15.613  0.00  0.00    +0.000 C 
ATOM      4  C   UNL     1       4.602   6.652  16.745  0.00  0.00    +0.000 C 
ATOM      5  N   UNL     1       4.050   5.538  17.502  0.00  0.00    +0.000 N 
ATOM      6  C   UNL     1       3.164   5.842  18.537  0.00  0.00    +0.000 A 
ATOM      7  O   UNL     1       2.895   6.989  18.879  0.00  0.00    +0.000 OA
ATOM      8  C   UNL     1       2.540   4.710  19.254  0.00  0.00    +0.000 A 
ATOM      9  C   UNL     1       1.669   4.948  20.328  0.00  0.00    +0.000 A 
ATOM     10  C   UNL     1       1.101   3.877  21.026  0.00  0.00    +0.000 A 
ATOM     11  C   UNL     1       1.398   2.566  20.660  0.00  0.00    +0.000 A 
ATOM     12  C   UNL     1       2.257   2.329  19.591  0.00  0.00    +0.000 A 
ATOM     13  C   UNL     1       2.822   3.404  18.887  0.00  0.00    +0.000 A 
ATOM     14  C   UNL     1       3.711   3.120  17.757  0.00  0.00    +0.000 A 
ATOM     15  O   UNL     1       3.971   1.950  17.479  0.00  0.00    +0.000 OA
ATOM     16  N   UNL     1       4.219   4.201  17.047  0.00  0.00    +0.000 N 
ATOM     17  C   UNL     1       5.206   3.870  16.040  0.00  0.00    +0.000 C 
ENDROOT
TORSDOF 0
ENDMDL
MODEL 2
REMARK VINA RESULT:      -7.5      1.030      5.037
REMARK  Name = 
REMARK  1 active torsions:
REMARK  status: ('A' for Active; 'I' for Inactive)
REMARK    1  A    between atoms: C_1  and  C_2
REMARK                            x       y       z     vdW  Elec       q    Type
REMARK                         _______ _______ _______ _____ _____    ______ ____
ROOT
ATOM      1  C   UNL     1       1.169   2.830  21.683  0.00  0.00    +0.000 C 
ATOM      2  C   UNL     1       1.836   3.748  20.701  0.00  0.00    +0.000 C 
ATOM      3  C   UNL     1       1.743   5.080  20.748  0.00  0.00    +0.000 C 
ATOM      4  C   UNL     1       2.395   5.980  19.758  0.00  0.00    +0.000 C 
ATOM      5  N   UNL     1       3.148   5.316  18.704  0.00  0.00    +0.000 N 
ATOM      6  C   UNL     1       3.822   6.126  17.789  0.00  0.00    +0.000 A 
ATOM      7  O   UNL     1       3.745   7.351  17.789  0.00  0.00    +0.000 OA
ATOM      8  C   UNL     1       4.652   5.455  16.766  0.00  0.00    +0.000 A 
ATOM      9  C   UNL     1       5.325   6.212  15.795  0.00  0.00    +0.000 A 
ATOM     10  C   UNL     1       6.087   5.575  14.809  0.00  0.00    +0.000 A 
ATOM     11  C   UNL     1       6.181   4.185  14.786  0.00  0.00    +0.000 A 
ATOM     12  C   UNL     1       5.519   3.435  15.752  0.00  0.00    +0.000 A 
ATOM     13  C   UNL     1       4.760   4.074  16.745  0.00  0.00    +0.000 A 
ATOM     14  C   UNL     1       4.086   3.255  17.756  0.00  0.00    +0.000 A 
ATOM     15  O   UNL     1       4.170   2.029  17.688  0.00  0.00    +0.000 OA
ATOM     16  N   UNL     1       3.380   3.914  18.755  0.00  0.00    +0.000 N 
ATOM     17  C   UNL     1       2.614   3.058  19.638  0.00  0.00    +0.000 C 
ENDROOT
TORSDOF 0
ENDMDL
MODEL 3
REMARK VINA RESULT:      -7.1      1.742      1.803
REMARK  Name = 
REMARK  1 active torsions:
REMARK  status: ('A' for Active; 'I' for Inactive)
REMARK    1  A    between atoms: C_1  and  C_2
REMARK                            x       y       z     vdW  Elec       q    Type
REMARK                         _______ _______ _______ _____ _____    ______ ____
ROOT
ATOM      1  C   UNL     1       6.531   4.080  13.657  0.00  0.00    +0.000 C 
ATOM      2  C   UNL     1       6.196   4.206  15.114  0.00  0.00    +0.000 C 
ATOM      3  C   UNL     1       7.063   4.625  16.040  0.00  0.00    +0.000 C 
ATOM      4  C   UNL     1       6.727   4.730  17.486  0.00  0.00    +0.000 C 
ATOM      5  N   UNL     1       5.373   4.332  17.848  0.00  0.00    +0.000 N 
ATOM      6  C   UNL     1       5.000   4.470  19.185  0.00  0.00    +0.000 A 
ATOM      7  O   UNL     1       5.772   4.834  20.066  0.00  0.00    +0.000 OA
ATOM      8  C   UNL     1       3.603   4.142  19.539  0.00  0.00    +0.000 A 
ATOM      9  C   UNL     1       3.174   4.226  20.873  0.00  0.00    +0.000 A 
ATOM     10  C   UNL     1       1.860   3.887  21.213  0.00  0.00    +0.000 A 
ATOM     11  C   UNL     1       0.969   3.465  20.230  0.00  0.00    +0.000 A 
ATOM     12  C   UNL     1       1.391   3.388  18.906  0.00  0.00    +0.000 A 
ATOM     13  C   UNL     1       2.708   3.733  18.564  0.00  0.00    +0.000 A 
ATOM     14  C   UNL     1       3.116   3.655  17.159  0.00  0.00    +0.000 A 
ATOM     15  O   UNL     1       2.310   3.252  16.322  0.00  0.00    +0.000 OA
ATOM     16  N   UNL     1       4.411   4.048  16.840  0.00  0.00    +0.000 N 
ATOM     17  C   UNL     1       4.808   3.810  15.468  0.00  0.00    +0.000 C 
ENDROOT
TORSDOF 0
ENDMDL
MODEL 4
REMARK VINA RESULT:      -6.8      1.366      5.604
REMARK  Name = 
REMARK  1 active torsions:
REMARK  status: ('A' for Active; 'I' for Inactive)
REMARK    1  A    between atoms: C_1  and  C_2
REMARK                            x       y       z     vdW  Elec       q    Type
REMARK                         _______ _______ _______ _____ _____    ______ ____
ROOT
ATOM      1  C   UNL     1       1.006   7.562  21.298  0.00  0.00    +0.000 C 
ATOM      2  C   UNL     1       1.724   6.511  20.504  0.00  0.00    +0.000 C 
ATOM      3  C   UNL     1       1.653   5.203  20.769  0.00  0.00    +0.000 C 
ATOM      4  C   UNL     1       2.383   4.170  19.984  0.00  0.00    +0.000 C 
ATOM      5  N   UNL     1       3.208   4.673  18.895  0.00  0.00    +0.000 N 
ATOM      6  C   UNL     1       3.863   3.733  18.100  0.00  0.00    +0.000 A 
ATOM      7  O   UNL     1       3.837   2.526  18.322  0.00  0.00    +0.000 OA
ATOM      8  C   UNL     1       4.636   4.237  16.945  0.00  0.00    +0.000 A 
ATOM      9  C   UNL     1       5.348   3.345  16.128  0.00  0.00    +0.000 A 
ATOM     10  C   UNL     1       6.104   3.825  15.052  0.00  0.00    +0.000 A 
ATOM     11  C   UNL     1       6.154   5.191  14.787  0.00  0.00    +0.000 A 
ATOM     12  C   UNL     1       5.443   6.076  15.592  0.00  0.00    +0.000 A 
ATOM     13  C   UNL     1       4.680   5.594  16.668  0.00  0.00    +0.000 A 
ATOM     14  C   UNL     1       3.933   6.550  17.488  0.00  0.00    +0.000 A 
ATOM     15  O   UNL     1       4.022   7.752  17.240  0.00  0.00    +0.000 OA
ATOM     16  N   UNL     1       3.148   6.043  18.517  0.00  0.00    +0.000 N 
ATOM     17  C   UNL     1       2.551   7.036  19.386  0.00  0.00    +0.000 C 
ENDROOT
TORSDOF 0
ENDMDL
MODEL 5
REMARK VINA RESULT:      -6.6      2.245      3.336
REMARK  Name = 
REMARK  1 active torsions:
REMARK  status: ('A' for Active; 'I' for Inactive)
REMARK    1  A    between atoms: C_1  and  C_2
REMARK                            x       y       z     vdW  Elec       q    Type
REMARK                         _______ _______ _______ _____ _____    ______ ____
ROOT
ATOM      1  C   UNL     1       7.908   8.237  17.533  0.00  0.00    +0.000 C 
ATOM      2  C   UNL     1       7.177   7.017  18.010  0.00  0.00    +0.000 C 
ATOM      3  C   UNL     1       7.748   6.042  18.723  0.00  0.00    +0.000 C 
ATOM      4  C   UNL     1       7.017   4.827  19.177  0.00  0.00    +0.000 C 
ATOM      5  N   UNL     1       5.617   4.751  18.784  0.00  0.00    +0.000 N 
ATOM      6  C   UNL     1       4.882   3.655  19.239  0.00  0.00    +0.000 A 
ATOM      7  O   UNL     1       5.375   2.732  19.879  0.00  0.00    +0.000 OA
ATOM      8  C   UNL     1       3.442   3.616  18.908  0.00  0.00    +0.000 A 
ATOM      9  C   UNL     1       2.656   2.523  19.304  0.00  0.00    +0.000 A 
ATOM     10  C   UNL     1       1.299   2.473  18.966  0.00  0.00    +0.000 A 
ATOM     11  C   UNL     1       0.721   3.506  18.233  0.00  0.00    +0.000 A 
ATOM     12  C   UNL     1       1.498   4.593  17.845  0.00  0.00    +0.000 A 
ATOM     13  C   UNL     1       2.858   4.647  18.189  0.00  0.00    +0.000 A 
ATOM     14  C   UNL     1       3.646   5.812  17.777  0.00  0.00    +0.000 A 
ATOM     15  O   UNL     1       3.108   6.693  17.108  0.00  0.00    +0.000 OA
ATOM     16  N   UNL     1       4.977   5.863  18.172  0.00  0.00    +0.000 N 
ATOM     17  C   UNL     1       5.745   6.958  17.615  0.00  0.00    +0.000 C 
ENDROOT
TORSDOF 0
ENDMDL
MODEL 6
REMARK VINA RESULT:      -6.5      1.434      3.104
REMARK  Name = 
REMARK  1 active torsions:
REMARK  status: ('A' for Active; 'I' for Inactive)
REMARK    1  A    between atoms: C_1  and  C_2
REMARK                            x       y       z     vdW  Elec       q    Type
REMARK                         _______ _______ _______ _____ _____    ______ ____
ROOT
ATOM      1  C   UNL     1       7.609   7.923  17.432  0.00  0.00    +0.000 C 
ATOM      2  C   UNL     1       6.760   6.687  17.386  0.00  0.00    +0.000 C 
ATOM      3  C   UNL     1       7.081   5.593  16.689  0.00  0.00    +0.000 C 
ATOM      4  C   UNL     1       6.223   4.377  16.637  0.00  0.00    +0.000 C 
ATOM      5  N   UNL     1       4.981   4.451  17.394  0.00  0.00    +0.000 N 
ATOM      6  C   UNL     1       4.176   3.311  17.417  0.00  0.00    +0.000 A 
ATOM      7  O   UNL     1       4.427   2.295  16.776  0.00  0.00    +0.000 OA
ATOM      8  C   UNL     1       2.955   3.356  18.249  0.00  0.00    +0.000 A 
ATOM      9  C   UNL     1       2.085   2.256  18.286  0.00  0.00    +0.000 A 
ATOM     10  C   UNL     1       0.914   2.310  19.051  0.00  0.00    +0.000 A 
ATOM     11  C   UNL     1       0.606   3.456  19.780  0.00  0.00    +0.000 A 
ATOM     12  C   UNL     1       1.472   4.544  19.749  0.00  0.00    +0.000 A 
ATOM     13  C   UNL     1       2.649   4.489  18.987  0.00  0.00    +0.000 A 
ATOM     14  C   UNL     1       3.546   5.647  18.986  0.00  0.00    +0.000 A 
ATOM     15  O   UNL     1       3.228   6.652  19.621  0.00  0.00    +0.000 OA
ATOM     16  N   UNL     1       4.728   5.548  18.262  0.00  0.00    +0.000 N 
ATOM     17  C   UNL     1       5.503   6.769  18.174  0.00  0.00    +0.000 C 
ENDROOT
TORSDOF 0
ENDMDL
MODEL 7
REMARK VINA RESULT:      -6.4      2.041      5.539
REMARK  Name = 
REMARK  1 active torsions:
REMARK  status: ('A' for Active; 'I' for Inactive)
REMARK    1  A    between atoms: C_1  and  C_2
REMARK                            x       y       z     vdW  Elec       q    Type
REMARK                         _______ _______ _______ _____ _____    ______ ____
ROOT
ATOM      1  C   UNL     1       1.418   2.631  22.256  0.00  0.00    +0.000 C 
ATOM      2  C   UNL     1       1.825   2.851  20.829  0.00  0.00    +0.000 C 
ATOM      3  C   UNL     1       1.010   2.664  19.787  0.00  0.00    +0.000 C 
ATOM      4  C   UNL     1       1.429   2.870  18.374  0.00  0.00    +0.000 C 
ATOM      5  N   UNL     1       2.812   3.284  18.182  0.00  0.00    +0.000 N 
ATOM      6  C   UNL     1       3.229   3.542  16.876  0.00  0.00    +0.000 A 
ATOM      7  O   UNL     1       2.516   3.365  15.893  0.00  0.00    +0.000 OA
ATOM      8  C   UNL     1       4.608   4.039  16.686  0.00  0.00    +0.000 A 
ATOM      9  C   UNL     1       5.100   4.283  15.395  0.00  0.00    +0.000 A 
ATOM     10  C   UNL     1       6.415   4.726  15.213  0.00  0.00    +0.000 A 
ATOM     11  C   UNL     1       7.244   4.926  16.314  0.00  0.00    +0.000 A 
ATOM     12  C   UNL     1       6.755   4.691  17.596  0.00  0.00    +0.000 A 
ATOM     13  C   UNL     1       5.434   4.253  17.778  0.00  0.00    +0.000 A 
ATOM     14  C   UNL     1       4.946   4.027  19.141  0.00  0.00    +0.000 A 
ATOM     15  O   UNL     1       5.715   4.189  20.087  0.00  0.00    +0.000 OA
ATOM     16  N   UNL     1       3.621   3.639  19.297  0.00  0.00    +0.000 N 
ATOM     17  C   UNL     1       3.234   3.288  20.647  0.00  0.00    +0.000 C 
ENDROOT
TORSDOF 0
ENDMDL
MODEL 8
REMARK VINA RESULT:      -6.4      1.950      3.201
REMARK  Name = 
REMARK  1 active torsions:
REMARK  status: ('A' for Active; 'I' for Inactive)
REMARK    1  A    between atoms: C_1  and  C_2
REMARK                            x       y       z     vdW  Elec       q    Type
REMARK                         _______ _______ _______ _____ _____    ______ ____
ROOT
ATOM      1  C   UNL     1       7.582   7.843  17.079  0.00  0.00    +0.000 C 
ATOM      2  C   UNL     1       6.903   6.658  17.700  0.00  0.00    +0.000 C 
ATOM      3  C   UNL     1       7.526   5.508  17.979  0.00  0.00    +0.000 C 
ATOM      4  C   UNL     1       6.840   4.332  18.580  0.00  0.00    +0.000 C 
ATOM      5  N   UNL     1       5.417   4.500  18.842  0.00  0.00    +0.000 N 
ATOM      6  C   UNL     1       4.749   3.441  19.457  0.00  0.00    +0.000 A 
ATOM      7  O   UNL     1       5.281   2.365  19.712  0.00  0.00    +0.000 OA
ATOM      8  C   UNL     1       3.324   3.639  19.797  0.00  0.00    +0.000 A 
ATOM      9  C   UNL     1       2.586   2.600  20.384  0.00  0.00    +0.000 A 
ATOM     10  C   UNL     1       1.230   2.777  20.679  0.00  0.00    +0.000 A 
ATOM     11  C   UNL     1       0.604   3.988  20.390  0.00  0.00    +0.000 A 
ATOM     12  C   UNL     1       1.336   5.021  19.815  0.00  0.00    +0.000 A 
ATOM     13  C   UNL     1       2.698   4.845  19.524  0.00  0.00    +0.000 A 
ATOM     14  C   UNL     1       3.444   5.958  18.931  0.00  0.00    +0.000 A 
ATOM     15  O   UNL     1       2.851   7.003  18.666  0.00  0.00    +0.000 OA
ATOM     16  N   UNL     1       4.802   5.774  18.697  0.00  0.00    +0.000 N 
ATOM     17  C   UNL     1       5.455   6.847  17.976  0.00  0.00    +0.000 C 
ENDROOT
TORSDOF 0
ENDMDL
MODEL 9
REMARK VINA RESULT:      -6.3      2.412      4.040
REMARK  Name = 
REMARK  1 active torsions:
REMARK  status: ('A' for Active; 'I' for Inactive)
REMARK    1  A    between atoms: C_1  and  C_2
REMARK                            x       y       z     vdW  Elec       q    Type
REMARK                         _______ _______ _______ _____ _____    ______ ____
ROOT
ATOM      1  C   UNL     1       5.870   4.113  15.838  0.00  0.00    +0.000 C 
ATOM      2  C   UNL     1       4.991   4.456  17.004  0.00  0.00    +0.000 C 
ATOM      3  C   UNL     1       4.769   3.632  18.033  0.00  0.00    +0.000 C 
ATOM      4  C   UNL     1       3.882   3.976  19.178  0.00  0.00    +0.000 C 
ATOM      5  N   UNL     1       3.244   5.283  19.110  0.00  0.00    +0.000 N 
ATOM      6  C   UNL     1       2.450   5.666  20.191  0.00  0.00    +0.000 A 
ATOM      7  O   UNL     1       2.208   4.932  21.143  0.00  0.00    +0.000 OA
ATOM      8  C   UNL     1       1.867   7.024  20.160  0.00  0.00    +0.000 A 
ATOM      9  C   UNL     1       1.029   7.457  21.200  0.00  0.00    +0.000 A 
ATOM     10  C   UNL     1       0.453   8.731  21.157  0.00  0.00    +0.000 A 
ATOM     11  C   UNL     1       0.708   9.578  20.081  0.00  0.00    +0.000 A 
ATOM     12  C   UNL     1       1.544   9.153  19.053  0.00  0.00    +0.000 A 
ATOM     13  C   UNL     1       2.126   7.877  19.099  0.00  0.00    +0.000 A 
ATOM     14  C   UNL     1       3.013   7.464  18.008  0.00  0.00    +0.000 A 
ATOM     15  O   UNL     1       3.194   8.229  17.061  0.00  0.00    +0.000 OA
ATOM     16  N   UNL     1       3.614   6.215  18.101  0.00  0.00    +0.000 N 
ATOM     17  C   UNL     1       4.358   5.799  16.930  0.00  0.00    +0.000 C 
ENDROOT
TORSDOF 0
ENDMDL
