MODEL 1
REMARK VINA RESULT:      -9.3      0.000      0.000
REMARK  Name = 
REMARK  4 active torsions:
REMARK  status: ('A' for Active; 'I' for Inactive)
REMARK    1  A    between atoms: C_1  and  C_2
REMARK    2  A    between atoms: C_14  and  O_15
REMARK    3  A    between atoms: O_15  and  C_16
REMARK    4  A    between atoms: C_16  and  C_17
REMARK                            x       y       z     vdW  Elec       q    Type
REMARK                         _______ _______ _______ _____ _____    ______ ____
ROOT
ATOM      1  C   UNL     1       6.166   4.079  14.805  0.00  0.00    +0.000 C 
ATOM      2  C   UNL     1       5.293   4.806  15.830  0.00  0.00    +0.000 C 
ATOM      3  C   UNL     1       5.558   6.335  15.832  0.00  0.00    +0.000 C 
ATOM      4  N   UNL     1       6.856   6.717  16.413  0.00  0.00    +0.000 NA
ATOM      5  C   UNL     1       6.886   6.230  17.805  0.00  0.00    +0.000 C 
ATOM      6  C   UNL     1       6.666   4.710  17.939  0.00  0.00    +0.000 C 
ATOM      7  N   UNL     1       5.522   4.209  17.165  0.00  0.00    +0.000 N 
ATOM      8  C   UNL     1       4.390   3.760  17.841  0.00  0.00    +0.000 A 
ATOM      9  C   UNL     1       3.631   2.742  17.229  0.00  0.00    +0.000 A 
ATOM     10  C   UNL     1       2.473   2.252  17.823  0.00  0.00    +0.000 A 
ATOM     11  C   UNL     1       2.100   2.810  19.021  0.00  0.00    +0.000 A 
ATOM     12  C   UNL     1       2.889   3.806  19.585  0.00  0.00    +0.000 A 
ATOM     13  N   UNL     1       4.038   4.278  19.042  0.00  0.00    +0.000 NA
ATOM     14  C   UNL     1       2.239   4.336  20.850  0.00  0.00    +0.000 C 
ATOM     15  C   UNL     1       1.150   3.274  21.124  0.00  0.00    +0.000 C 
ATOM     16  C   UNL     1       0.866   2.546  19.806  0.00  0.00    +0.000 C 
ATOM     17  H   UNL     1       6.931   7.734  16.419  0.00  0.00    +0.000 HD
ENDROOT
BRANCH  14  18
ATOM     18  O   UNL     1       1.657   5.615  20.595  0.00  0.00    +0.000 OA
BRANCH  18  19
ATOM     19  C   UNL     1       2.633   6.615  20.307  0.00  0.00    +0.000 C 
BRANCH  19  20
ATOM     20  C   UNL     1       1.950   7.832  19.752  0.00  0.00    +0.000 A 
ATOM     21  C   UNL     1       1.091   8.615  20.535  0.00  0.00    +0.000 A 
ATOM     22  C   UNL     1       0.449   9.717  19.981  0.00  0.00    +0.000 A 
ATOM     23  F   UNL     1      -0.365  10.459  20.741  0.00  0.00    +0.000 F 
ATOM     24  C   UNL     1       0.637  10.062  18.647  0.00  0.00    +0.000 A 
ATOM     25  C   UNL     1       1.479   9.283  17.852  0.00  0.00    +0.000 A 
ATOM     26  C   UNL     1       2.118   8.179  18.404  0.00  0.00    +0.000 A 
ATOM     27  F   UNL     1       2.911   7.434  17.620  0.00  0.00    +0.000 F 
ENDBRANCH  19  20
ENDBRANCH  18  19
ENDBRANCH  14  18
TORSDOF 3
ENDMDL
MODEL 2
REMARK VINA RESULT:      -9.2      0.671      1.810
REMARK  Name = 
REMARK  4 active torsions:
REMARK  status: ('A' for Active; 'I' for Inactive)
REMARK    1  A    between atoms: C_1  and  C_2
REMARK    2  A    between atoms: C_14  and  O_15
REMARK    3  A    between atoms: O_15  and  C_16
REMARK    4  A    between atoms: C_16  and  C_17
REMARK                            x       y       z     vdW  Elec       q    Type
REMARK                         _______ _______ _______ _____ _____    ______ ____
ROOT
ATOM      1  C   UNL     1       6.330   3.982  15.101  0.00  0.00    +0.000 C 
ATOM      2  C   UNL     1       5.295   4.659  16.002  0.00  0.00    +0.000 C 
ATOM      3  C   UNL     1       5.274   6.198  15.801  0.00  0.00    +0.000 C 
ATOM      4  N   UNL     1       6.454   6.889  16.350  0.00  0.00    +0.000 NA
ATOM      5  C   UNL     1       6.511   6.600  17.796  0.00  0.00    +0.000 C 
ATOM      6  C   UNL     1       6.568   5.096  18.130  0.00  0.00    +0.000 C 
ATOM      7  N   UNL     1       5.570   4.294  17.409  0.00  0.00    +0.000 N 
ATOM      8  C   UNL     1       4.511   3.731  18.118  0.00  0.00    +0.000 A 
ATOM      9  C   UNL     1       3.979   2.519  17.635  0.00  0.00    +0.000 A 
ATOM     10  C   UNL     1       2.906   1.902  18.268  0.00  0.00    +0.000 A 
ATOM     11  C   UNL     1       2.385   2.530  19.372  0.00  0.00    +0.000 A 
ATOM     12  C   UNL     1       2.952   3.720  19.810  0.00  0.00    +0.000 A 
ATOM     13  N   UNL     1       4.018   4.326  19.231  0.00  0.00    +0.000 NA
ATOM     14  C   UNL     1       2.161   4.278  20.980  0.00  0.00    +0.000 C 
ATOM     15  C   UNL     1       1.274   3.076  21.375  0.00  0.00    +0.000 C 
ATOM     16  C   UNL     1       1.187   2.143  20.162  0.00  0.00    +0.000 C 
ATOM     17  H   UNL     1       6.341   7.894  16.220  0.00  0.00    +0.000 HD
ENDROOT
BRANCH  14  18
ATOM     18  O   UNL     1       1.367   5.381  20.543  0.00  0.00    +0.000 OA
BRANCH  18  19
ATOM     19  C   UNL     1       1.800   6.624  21.094  0.00  0.00    +0.000 C 
BRANCH  19  20
ATOM     20  C   UNL     1       1.767   7.680  20.027  0.00  0.00    +0.000 A 
ATOM     21  C   UNL     1       2.439   7.516  18.808  0.00  0.00    +0.000 A 
ATOM     22  C   UNL     1       2.414   8.528  17.854  0.00  0.00    +0.000 A 
ATOM     23  F   UNL     1       3.056   8.357  16.692  0.00  0.00    +0.000 F 
ATOM     24  C   UNL     1       1.733   9.718  18.087  0.00  0.00    +0.000 A 
ATOM     25  C   UNL     1       1.072   9.900  19.302  0.00  0.00    +0.000 A 
ATOM     26  C   UNL     1       1.099   8.891  20.257  0.00  0.00    +0.000 A 
ATOM     27  F   UNL     1       0.470   9.091  21.425  0.00  0.00    +0.000 F 
ENDBRANCH  19  20
ENDBRANCH  18  19
ENDBRANCH  14  18
TORSDOF 3
ENDMDL
MODEL 3
REMARK VINA RESULT:      -8.9      0.934      1.038
REMARK  Name = 
REMARK  4 active torsions:
REMARK  status: ('A' for Active; 'I' for Inactive)
REMARK    1  A    between atoms: C_1  and  C_2
REMARK    2  A    between atoms: C_14  and  O_15
REMARK    3  A    between atoms: O_15  and  C_16
REMARK    4  A    between atoms: C_16  and  C_17
REMARK                            x       y       z     vdW  Elec       q    Type
REMARK                         _______ _______ _______ _____ _____    ______ ____
ROOT
ATOM      1  C   UNL     1       6.838   5.154  15.255  0.00  0.00    +0.000 C 
ATOM      2  C   UNL     1       5.980   5.670  16.411  0.00  0.00    +0.000 C 
ATOM      3  C   UNL     1       6.475   7.047  16.927  0.00  0.00    +0.000 C 
ATOM      4  N   UNL     1       7.744   6.986  17.672  0.00  0.00    +0.000 NA
ATOM      5  C   UNL     1       7.544   6.091  18.828  0.00  0.00    +0.000 C 
ATOM      6  C   UNL     1       7.079   4.672  18.445  0.00  0.00    +0.000 C 
ATOM      7  N   UNL     1       5.965   4.655  17.488  0.00  0.00    +0.000 N 
ATOM      8  C   UNL     1       4.709   4.230  17.916  0.00  0.00    +0.000 A 
ATOM      9  C   UNL     1       3.875   3.610  16.965  0.00  0.00    +0.000 A 
ATOM     10  C   UNL     1       2.597   3.178  17.301  0.00  0.00    +0.000 A 
ATOM     11  C   UNL     1       2.184   3.392  18.593  0.00  0.00    +0.000 A 
ATOM     12  C   UNL     1       3.049   4.001  19.493  0.00  0.00    +0.000 A 
ATOM     13  N   UNL     1       4.311   4.402  19.200  0.00  0.00    +0.000 NA
ATOM     14  C   UNL     1       2.352   4.218  20.825  0.00  0.00    +0.000 C 
ATOM     15  C   UNL     1       1.090   3.340  20.676  0.00  0.00    +0.000 C 
ATOM     16  C   UNL     1       0.845   3.124  19.179  0.00  0.00    +0.000 C 
ATOM     17  H   UNL     1       7.974   7.919  18.014  0.00  0.00    +0.000 HD
ENDROOT
BRANCH  14  18
ATOM     18  O   UNL     1       2.007   5.595  20.970  0.00  0.00    +0.000 OA
BRANCH  18  19
ATOM     19  C   UNL     1       2.315   6.365  19.808  0.00  0.00    +0.000 C 
BRANCH  19  20
ATOM     20  C   UNL     1       1.776   7.757  19.975  0.00  0.00    +0.000 A 
ATOM     21  C   UNL     1       1.271   8.208  21.203  0.00  0.00    +0.000 A 
ATOM     22  C   UNL     1       0.750   9.491  21.315  0.00  0.00    +0.000 A 
ATOM     23  F   UNL     1       0.275   9.911  22.494  0.00  0.00    +0.000 F 
ATOM     24  C   UNL     1       0.711  10.349  20.221  0.00  0.00    +0.000 A 
ATOM     25  C   UNL     1       1.198   9.908  18.990  0.00  0.00    +0.000 A 
ATOM     26  C   UNL     1       1.716   8.624  18.876  0.00  0.00    +0.000 A 
ATOM     27  F   UNL     1       2.165   8.214  17.680  0.00  0.00    +0.000 F 
ENDBRANCH  19  20
ENDBRANCH  18  19
ENDBRANCH  14  18
TORSDOF 3
ENDMDL
MODEL 4
REMARK VINA RESULT:      -8.6      1.103      1.857
REMARK  Name = 
REMARK  4 active torsions:
REMARK  status: ('A' for Active; 'I' for Inactive)
REMARK    1  A    between atoms: C_1  and  C_2
REMARK    2  A    between atoms: C_14  and  O_15
REMARK    3  A    between atoms: O_15  and  C_16
REMARK    4  A    between atoms: C_16  and  C_17
REMARK                            x       y       z     vdW  Elec       q    Type
REMARK                         _______ _______ _______ _____ _____    ______ ____
ROOT
ATOM      1  C   UNL     1       6.581   3.910  14.891  0.00  0.00    +0.000 C 
ATOM      2  C   UNL     1       5.678   4.760  15.787  0.00  0.00    +0.000 C 
ATOM      3  C   UNL     1       6.046   6.266  15.713  0.00  0.00    +0.000 C 
ATOM      4  N   UNL     1       7.314   6.607  16.380  0.00  0.00    +0.000 NA
ATOM      5  C   UNL     1       7.195   6.216  17.798  0.00  0.00    +0.000 C 
ATOM      6  C   UNL     1       6.861   4.726  18.009  0.00  0.00    +0.000 C 
ATOM      7  N   UNL     1       5.754   4.246  17.172  0.00  0.00    +0.000 N 
ATOM      8  C   UNL     1       4.542   3.916  17.774  0.00  0.00    +0.000 A 
ATOM      9  C   UNL     1       3.768   2.908  17.165  0.00  0.00    +0.000 A 
ATOM     10  C   UNL     1       2.534   2.534  17.686  0.00  0.00    +0.000 A 
ATOM     11  C   UNL     1       2.102   3.197  18.808  0.00  0.00    +0.000 A 
ATOM     12  C   UNL     1       2.907   4.178  19.373  0.00  0.00    +0.000 A 
ATOM     13  N   UNL     1       4.128   4.538  18.904  0.00  0.00    +0.000 NA
ATOM     14  C   UNL     1       2.192   4.836  20.540  0.00  0.00    +0.000 C 
ATOM     15  C   UNL     1       1.015   3.866  20.786  0.00  0.00    +0.000 C 
ATOM     16  C   UNL     1       0.793   3.066  19.498  0.00  0.00    +0.000 C 
ATOM     17  H   UNL     1       7.458   7.614  16.327  0.00  0.00    +0.000 HD
ENDROOT
BRANCH  14  18
ATOM     18  O   UNL     1       1.723   6.127  20.153  0.00  0.00    +0.000 OA
BRANCH  18  19
ATOM     19  C   UNL     1       1.609   7.025  21.257  0.00  0.00    +0.000 C 
BRANCH  19  20
ATOM     20  C   UNL     1       1.206   8.381  20.756  0.00  0.00    +0.000 A 
ATOM     21  C   UNL     1       1.513   8.807  19.455  0.00  0.00    +0.000 A 
ATOM     22  C   UNL     1       1.154  10.081  19.034  0.00  0.00    +0.000 A 
ATOM     23  F   UNL     1       1.449  10.473  17.788  0.00  0.00    +0.000 F 
ATOM     24  C   UNL     1       0.492  10.960  19.885  0.00  0.00    +0.000 A 
ATOM     25  C   UNL     1       0.192  10.554  21.186  0.00  0.00    +0.000 A 
ATOM     26  C   UNL     1       0.555   9.281  21.610  0.00  0.00    +0.000 A 
ATOM     27  F   UNL     1       0.271   8.916  22.869  0.00  0.00    +0.000 F 
ENDBRANCH  19  20
ENDBRANCH  18  19
ENDBRANCH  14  18
TORSDOF 3
ENDMDL
MODEL 5
REMARK VINA RESULT:      -8.2      1.112      2.049
REMARK  Name = 
REMARK  4 active torsions:
REMARK  status: ('A' for Active; 'I' for Inactive)
REMARK    1  A    between atoms: C_1  and  C_2
REMARK    2  A    between atoms: C_14  and  O_15
REMARK    3  A    between atoms: O_15  and  C_16
REMARK    4  A    between atoms: C_16  and  C_17
REMARK                            x       y       z     vdW  Elec       q    Type
REMARK                         _______ _______ _______ _____ _____    ______ ____
ROOT
ATOM      1  C   UNL     1       6.678   5.146  15.206  0.00  0.00    +0.000 C 
ATOM      2  C   UNL     1       5.897   5.551  16.458  0.00  0.00    +0.000 C 
ATOM      3  C   UNL     1       6.321   6.951  16.974  0.00  0.00    +0.000 C 
ATOM      4  N   UNL     1       7.658   6.982  17.592  0.00  0.00    +0.000 NA
ATOM      5  C   UNL     1       7.650   6.040  18.728  0.00  0.00    +0.000 C 
ATOM      6  C   UNL     1       7.273   4.597  18.339  0.00  0.00    +0.000 C 
ATOM      7  N   UNL     1       6.075   4.508  17.493  0.00  0.00    +0.000 N 
ATOM      8  C   UNL     1       4.908   3.962  18.023  0.00  0.00    +0.000 A 
ATOM      9  C   UNL     1       4.040   3.298  17.134  0.00  0.00    +0.000 A 
ATOM     10  C   UNL     1       2.844   2.744  17.574  0.00  0.00    +0.000 A 
ATOM     11  C   UNL     1       2.543   2.884  18.907  0.00  0.00    +0.000 A 
ATOM     12  C   UNL     1       3.437   3.541  19.743  0.00  0.00    +0.000 A 
ATOM     13  N   UNL     1       4.625   4.061  19.345  0.00  0.00    +0.000 NA
ATOM     14  C   UNL     1       2.859   3.658  21.142  0.00  0.00    +0.000 C 
ATOM     15  C   UNL     1       1.668   2.676  21.082  0.00  0.00    +0.000 C 
ATOM     16  C   UNL     1       1.296   2.482  19.608  0.00  0.00    +0.000 C 
ATOM     17  H   UNL     1       7.840   7.921  17.945  0.00  0.00    +0.000 HD
ENDROOT
BRANCH  14  18
ATOM     18  O   UNL     1       2.413   4.995  21.370  0.00  0.00    +0.000 OA
BRANCH  18  19
ATOM     19  C   UNL     1       1.290   5.346  20.561  0.00  0.00    +0.000 C 
BRANCH  19  20
ATOM     20  C   UNL     1       1.574   6.636  19.849  0.00  0.00    +0.000 A 
ATOM     21  C   UNL     1       2.298   6.671  18.648  0.00  0.00    +0.000 A 
ATOM     22  C   UNL     1       2.571   7.886  18.031  0.00  0.00    +0.000 A 
ATOM     23  F   UNL     1       3.259   7.905  16.883  0.00  0.00    +0.000 F 
ATOM     24  C   UNL     1       2.141   9.087  18.587  0.00  0.00    +0.000 A 
ATOM     25  C   UNL     1       1.432   9.068  19.789  0.00  0.00    +0.000 A 
ATOM     26  C   UNL     1       1.162   7.854  20.408  0.00  0.00    +0.000 A 
ATOM     27  F   UNL     1       0.492   7.858  21.570  0.00  0.00    +0.000 F 
ENDBRANCH  19  20
ENDBRANCH  18  19
ENDBRANCH  14  18
TORSDOF 3
ENDMDL
MODEL 6
REMARK VINA RESULT:      -7.4      3.571      7.360
REMARK  Name = 
REMARK  4 active torsions:
REMARK  status: ('A' for Active; 'I' for Inactive)
REMARK    1  A    between atoms: C_1  and  C_2
REMARK    2  A    between atoms: C_14  and  O_15
REMARK    3  A    between atoms: O_15  and  C_16
REMARK    4  A    between atoms: C_16  and  C_17
REMARK                            x       y       z     vdW  Elec       q    Type
REMARK                         _______ _______ _______ _____ _____    ______ ____
ROOT
ATOM      1  C   UNL     1      -0.051  12.618  21.870  0.00  0.00    +0.000 C 
ATOM      2  C   UNL     1       1.022  11.969  20.995  0.00  0.00    +0.000 C 
ATOM      3  C   UNL     1       1.897  13.028  20.274  0.00  0.00    +0.000 C 
ATOM      4  N   UNL     1       1.201  13.740  19.188  0.00  0.00    +0.000 NA
ATOM      5  C   UNL     1       0.763  12.735  18.200  0.00  0.00    +0.000 C 
ATOM      6  C   UNL     1      -0.145  11.636  18.789  0.00  0.00    +0.000 C 
ATOM      7  N   UNL     1       0.369  11.052  20.035  0.00  0.00    +0.000 N 
ATOM      8  C   UNL     1       0.829   9.737  20.028  0.00  0.00    +0.000 A 
ATOM      9  C   UNL     1       0.698   8.998  21.221  0.00  0.00    +0.000 A 
ATOM     10  C   UNL     1       1.153   7.687  21.309  0.00  0.00    +0.000 A 
ATOM     11  C   UNL     1       1.742   7.153  20.190  0.00  0.00    +0.000 A 
ATOM     12  C   UNL     1       1.839   7.922  19.037  0.00  0.00    +0.000 A 
ATOM     13  N   UNL     1       1.375   9.190  18.915  0.00  0.00    +0.000 NA
ATOM     14  C   UNL     1       2.603   7.166  17.965  0.00  0.00    +0.000 C 
ATOM     15  C   UNL     1       2.628   5.731  18.537  0.00  0.00    +0.000 C 
ATOM     16  C   UNL     1       2.398   5.827  20.049  0.00  0.00    +0.000 C 
ATOM     17  H   UNL     1       1.854  14.380  18.738  0.00  0.00    +0.000 HD
ENDROOT
BRANCH  14  18
ATOM     18  O   UNL     1       3.923   7.696  17.848  0.00  0.00    +0.000 OA
BRANCH  18  19
ATOM     19  C   UNL     1       4.567   7.308  16.635  0.00  0.00    +0.000 C 
BRANCH  19  20
ATOM     20  C   UNL     1       5.659   6.325  16.942  0.00  0.00    +0.000 A 
ATOM     21  C   UNL     1       6.468   6.457  18.080  0.00  0.00    +0.000 A 
ATOM     22  C   UNL     1       7.492   5.547  18.318  0.00  0.00    +0.000 A 
ATOM     23  F   UNL     1       8.255   5.681  19.410  0.00  0.00    +0.000 F 
ATOM     24  C   UNL     1       7.740   4.498  17.440  0.00  0.00    +0.000 A 
ATOM     25  C   UNL     1       6.951   4.364  16.296  0.00  0.00    +0.000 A 
ATOM     26  C   UNL     1       5.930   5.275  16.055  0.00  0.00    +0.000 A 
ATOM     27  F   UNL     1       5.192   5.137  14.943  0.00  0.00    +0.000 F 
ENDBRANCH  19  20
ENDBRANCH  18  19
ENDBRANCH  14  18
TORSDOF 3
ENDMDL
MODEL 7
REMARK VINA RESULT:      -7.3      3.707      7.120
REMARK  Name = 
REMARK  4 active torsions:
REMARK  status: ('A' for Active; 'I' for Inactive)
REMARK    1  A    between atoms: C_1  and  C_2
REMARK    2  A    between atoms: C_14  and  O_15
REMARK    3  A    between atoms: O_15  and  C_16
REMARK    4  A    between atoms: C_16  and  C_17
REMARK                            x       y       z     vdW  Elec       q    Type
REMARK                         _______ _______ _______ _____ _____    ______ ____
ROOT
ATOM      1  C   UNL     1       0.760   3.515  18.401  0.00  0.00    +0.000 C 
ATOM      2  C   UNL     1       2.208   3.440  17.914  0.00  0.00    +0.000 C 
ATOM      3  C   UNL     1       2.626   1.985  17.571  0.00  0.00    +0.000 C 
ATOM      4  N   UNL     1       2.799   1.118  18.749  0.00  0.00    +0.000 NA
ATOM      5  C   UNL     1       3.840   1.723  19.602  0.00  0.00    +0.000 C 
ATOM      6  C   UNL     1       3.526   3.167  20.041  0.00  0.00    +0.000 C 
ATOM      7  N   UNL     1       3.091   4.036  18.941  0.00  0.00    +0.000 N 
ATOM      8  C   UNL     1       3.934   5.058  18.509  0.00  0.00    +0.000 A 
ATOM      9  C   UNL     1       3.330   6.218  17.982  0.00  0.00    +0.000 A 
ATOM     10  C   UNL     1       4.097   7.276  17.507  0.00  0.00    +0.000 A 
ATOM     11  C   UNL     1       5.462   7.135  17.565  0.00  0.00    +0.000 A 
ATOM     12  C   UNL     1       6.005   5.974  18.101  0.00  0.00    +0.000 A 
ATOM     13  N   UNL     1       5.281   4.942  18.600  0.00  0.00    +0.000 NA
ATOM     14  C   UNL     1       7.519   5.998  17.977  0.00  0.00    +0.000 C 
ATOM     15  C   UNL     1       7.790   7.475  17.616  0.00  0.00    +0.000 C 
ATOM     16  C   UNL     1       6.498   8.059  17.036  0.00  0.00    +0.000 C 
ATOM     17  H   UNL     1       3.117   0.200  18.442  0.00  0.00    +0.000 HD
ENDROOT
BRANCH  14  18
ATOM     18  O   UNL     1       7.931   5.127  16.924  0.00  0.00    +0.000 OA
BRANCH  18  19
ATOM     19  C   UNL     1       6.831   4.482  16.282  0.00  0.00    +0.000 C 
BRANCH  19  20
ATOM     20  C   UNL     1       7.013   4.552  14.793  0.00  0.00    +0.000 A 
ATOM     21  C   UNL     1       7.890   5.473  14.202  0.00  0.00    +0.000 A 
ATOM     22  C   UNL     1       8.010   5.534  12.818  0.00  0.00    +0.000 A 
ATOM     23  F   UNL     1       8.855   6.415  12.267  0.00  0.00    +0.000 F 
ATOM     24  C   UNL     1       7.267   4.696  11.994  0.00  0.00    +0.000 A 
ATOM     25  C   UNL     1       6.380   3.785  12.569  0.00  0.00    +0.000 A 
ATOM     26  C   UNL     1       6.256   3.725  13.952  0.00  0.00    +0.000 A 
ATOM     27  F   UNL     1       5.388   2.853  14.485  0.00  0.00    +0.000 F 
ENDBRANCH  19  20
ENDBRANCH  18  19
ENDBRANCH  14  18
TORSDOF 3
ENDMDL
MODEL 8
REMARK VINA RESULT:      -7.2      3.350      6.239
REMARK  Name = 
REMARK  4 active torsions:
REMARK  status: ('A' for Active; 'I' for Inactive)
REMARK    1  A    between atoms: C_1  and  C_2
REMARK    2  A    between atoms: C_14  and  O_15
REMARK    3  A    between atoms: O_15  and  C_16
REMARK    4  A    between atoms: C_16  and  C_17
REMARK                            x       y       z     vdW  Elec       q    Type
REMARK                         _______ _______ _______ _____ _____    ______ ____
ROOT
ATOM      1  C   UNL     1       2.117   3.852  21.156  0.00  0.00    +0.000 C 
ATOM      2  C   UNL     1       1.550   4.839  20.134  0.00  0.00    +0.000 C 
ATOM      3  C   UNL     1       1.333   4.174  18.749  0.00  0.00    +0.000 C 
ATOM      4  N   UNL     1       2.581   3.879  18.025  0.00  0.00    +0.000 NA
ATOM      5  C   UNL     1       3.300   5.152  17.832  0.00  0.00    +0.000 C 
ATOM      6  C   UNL     1       3.607   5.901  19.144  0.00  0.00    +0.000 C 
ATOM      7  N   UNL     1       2.452   6.009  20.044  0.00  0.00    +0.000 N 
ATOM      8  C   UNL     1       1.865   7.256  20.249  0.00  0.00    +0.000 A 
ATOM      9  C   UNL     1       1.260   7.491  21.501  0.00  0.00    +0.000 A 
ATOM     10  C   UNL     1       0.631   8.698  21.781  0.00  0.00    +0.000 A 
ATOM     11  C   UNL     1       0.616   9.642  20.783  0.00  0.00    +0.000 A 
ATOM     12  C   UNL     1       1.234   9.362  19.571  0.00  0.00    +0.000 A 
ATOM     13  N   UNL     1       1.882   8.206  19.284  0.00  0.00    +0.000 NA
ATOM     14  C   UNL     1       1.013  10.504  18.594  0.00  0.00    +0.000 C 
ATOM     15  C   UNL     1       0.485  11.623  19.519  0.00  0.00    +0.000 C 
ATOM     16  C   UNL     1      -0.070  10.960  20.784  0.00  0.00    +0.000 C 
ATOM     17  H   UNL     1       2.351   3.489  17.112  0.00  0.00    +0.000 HD
ENDROOT
BRANCH  14  18
ATOM     18  O   UNL     1       0.031  10.129  17.628  0.00  0.00    +0.000 OA
BRANCH  18  19
ATOM     19  C   UNL     1      -1.205   9.735  18.223  0.00  0.00    +0.000 C 
BRANCH  19  20
ATOM     20  C   UNL     1      -2.344  10.277  17.409  0.00  0.00    +0.000 A 
ATOM     21  C   UNL     1      -2.508   9.940  16.058  0.00  0.00    +0.000 A 
ATOM     22  C   UNL     1      -3.556  10.484  15.324  0.00  0.00    +0.000 A 
ATOM     23  F   UNL     1      -3.704  10.151  14.036  0.00  0.00    +0.000 F 
ATOM     24  C   UNL     1      -4.455  11.372  15.905  0.00  0.00    +0.000 A 
ATOM     25  C   UNL     1      -4.295  11.726  17.245  0.00  0.00    +0.000 A 
ATOM     26  C   UNL     1      -3.246  11.186  17.979  0.00  0.00    +0.000 A 
ATOM     27  F   UNL     1      -3.101  11.551  19.261  0.00  0.00    +0.000 F 
ENDBRANCH  19  20
ENDBRANCH  18  19
ENDBRANCH  14  18
TORSDOF 3
ENDMDL
MODEL 9
REMARK VINA RESULT:      -7.2      3.297      7.212
REMARK  Name = 
REMARK  4 active torsions:
REMARK  status: ('A' for Active; 'I' for Inactive)
REMARK    1  A    between atoms: C_1  and  C_2
REMARK    2  A    between atoms: C_14  and  O_15
REMARK    3  A    between atoms: O_15  and  C_16
REMARK    4  A    between atoms: C_16  and  C_17
REMARK                            x       y       z     vdW  Elec       q    Type
REMARK                         _______ _______ _______ _____ _____    ______ ____
ROOT
ATOM      1  C   UNL     1       0.703   3.514  19.143  0.00  0.00    +0.000 C 
ATOM      2  C   UNL     1       2.034   3.432  18.395  0.00  0.00    +0.000 C 
ATOM      3  C   UNL     1       2.306   2.002  17.856  0.00  0.00    +0.000 C 
ATOM      4  N   UNL     1       2.641   1.022  18.903  0.00  0.00    +0.000 NA
ATOM      5  C   UNL     1       3.848   1.504  19.601  0.00  0.00    +0.000 C 
ATOM      6  C   UNL     1       3.696   2.910  20.213  0.00  0.00    +0.000 C 
ATOM      7  N   UNL     1       3.118   3.896  19.289  0.00  0.00    +0.000 N 
ATOM      8  C   UNL     1       3.923   4.922  18.801  0.00  0.00    +0.000 A 
ATOM      9  C   UNL     1       3.298   6.148  18.495  0.00  0.00    +0.000 A 
ATOM     10  C   UNL     1       4.022   7.217  17.981  0.00  0.00    +0.000 A 
ATOM     11  C   UNL     1       5.366   7.021  17.775  0.00  0.00    +0.000 A 
ATOM     12  C   UNL     1       5.934   5.795  18.100  0.00  0.00    +0.000 A 
ATOM     13  N   UNL     1       5.256   4.748  18.633  0.00  0.00    +0.000 NA
ATOM     14  C   UNL     1       7.399   5.775  17.703  0.00  0.00    +0.000 C 
ATOM     15  C   UNL     1       7.681   7.269  17.428  0.00  0.00    +0.000 C 
ATOM     16  C   UNL     1       6.338   7.952  17.146  0.00  0.00    +0.000 C 
ATOM     17  H   UNL     1       2.849   0.126  18.465  0.00  0.00    +0.000 HD
ENDROOT
BRANCH  14  18
ATOM     18  O   UNL     1       7.569   4.993  16.522  0.00  0.00    +0.000 OA
BRANCH  18  19
ATOM     19  C   UNL     1       7.377   5.751  15.328  0.00  0.00    +0.000 C 
BRANCH  19  20
ATOM     20  C   UNL     1       6.830   4.857  14.252  0.00  0.00    +0.000 A 
ATOM     21  C   UNL     1       7.571   4.553  13.101  0.00  0.00    +0.000 A 
ATOM     22  C   UNL     1       7.022   3.748  12.110  0.00  0.00    +0.000 A 
ATOM     23  F   UNL     1       7.742   3.462  11.018  0.00  0.00    +0.000 F 
ATOM     24  C   UNL     1       5.736   3.234  12.231  0.00  0.00    +0.000 A 
ATOM     25  C   UNL     1       4.982   3.540  13.365  0.00  0.00    +0.000 A 
ATOM     26  C   UNL     1       5.528   4.348  14.355  0.00  0.00    +0.000 A 
ATOM     27  F   UNL     1       4.783   4.643  15.430  0.00  0.00    +0.000 F 
ENDBRANCH  19  20
ENDBRANCH  18  19
ENDBRANCH  14  18
TORSDOF 3
ENDMDL
