MODEL 1
REMARK VINA RESULT:      -9.0      0.000      0.000
REMARK  Name = 
REMARK  6 active torsions:
REMARK  status: ('A' for Active; 'I' for Inactive)
REMARK    1  A    between atoms: C_1  and  N_2
REMARK    2  A    between atoms: N_6  and  C_7
REMARK    3  A    between atoms: C_7  and  C_8
REMARK    4  A    between atoms: C_12  and  C_13
REMARK    5  A    between atoms: C_17  and  N_18
REMARK    6  A    between atoms: C_19  and  C_21
REMARK                            x       y       z     vdW  Elec       q    Type
REMARK                         _______ _______ _______ _____ _____    ______ ____
ROOT
ATOM      1  C   UNL     1       4.878   5.052  17.301  0.00  0.00    +0.000 A 
ATOM      2  C   UNL     1       5.434   4.147  16.379  0.00  0.00    +0.000 A 
ATOM      3  C   UNL     1       6.602   4.447  15.679  0.00  0.00    +0.000 A 
ATOM      4  C   UNL     1       7.247   5.662  15.885  0.00  0.00    +0.000 A 
ATOM      5  C   UNL     1       6.729   6.588  16.786  0.00  0.00    +0.000 A 
ATOM      6  C   UNL     1       5.557   6.273  17.491  0.00  0.00    +0.000 A 
ENDROOT
BRANCH   1  11
ATOM      7  C   UNL     1       1.995   5.279  19.794  0.00  0.00    +0.000 A 
ATOM      8  C   UNL     1       1.215   4.183  19.413  0.00  0.00    +0.000 A 
ATOM      9  C   UNL     1       1.626   3.369  18.363  0.00  0.00    +0.000 A 
ATOM     10  C   UNL     1       2.812   3.651  17.678  0.00  0.00    +0.000 A 
ATOM     11  C   UNL     1       3.637   4.728  18.047  0.00  0.00    +0.000 A 
ATOM     12  C   UNL     1       3.215   5.511  19.136  0.00  0.00    +0.000 A 
BRANCH   7  13
ATOM     13  C   UNL     1       1.514   6.245  20.857  0.00  0.00    +0.000 C 
BRANCH  13  19
ATOM     14  C   UNL     1      -0.903  11.183  20.389  0.00  0.00    +0.000 C 
ATOM     15  N   UNL     1       0.462  10.772  20.070  0.00  0.00    +0.000 NA
ATOM     16  C   UNL     1       0.512  10.109  18.766  0.00  0.00    +0.000 C 
ATOM     17  C   UNL     1       1.768   9.281  18.496  0.00  0.00    +0.000 C 
ATOM     18  C   UNL     1       1.665   7.849  19.034  0.00  0.00    +0.000 C 
ATOM     19  N   UNL     1       1.727   7.667  20.496  0.00  0.00    +0.000 NA
ATOM     20  C   UNL     1       0.767   8.508  21.234  0.00  0.00    +0.000 C 
ATOM     21  C   UNL     1       1.084  10.018  21.167  0.00  0.00    +0.000 C 
ENDBRANCH  13  19
ENDBRANCH   7  13
ENDBRANCH   1  11
BRANCH   5  22
ATOM     22  N   UNL     1       7.340   7.833  17.059  0.00  0.00    +0.000 N 
ATOM     23  C   UNL     1       8.147   8.121  18.146  0.00  0.00    +0.000 C 
ATOM     24  O   UNL     1       8.544   7.313  18.978  0.00  0.00    +0.000 OA
ATOM     25  H   UNL     1       7.156   8.561  16.385  0.00  0.00    +0.000 HD
BRANCH  23  26
ATOM     26  C   UNL     1       8.552   9.546  18.322  0.00  0.00    +0.000 A 
ATOM     27  C   UNL     1       9.372   9.845  19.422  0.00  0.00    +0.000 A 
ATOM     28  C   UNL     1       9.775  11.153  19.677  0.00  0.00    +0.000 A 
ATOM     29  C   UNL     1       9.366  12.175  18.828  0.00  0.00    +0.000 A 
ATOM     30 CL   UNL     1       9.843  13.795  19.149  0.00  0.00    +0.000 Cl
ATOM     31  C   UNL     1       8.570  11.894  17.715  0.00  0.00    +0.000 A 
ATOM     32  C   UNL     1       8.166  10.577  17.456  0.00  0.00    +0.000 A 
ENDBRANCH  23  26
ENDBRANCH   5  22
TORSDOF 5
ENDMDL
MODEL 2
REMARK VINA RESULT:      -8.7      3.982      8.495
REMARK  Name = 
REMARK  6 active torsions:
REMARK  status: ('A' for Active; 'I' for Inactive)
REMARK    1  A    between atoms: C_1  and  N_2
REMARK    2  A    between atoms: N_6  and  C_7
REMARK    3  A    between atoms: C_7  and  C_8
REMARK    4  A    between atoms: C_12  and  C_13
REMARK    5  A    between atoms: C_17  and  N_18
REMARK    6  A    between atoms: C_19  and  C_21
REMARK                            x       y       z     vdW  Elec       q    Type
REMARK                         _______ _______ _______ _____ _____    ______ ____
ROOT
ATOM      1  C   UNL     1       1.763   8.268  19.163  0.00  0.00    +0.000 A 
ATOM      2  C   UNL     1       2.218   8.906  17.995  0.00  0.00    +0.000 A 
ATOM      3  C   UNL     1       2.029  10.273  17.793  0.00  0.00    +0.000 A 
ATOM      4  C   UNL     1       1.380  11.038  18.757  0.00  0.00    +0.000 A 
ATOM      5  C   UNL     1       0.910  10.445  19.926  0.00  0.00    +0.000 A 
ATOM      6  C   UNL     1       1.113   9.070  20.122  0.00  0.00    +0.000 A 
ENDROOT
BRANCH   1  11
ATOM      7  C   UNL     1       2.621   4.604  18.514  0.00  0.00    +0.000 A 
ATOM      8  C   UNL     1       2.473   4.056  19.791  0.00  0.00    +0.000 A 
ATOM      9  C   UNL     1       2.086   4.865  20.854  0.00  0.00    +0.000 A 
ATOM     10  C   UNL     1       1.857   6.230  20.651  0.00  0.00    +0.000 A 
ATOM     11  C   UNL     1       1.970   6.814  19.376  0.00  0.00    +0.000 A 
ATOM     12  C   UNL     1       2.327   5.964  18.314  0.00  0.00    +0.000 A 
BRANCH   7  13
ATOM     13  C   UNL     1       3.150   3.769  17.365  0.00  0.00    +0.000 C 
BRANCH  13  19
ATOM     14  C   UNL     1       7.586   7.028  17.763  0.00  0.00    +0.000 C 
ATOM     15  N   UNL     1       7.481   5.632  17.346  0.00  0.00    +0.000 NA
ATOM     16  C   UNL     1       7.045   5.540  15.951  0.00  0.00    +0.000 C 
ATOM     17  C   UNL     1       6.509   4.176  15.517  0.00  0.00    +0.000 C 
ATOM     18  C   UNL     1       5.016   3.999  15.821  0.00  0.00    +0.000 C 
ATOM     19  N   UNL     1       4.627   3.826  17.232  0.00  0.00    +0.000 NA
ATOM     20  C   UNL     1       5.157   4.875  18.121  0.00  0.00    +0.000 C 
ATOM     21  C   UNL     1       6.691   4.829  18.290  0.00  0.00    +0.000 C 
ENDBRANCH  13  19
ENDBRANCH   7  13
ENDBRANCH   1  11
BRANCH   5  22
ATOM     22  N   UNL     1       0.259  11.162  20.954  0.00  0.00    +0.000 N 
ATOM     23  C   UNL     1      -1.025  11.677  20.899  0.00  0.00    +0.000 C 
ATOM     24  O   UNL     1      -1.831  11.495  19.993  0.00  0.00    +0.000 OA
ATOM     25  H   UNL     1       0.799  11.298  21.795  0.00  0.00    +0.000 HD
BRANCH  23  26
ATOM     26  C   UNL     1      -1.451  12.542  22.038  0.00  0.00    +0.000 A 
ATOM     27  C   UNL     1      -2.706  12.274  22.607  0.00  0.00    +0.000 A 
ATOM     28  C   UNL     1      -3.193  13.048  23.657  0.00  0.00    +0.000 A 
ATOM     29  C   UNL     1      -2.424  14.096  24.151  0.00  0.00    +0.000 A 
ATOM     30 CL   UNL     1      -3.029  15.069  25.433  0.00  0.00    +0.000 Cl
ATOM     31  C   UNL     1      -1.163  14.363  23.613  0.00  0.00    +0.000 A 
ATOM     32  C   UNL     1      -0.670  13.582  22.558  0.00  0.00    +0.000 A 
ENDBRANCH  23  26
ENDBRANCH   5  22
TORSDOF 5
ENDMDL
MODEL 3
REMARK VINA RESULT:      -8.7      4.404      8.685
REMARK  Name = 
REMARK  6 active torsions:
REMARK  status: ('A' for Active; 'I' for Inactive)
REMARK    1  A    between atoms: C_1  and  N_2
REMARK    2  A    between atoms: N_6  and  C_7
REMARK    3  A    between atoms: C_7  and  C_8
REMARK    4  A    between atoms: C_12  and  C_13
REMARK    5  A    between atoms: C_17  and  N_18
REMARK    6  A    between atoms: C_19  and  C_21
REMARK                            x       y       z     vdW  Elec       q    Type
REMARK                         _______ _______ _______ _____ _____    ______ ____
ROOT
ATOM      1  C   UNL     1       1.805   8.074  19.433  0.00  0.00    +0.000 A 
ATOM      2  C   UNL     1       2.228   8.663  18.227  0.00  0.00    +0.000 A 
ATOM      3  C   UNL     1       1.938   9.993  17.927  0.00  0.00    +0.000 A 
ATOM      4  C   UNL     1       1.219  10.772  18.829  0.00  0.00    +0.000 A 
ATOM      5  C   UNL     1       0.779  10.227  20.032  0.00  0.00    +0.000 A 
ATOM      6  C   UNL     1       1.082   8.888  20.327  0.00  0.00    +0.000 A 
ENDROOT
BRANCH   1  11
ATOM      7  C   UNL     1       3.449   4.628  19.349  0.00  0.00    +0.000 A 
ATOM      8  C   UNL     1       2.806   3.990  20.413  0.00  0.00    +0.000 A 
ATOM      9  C   UNL     1       1.837   4.668  21.147  0.00  0.00    +0.000 A 
ATOM     10  C   UNL     1       1.514   5.990  20.830  0.00  0.00    +0.000 A 
ATOM     11  C   UNL     1       2.119   6.658  19.750  0.00  0.00    +0.000 A 
ATOM     12  C   UNL     1       3.068   5.936  19.004  0.00  0.00    +0.000 A 
BRANCH   7  13
ATOM     13  C   UNL     1       4.585   3.953  18.608  0.00  0.00    +0.000 C 
BRANCH  13  19
ATOM     14  C   UNL     1       6.546   3.971  13.451  0.00  0.00    +0.000 C 
ATOM     15  N   UNL     1       6.475   5.051  14.432  0.00  0.00    +0.000 NA
ATOM     16  C   UNL     1       7.578   4.952  15.391  0.00  0.00    +0.000 C 
ATOM     17  C   UNL     1       7.400   5.750  16.683  0.00  0.00    +0.000 C 
ATOM     18  C   UNL     1       6.619   4.980  17.755  0.00  0.00    +0.000 C 
ATOM     19  N   UNL     1       5.172   4.797  17.540  0.00  0.00    +0.000 NA
ATOM     20  C   UNL     1       4.841   4.219  16.225  0.00  0.00    +0.000 C 
ATOM     21  C   UNL     1       5.142   5.162  15.039  0.00  0.00    +0.000 C 
ENDBRANCH  13  19
ENDBRANCH   7  13
ENDBRANCH   1  11
BRANCH   5  22
ATOM     22  N   UNL     1       0.060  10.962  21.001  0.00  0.00    +0.000 N 
ATOM     23  C   UNL     1      -1.166  11.576  20.811  0.00  0.00    +0.000 C 
ATOM     24  O   UNL     1      -1.865  11.485  19.809  0.00  0.00    +0.000 OA
ATOM     25  H   UNL     1       0.501  11.030  21.906  0.00  0.00    +0.000 HD
BRANCH  23  26
ATOM     26  C   UNL     1      -1.664  12.438  21.923  0.00  0.00    +0.000 A 
ATOM     27  C   UNL     1      -0.748  13.336  22.492  0.00  0.00    +0.000 A 
ATOM     28  C   UNL     1      -1.121  14.160  23.552  0.00  0.00    +0.000 A 
ATOM     29  C   UNL     1      -2.418  14.095  24.047  0.00  0.00    +0.000 A 
ATOM     30 CL   UNL     1      -2.878  15.094  25.370  0.00  0.00    +0.000 Cl
ATOM     31  C   UNL     1      -3.350  13.224  23.479  0.00  0.00    +0.000 A 
ATOM     32  C   UNL     1      -2.977  12.397  22.410  0.00  0.00    +0.000 A 
ENDBRANCH  23  26
ENDBRANCH   5  22
TORSDOF 5
ENDMDL
MODEL 4
REMARK VINA RESULT:      -8.5      3.826      8.058
REMARK  Name = 
REMARK  6 active torsions:
REMARK  status: ('A' for Active; 'I' for Inactive)
REMARK    1  A    between atoms: C_1  and  N_2
REMARK    2  A    between atoms: N_6  and  C_7
REMARK    3  A    between atoms: C_7  and  C_8
REMARK    4  A    between atoms: C_12  and  C_13
REMARK    5  A    between atoms: C_17  and  N_18
REMARK    6  A    between atoms: C_19  and  C_21
REMARK                            x       y       z     vdW  Elec       q    Type
REMARK                         _______ _______ _______ _____ _____    ______ ____
ROOT
ATOM      1  C   UNL     1       1.997   7.772  19.062  0.00  0.00    +0.000 A 
ATOM      2  C   UNL     1       2.605   8.330  17.924  0.00  0.00    +0.000 A 
ATOM      3  C   UNL     1       2.384   9.657  17.558  0.00  0.00    +0.000 A 
ATOM      4  C   UNL     1       1.550  10.463  18.326  0.00  0.00    +0.000 A 
ATOM      5  C   UNL     1       0.925   9.949  19.460  0.00  0.00    +0.000 A 
ATOM      6  C   UNL     1       1.161   8.614  19.822  0.00  0.00    +0.000 A 
ENDROOT
BRANCH   1  11
ATOM      7  C   UNL     1       3.076   4.112  18.905  0.00  0.00    +0.000 A 
ATOM      8  C   UNL     1       2.802   3.688  20.208  0.00  0.00    +0.000 A 
ATOM      9  C   UNL     1       2.261   4.578  21.130  0.00  0.00    +0.000 A 
ATOM     10  C   UNL     1       2.001   5.901  20.759  0.00  0.00    +0.000 A 
ATOM     11  C   UNL     1       2.238   6.360  19.450  0.00  0.00    +0.000 A 
ATOM     12  C   UNL     1       2.751   5.427  18.531  0.00  0.00    +0.000 A 
BRANCH   7  13
ATOM     13  C   UNL     1       3.770   3.196  17.917  0.00  0.00    +0.000 C 
BRANCH  13  19
ATOM     14  C   UNL     1       7.895   6.805  18.559  0.00  0.00    +0.000 C 
ATOM     15  N   UNL     1       7.504   6.024  17.388  0.00  0.00    +0.000 NA
ATOM     16  C   UNL     1       6.381   6.659  16.694  0.00  0.00    +0.000 C 
ATOM     17  C   UNL     1       5.620   5.763  15.717  0.00  0.00    +0.000 C 
ATOM     18  C   UNL     1       4.519   4.941  16.396  0.00  0.00    +0.000 C 
ATOM     19  N   UNL     1       4.942   3.824  17.260  0.00  0.00    +0.000 NA
ATOM     20  C   UNL     1       5.926   4.214  18.286  0.00  0.00    +0.000 C 
ATOM     21  C   UNL     1       7.304   4.605  17.709  0.00  0.00    +0.000 C 
ENDBRANCH  13  19
ENDBRANCH   7  13
ENDBRANCH   1  11
BRANCH   5  22
ATOM     22  N   UNL     1       0.081  10.714  20.295  0.00  0.00    +0.000 N 
ATOM     23  C   UNL     1       0.483  11.728  21.147  0.00  0.00    +0.000 C 
ATOM     24  O   UNL     1       1.615  12.192  21.226  0.00  0.00    +0.000 OA
ATOM     25  H   UNL     1      -0.899  10.480  20.249  0.00  0.00    +0.000 HD
BRANCH  23  26
ATOM     26  C   UNL     1      -0.557  12.290  22.059  0.00  0.00    +0.000 A 
ATOM     27  C   UNL     1      -0.433  13.644  22.408  0.00  0.00    +0.000 A 
ATOM     28  C   UNL     1      -1.344  14.244  23.275  0.00  0.00    +0.000 A 
ATOM     29  C   UNL     1      -2.392  13.493  23.794  0.00  0.00    +0.000 A 
ATOM     30 CL   UNL     1      -3.508  14.221  24.882  0.00  0.00    +0.000 Cl
ATOM     31  C   UNL     1      -2.545  12.151  23.440  0.00  0.00    +0.000 A 
ATOM     32  C   UNL     1      -1.630  11.547  22.565  0.00  0.00    +0.000 A 
ENDBRANCH  23  26
ENDBRANCH   5  22
TORSDOF 5
ENDMDL
MODEL 5
REMARK VINA RESULT:      -8.4      0.827      1.655
REMARK  Name = 
REMARK  6 active torsions:
REMARK  status: ('A' for Active; 'I' for Inactive)
REMARK    1  A    between atoms: C_1  and  N_2
REMARK    2  A    between atoms: N_6  and  C_7
REMARK    3  A    between atoms: C_7  and  C_8
REMARK    4  A    between atoms: C_12  and  C_13
REMARK    5  A    between atoms: C_17  and  N_18
REMARK    6  A    between atoms: C_19  and  C_21
REMARK                            x       y       z     vdW  Elec       q    Type
REMARK                         _______ _______ _______ _____ _____    ______ ____
ROOT
ATOM      1  C   UNL     1       4.470   5.464  17.653  0.00  0.00    +0.000 A 
ATOM      2  C   UNL     1       4.842   4.542  16.658  0.00  0.00    +0.000 A 
ATOM      3  C   UNL     1       5.945   4.765  15.835  0.00  0.00    +0.000 A 
ATOM      4  C   UNL     1       6.709   5.918  15.988  0.00  0.00    +0.000 A 
ATOM      5  C   UNL     1       6.374   6.858  16.959  0.00  0.00    +0.000 A 
ATOM      6  C   UNL     1       5.266   6.619  17.787  0.00  0.00    +0.000 A 
ENDROOT
BRANCH   1  11
ATOM      7  C   UNL     1       1.791   5.960  20.328  0.00  0.00    +0.000 A 
ATOM      8  C   UNL     1       1.000   4.822  20.140  0.00  0.00    +0.000 A 
ATOM      9  C   UNL     1       1.339   3.894  19.161  0.00  0.00    +0.000 A 
ATOM     10  C   UNL     1       2.462   4.103  18.354  0.00  0.00    +0.000 A 
ATOM     11  C   UNL     1       3.298   5.220  18.529  0.00  0.00    +0.000 A 
ATOM     12  C   UNL     1       2.951   6.122  19.551  0.00  0.00    +0.000 A 
BRANCH   7  13
ATOM     13  C   UNL     1       1.381   7.040  21.308  0.00  0.00    +0.000 C 
BRANCH  13  19
ATOM     14  C   UNL     1       1.903  11.879  18.708  0.00  0.00    +0.000 C 
ATOM     15  N   UNL     1       0.700  11.160  19.122  0.00  0.00    +0.000 NA
ATOM     16  C   UNL     1       0.430  11.378  20.545  0.00  0.00    +0.000 C 
ATOM     17  C   UNL     1      -0.534  10.384  21.192  0.00  0.00    +0.000 C 
ATOM     18  C   UNL     1       0.167   9.113  21.690  0.00  0.00    +0.000 C 
ATOM     19  N   UNL     1       0.642   8.158  20.673  0.00  0.00    +0.000 NA
ATOM     20  C   UNL     1       1.490   8.776  19.637  0.00  0.00    +0.000 C 
ATOM     21  C   UNL     1       0.729   9.750  18.711  0.00  0.00    +0.000 C 
ENDBRANCH  13  19
ENDBRANCH   7  13
ENDBRANCH   1  11
BRANCH   5  22
ATOM     22  N   UNL     1       7.113   8.041  17.183  0.00  0.00    +0.000 N 
ATOM     23  C   UNL     1       8.077   8.224  18.160  0.00  0.00    +0.000 C 
ATOM     24  O   UNL     1       8.513   7.356  18.908  0.00  0.00    +0.000 OA
ATOM     25  H   UNL     1       6.902   8.807  16.562  0.00  0.00    +0.000 HD
BRANCH  23  26
ATOM     26  C   UNL     1       8.614   9.606  18.322  0.00  0.00    +0.000 A 
ATOM     27  C   UNL     1       8.078  10.600  17.487  0.00  0.00    +0.000 A 
ATOM     28  C   UNL     1       8.540  11.912  17.553  0.00  0.00    +0.000 A 
ATOM     29  C   UNL     1       9.539  12.243  18.460  0.00  0.00    +0.000 A 
ATOM     30 CL   UNL     1      10.129  13.857  18.530  0.00  0.00    +0.000 Cl
ATOM     31  C   UNL     1      10.068  11.274  19.315  0.00  0.00    +0.000 A 
ATOM     32  C   UNL     1       9.602   9.953  19.252  0.00  0.00    +0.000 A 
ENDBRANCH  23  26
ENDBRANCH   5  22
TORSDOF 5
ENDMDL
MODEL 6
REMARK VINA RESULT:      -8.4      4.011      6.320
REMARK  Name = 
REMARK  6 active torsions:
REMARK  status: ('A' for Active; 'I' for Inactive)
REMARK    1  A    between atoms: C_1  and  N_2
REMARK    2  A    between atoms: N_6  and  C_7
REMARK    3  A    between atoms: C_7  and  C_8
REMARK    4  A    between atoms: C_12  and  C_13
REMARK    5  A    between atoms: C_17  and  N_18
REMARK    6  A    between atoms: C_19  and  C_21
REMARK                            x       y       z     vdW  Elec       q    Type
REMARK                         _______ _______ _______ _____ _____    ______ ____
ROOT
ATOM      1  C   UNL     1       1.882   6.451  20.121  0.00  0.00    +0.000 A 
ATOM      2  C   UNL     1       1.517   5.357  20.925  0.00  0.00    +0.000 A 
ATOM      3  C   UNL     1       1.881   4.053  20.588  0.00  0.00    +0.000 A 
ATOM      4  C   UNL     1       2.625   3.811  19.438  0.00  0.00    +0.000 A 
ATOM      5  C   UNL     1       3.005   4.866  18.612  0.00  0.00    +0.000 A 
ATOM      6  C   UNL     1       2.639   6.175  18.964  0.00  0.00    +0.000 A 
ENDROOT
BRANCH   1  11
ATOM      7  C   UNL     1       1.116  10.182  19.844  0.00  0.00    +0.000 A 
ATOM      8  C   UNL     1       0.660  10.466  21.135  0.00  0.00    +0.000 A 
ATOM      9  C   UNL     1       0.612   9.458  22.092  0.00  0.00    +0.000 A 
ATOM     10  C   UNL     1       1.006   8.157  21.764  0.00  0.00    +0.000 A 
ATOM     11  C   UNL     1       1.496   7.837  20.484  0.00  0.00    +0.000 A 
ATOM     12  C   UNL     1       1.569   8.884  19.548  0.00  0.00    +0.000 A 
BRANCH   7  13
ATOM     13  C   UNL     1       1.072  11.233  18.754  0.00  0.00    +0.000 C 
BRANCH  13  19
ATOM     14  C   UNL     1      -0.101  16.614  18.404  0.00  0.00    +0.000 C 
ATOM     15  N   UNL     1       0.964  15.930  19.135  0.00  0.00    +0.000 NA
ATOM     16  C   UNL     1       2.074  15.596  18.240  0.00  0.00    +0.000 C 
ATOM     17  C   UNL     1       3.049  14.543  18.766  0.00  0.00    +0.000 C 
ATOM     18  C   UNL     1       2.594  13.109  18.465  0.00  0.00    +0.000 C 
ATOM     19  N   UNL     1       1.447  12.587  19.230  0.00  0.00    +0.000 NA
ATOM     20  C   UNL     1       0.263  13.464  19.186  0.00  0.00    +0.000 C 
ATOM     21  C   UNL     1       0.456  14.804  19.930  0.00  0.00    +0.000 C 
ENDBRANCH  13  19
ENDBRANCH   7  13
ENDBRANCH   1  11
BRANCH   5  22
ATOM     22  N   UNL     1       3.775   4.697  17.440  0.00  0.00    +0.000 N 
ATOM     23  C   UNL     1       5.158   4.660  17.374  0.00  0.00    +0.000 C 
ATOM     24  O   UNL     1       5.921   4.659  18.333  0.00  0.00    +0.000 OA
ATOM     25  H   UNL     1       3.247   4.596  16.586  0.00  0.00    +0.000 HD
BRANCH  23  26
ATOM     26  C   UNL     1       5.764   4.637  16.010  0.00  0.00    +0.000 A 
ATOM     27  C   UNL     1       5.014   4.030  14.990  0.00  0.00    +0.000 A 
ATOM     28  C   UNL     1       5.515   3.942  13.693  0.00  0.00    +0.000 A 
ATOM     29  C   UNL     1       6.770   4.467  13.405  0.00  0.00    +0.000 A 
ATOM     30 CL   UNL     1       7.403   4.342  11.811  0.00  0.00    +0.000 Cl
ATOM     31  C   UNL     1       7.520   5.095  14.401  0.00  0.00    +0.000 A 
ATOM     32  C   UNL     1       7.016   5.187  15.706  0.00  0.00    +0.000 A 
ENDBRANCH  23  26
ENDBRANCH   5  22
TORSDOF 5
ENDMDL
MODEL 7
REMARK VINA RESULT:      -8.4      4.164      9.067
REMARK  Name = 
REMARK  6 active torsions:
REMARK  status: ('A' for Active; 'I' for Inactive)
REMARK    1  A    between atoms: C_1  and  N_2
REMARK    2  A    between atoms: N_6  and  C_7
REMARK    3  A    between atoms: C_7  and  C_8
REMARK    4  A    between atoms: C_12  and  C_13
REMARK    5  A    between atoms: C_17  and  N_18
REMARK    6  A    between atoms: C_19  and  C_21
REMARK                            x       y       z     vdW  Elec       q    Type
REMARK                         _______ _______ _______ _____ _____    ______ ____
ROOT
ATOM      1  C   UNL     1       1.422  12.272  18.768  0.00  0.00    +0.000 A 
ATOM      2  C   UNL     1       0.038  12.256  19.015  0.00  0.00    +0.000 A 
ATOM      3  C   UNL     1      -0.722  11.102  18.821  0.00  0.00    +0.000 A 
ATOM      4  C   UNL     1      -0.114   9.933  18.376  0.00  0.00    +0.000 A 
ATOM      5  C   UNL     1       1.253   9.907  18.115  0.00  0.00    +0.000 A 
ATOM      6  C   UNL     1       2.009  11.071  18.322  0.00  0.00    +0.000 A 
ENDROOT
BRANCH   1  11
ATOM      7  C   UNL     1       4.212  14.862  18.470  0.00  0.00    +0.000 A 
ATOM      8  C   UNL     1       3.728  15.885  19.291  0.00  0.00    +0.000 A 
ATOM      9  C   UNL     1       2.511  15.731  19.947  0.00  0.00    +0.000 A 
ATOM     10  C   UNL     1       1.763  14.562  19.776  0.00  0.00    +0.000 A 
ATOM     11  C   UNL     1       2.228  13.500  18.980  0.00  0.00    +0.000 A 
ATOM     12  C   UNL     1       3.479  13.668  18.359  0.00  0.00    +0.000 A 
BRANCH   7  13
ATOM     13  C   UNL     1       5.477  15.050  17.657  0.00  0.00    +0.000 C 
BRANCH  13  19
ATOM     14  C   UNL     1      10.817  15.880  18.774  0.00  0.00    +0.000 C 
ATOM     15  N   UNL     1       9.967  14.725  19.056  0.00  0.00    +0.000 NA
ATOM     16  C   UNL     1       9.825  13.884  17.866  0.00  0.00    +0.000 C 
ATOM     17  C   UNL     1       8.662  12.892  17.897  0.00  0.00    +0.000 C 
ATOM     18  C   UNL     1       7.342  13.507  17.415  0.00  0.00    +0.000 C 
ATOM     19  N   UNL     1       6.681  14.476  18.307  0.00  0.00    +0.000 NA
ATOM     20  C   UNL     1       7.566  15.570  18.745  0.00  0.00    +0.000 C 
ATOM     21  C   UNL     1       8.699  15.112  19.689  0.00  0.00    +0.000 C 
ENDBRANCH  13  19
ENDBRANCH   7  13
ENDBRANCH   1  11
BRANCH   5  22
ATOM     22  N   UNL     1       1.939   8.752  17.679  0.00  0.00    +0.000 N 
ATOM     23  C   UNL     1       2.369   7.709  18.483  0.00  0.00    +0.000 C 
ATOM     24  O   UNL     1       2.124   7.578  19.677  0.00  0.00    +0.000 OA
ATOM     25  H   UNL     1       2.120   8.705  16.688  0.00  0.00    +0.000 HD
BRANCH  23  26
ATOM     26  C   UNL     1       3.218   6.668  17.834  0.00  0.00    +0.000 A 
ATOM     27  C   UNL     1       4.322   7.118  17.092  0.00  0.00    +0.000 A 
ATOM     28  C   UNL     1       5.153   6.216  16.432  0.00  0.00    +0.000 A 
ATOM     29  C   UNL     1       4.890   4.854  16.515  0.00  0.00    +0.000 A 
ATOM     30 CL   UNL     1       5.899   3.736  15.684  0.00  0.00    +0.000 Cl
ATOM     31  C   UNL     1       3.811   4.385  17.268  0.00  0.00    +0.000 A 
ATOM     32  C   UNL     1       2.975   5.292  17.935  0.00  0.00    +0.000 A 
ENDBRANCH  23  26
ENDBRANCH   5  22
TORSDOF 5
ENDMDL
MODEL 8
REMARK VINA RESULT:      -8.4      4.005      6.386
REMARK  Name = 
REMARK  6 active torsions:
REMARK  status: ('A' for Active; 'I' for Inactive)
REMARK    1  A    between atoms: C_1  and  N_2
REMARK    2  A    between atoms: N_6  and  C_7
REMARK    3  A    between atoms: C_7  and  C_8
REMARK    4  A    between atoms: C_12  and  C_13
REMARK    5  A    between atoms: C_17  and  N_18
REMARK    6  A    between atoms: C_19  and  C_21
REMARK                            x       y       z     vdW  Elec       q    Type
REMARK                         _______ _______ _______ _____ _____    ______ ____
ROOT
ATOM      1  C   UNL     1       1.735   6.914  20.302  0.00  0.00    +0.000 A 
ATOM      2  C   UNL     1       1.427   5.796  21.098  0.00  0.00    +0.000 A 
ATOM      3  C   UNL     1       1.860   4.516  20.752  0.00  0.00    +0.000 A 
ATOM      4  C   UNL     1       2.616   4.322  19.601  0.00  0.00    +0.000 A 
ATOM      5  C   UNL     1       2.940   5.401  18.783  0.00  0.00    +0.000 A 
ATOM      6  C   UNL     1       2.506   6.686  19.144  0.00  0.00    +0.000 A 
ENDROOT
BRANCH   1  11
ATOM      7  C   UNL     1       0.282  10.436  20.047  0.00  0.00    +0.000 A 
ATOM      8  C   UNL     1       0.297  10.838  21.386  0.00  0.00    +0.000 A 
ATOM      9  C   UNL     1       0.785   9.977  22.364  0.00  0.00    +0.000 A 
ATOM     10  C   UNL     1       1.250   8.706  22.013  0.00  0.00    +0.000 A 
ATOM     11  C   UNL     1       1.276   8.275  20.675  0.00  0.00    +0.000 A 
ATOM     12  C   UNL     1       0.811   9.180  19.704  0.00  0.00    +0.000 A 
BRANCH   7  13
ATOM     13  C   UNL     1      -0.348  11.308  18.980  0.00  0.00    +0.000 C 
BRANCH  13  19
ATOM     14  C   UNL     1      -3.545  10.327  14.591  0.00  0.00    +0.000 C 
ATOM     15  N   UNL     1      -3.841  10.200  16.016  0.00  0.00    +0.000 NA
ATOM     16  C   UNL     1      -4.166  11.504  16.596  0.00  0.00    +0.000 C 
ATOM     17  C   UNL     1      -4.095  11.583  18.120  0.00  0.00    +0.000 C 
ATOM     18  C   UNL     1      -2.684  11.892  18.636  0.00  0.00    +0.000 C 
ATOM     19  N   UNL     1      -1.676  10.821  18.535  0.00  0.00    +0.000 NA
ATOM     20  C   UNL     1      -1.558  10.250  17.181  0.00  0.00    +0.000 C 
ATOM     21  C   UNL     1      -2.801   9.451  16.734  0.00  0.00    +0.000 C 
ENDBRANCH  13  19
ENDBRANCH   7  13
ENDBRANCH   1  11
BRANCH   5  22
ATOM     22  N   UNL     1       3.719   5.281  17.610  0.00  0.00    +0.000 N 
ATOM     23  C   UNL     1       4.716   4.346  17.388  0.00  0.00    +0.000 C 
ATOM     24  O   UNL     1       5.000   3.413  18.130  0.00  0.00    +0.000 OA
ATOM     25  H   UNL     1       3.510   5.948  16.882  0.00  0.00    +0.000 HD
BRANCH  23  26
ATOM     26  C   UNL     1       5.521   4.506  16.142  0.00  0.00    +0.000 A 
ATOM     27  C   UNL     1       6.628   5.368  16.205  0.00  0.00    +0.000 A 
ATOM     28  C   UNL     1       7.419   5.597  15.082  0.00  0.00    +0.000 A 
ATOM     29  C   UNL     1       7.112   4.958  13.886  0.00  0.00    +0.000 A 
ATOM     30 CL   UNL     1       8.072   5.253  12.490  0.00  0.00    +0.000 Cl
ATOM     31  C   UNL     1       6.030   4.079  13.809  0.00  0.00    +0.000 A 
ATOM     32  C   UNL     1       5.234   3.847  14.940  0.00  0.00    +0.000 A 
ENDBRANCH  23  26
ENDBRANCH   5  22
TORSDOF 5
ENDMDL
MODEL 9
REMARK VINA RESULT:      -8.3      4.683      8.472
REMARK  Name = 
REMARK  6 active torsions:
REMARK  status: ('A' for Active; 'I' for Inactive)
REMARK    1  A    between atoms: C_1  and  N_2
REMARK    2  A    between atoms: N_6  and  C_7
REMARK    3  A    between atoms: C_7  and  C_8
REMARK    4  A    between atoms: C_12  and  C_13
REMARK    5  A    between atoms: C_17  and  N_18
REMARK    6  A    between atoms: C_19  and  C_21
REMARK                            x       y       z     vdW  Elec       q    Type
REMARK                         _______ _______ _______ _____ _____    ______ ____
ROOT
ATOM      1  C   UNL     1      -1.059  11.007  18.196  0.00  0.00    +0.000 A 
ATOM      2  C   UNL     1      -0.441  12.012  18.962  0.00  0.00    +0.000 A 
ATOM      3  C   UNL     1       0.896  11.915  19.347  0.00  0.00    +0.000 A 
ATOM      4  C   UNL     1       1.651  10.808  18.974  0.00  0.00    +0.000 A 
ATOM      5  C   UNL     1       1.077   9.788  18.219  0.00  0.00    +0.000 A 
ATOM      6  C   UNL     1      -0.267   9.900  17.830  0.00  0.00    +0.000 A 
ENDROOT
BRANCH   1  11
ATOM      7  C   UNL     1      -4.839  11.526  18.352  0.00  0.00    +0.000 A 
ATOM      8  C   UNL     1      -5.186  11.432  17.001  0.00  0.00    +0.000 A 
ATOM      9  C   UNL     1      -4.203  11.192  16.046  0.00  0.00    +0.000 A 
ATOM     10  C   UNL     1      -2.866  11.055  16.433  0.00  0.00    +0.000 A 
ATOM     11  C   UNL     1      -2.480  11.116  17.784  0.00  0.00    +0.000 A 
ATOM     12  C   UNL     1      -3.500  11.323  18.730  0.00  0.00    +0.000 A 
BRANCH   7  13
ATOM     13  C   UNL     1      -5.871  11.900  19.396  0.00  0.00    +0.000 C 
BRANCH  13  19
ATOM     14  C   UNL     1      -7.113  14.656  24.012  0.00  0.00    +0.000 C 
ATOM     15  N   UNL     1      -5.859  14.593  23.264  0.00  0.00    +0.000 NA
ATOM     16  C   UNL     1      -5.897  15.496  22.112  0.00  0.00    +0.000 C 
ATOM     17  C   UNL     1      -4.844  15.234  21.036  0.00  0.00    +0.000 C 
ATOM     18  C   UNL     1      -5.286  14.179  20.014  0.00  0.00    +0.000 C 
ATOM     19  N   UNL     1      -5.332  12.776  20.464  0.00  0.00    +0.000 NA
ATOM     20  C   UNL     1      -6.115  12.580  21.697  0.00  0.00    +0.000 C 
ATOM     21  C   UNL     1      -5.470  13.212  22.950  0.00  0.00    +0.000 C 
ENDBRANCH  13  19
ENDBRANCH   7  13
ENDBRANCH   1  11
BRANCH   5  22
ATOM     22  N   UNL     1       1.788   8.646  17.789  0.00  0.00    +0.000 N 
ATOM     23  C   UNL     1       2.285   7.643  18.604  0.00  0.00    +0.000 C 
ATOM     24  O   UNL     1       2.090   7.538  19.810  0.00  0.00    +0.000 OA
ATOM     25  H   UNL     1       1.934   8.576  16.793  0.00  0.00    +0.000 HD
BRANCH  23  26
ATOM     26  C   UNL     1       3.147   6.614  17.953  0.00  0.00    +0.000 A 
ATOM     27  C   UNL     1       4.268   7.077  17.246  0.00  0.00    +0.000 A 
ATOM     28  C   UNL     1       5.113   6.187  16.585  0.00  0.00    +0.000 A 
ATOM     29  C   UNL     1       4.845   4.824  16.633  0.00  0.00    +0.000 A 
ATOM     30 CL   UNL     1       5.871   3.723  15.802  0.00  0.00    +0.000 Cl
ATOM     31  C   UNL     1       3.748   4.343  17.350  0.00  0.00    +0.000 A 
ATOM     32  C   UNL     1       2.899   5.237  18.018  0.00  0.00    +0.000 A 
ENDBRANCH  23  26
ENDBRANCH   5  22
TORSDOF 5
ENDMDL
