MODEL 1
REMARK VINA RESULT:      -8.2      0.000      0.000
REMARK  Name = 
REMARK  10 active torsions:
REMARK  status: ('A' for Active; 'I' for Inactive)
REMARK    1  A    between atoms: C_1  and  C_2
REMARK    2  A    between atoms: C_6  and  C_7
REMARK    3  A    between atoms: C_8  and  O_9
REMARK    4  A    between atoms: C_8  and  C_17
REMARK    5  A    between atoms: O_9  and  C_10
REMARK    6  A    between atoms: C_10  and  C_12
REMARK    7  A    between atoms: C_12  and  C_13
REMARK    8  A    between atoms: C_13  and  C_14
REMARK    9  A    between atoms: C_14  and  O_16
REMARK   10  A    between atoms: C_24  and  C_25
REMARK                            x       y       z     vdW  Elec       q    Type
REMARK                         _______ _______ _______ _____ _____    ______ ____
ROOT
ATOM      1  C   UNL     1       1.033   8.027  20.908  0.00  0.00    +0.000 C 
ATOM      2  C   UNL     1       2.101   7.441  19.974  0.00  0.00    +0.000 C 
ATOM      3  C   UNL     1       2.202   8.361  18.752  0.00  0.00    +0.000 C 
ATOM      4  C   UNL     1       3.163   7.913  17.665  0.00  0.00    +0.000 C 
ATOM      5  C   UNL     1       3.195   6.405  17.380  0.00  0.00    +0.000 C 
ATOM      6  C   UNL     1       4.449   5.959  16.573  0.00  0.00    +0.000 C 
ATOM      7  C   UNL     1       4.793   6.938  15.442  0.00  0.00    +0.000 C 
ATOM      8  C   UNL     1       5.662   5.497  17.447  0.00  0.00    +0.000 C 
ATOM      9  O   UNL     1       5.227   4.487  18.371  0.00  0.00    +0.000 OA
ATOM     10  C   UNL     1       4.152   4.807  19.242  0.00  0.00    +0.000 C 
ATOM     11  O   UNL     1       3.915   3.643  20.047  0.00  0.00    +0.000 OA
ATOM     12  C   UNL     1       2.737   2.973  19.644  0.00  0.00    +0.000 C 
ATOM     13  C   UNL     1       2.923   1.497  19.989  0.00  0.00    +0.000 C 
ATOM     14  C   UNL     1       1.526   3.550  20.411  0.00  0.00    +0.000 C 
ATOM     15  C   UNL     1       1.643   5.045  20.759  0.00  0.00    +0.000 C 
ATOM     16  C   UNL     1       1.825   5.979  19.544  0.00  0.00    +0.000 C 
ATOM     17  C   UNL     1       2.877   5.411  18.541  0.00  0.00    +0.000 C 
ATOM     18  O   UNL     1       2.117   4.357  17.855  0.00  0.00    +0.000 OA
ATOM     19  O   UNL     1       2.613   3.041  18.224  0.00  0.00    +0.000 OA
ENDROOT
BRANCH   8  20
ATOM     20  C   UNL     1       6.722   4.774  16.490  0.00  0.00    +0.000 C 
ATOM     21  F   UNL     1       7.647   4.041  17.152  0.00  0.00    +0.000 F 
ATOM     22  F   UNL     1       6.106   3.926  15.619  0.00  0.00    +0.000 F 
ATOM     23  F   UNL     1       7.409   5.658  15.723  0.00  0.00    +0.000 F 
ENDBRANCH   8  20
BRANCH   8  24
ATOM     24  O   UNL     1       6.471   6.562  18.092  0.00  0.00    +0.000 OA
BRANCH  24  25
ATOM     25  C   UNL     1       7.504   6.386  18.921  0.00  0.00    +0.000 C 
ATOM     26  O   UNL     1       7.717   5.410  19.617  0.00  0.00    +0.000 OA
BRANCH  25  27
ATOM     27  C   UNL     1       8.546   7.476  18.878  0.00  0.00    +0.000 C 
BRANCH  27  28
ATOM     28  C   UNL     1       8.215   8.626  17.958  0.00  0.00    +0.000 C 
BRANCH  28  29
ATOM     29  C   UNL     1       8.778   9.929  18.476  0.00  0.00    +0.000 C 
ATOM     30  O   UNL     1       8.725  11.011  17.910  0.00  0.00    +0.000 OA
BRANCH  29  31
ATOM     31  O   UNL     1       9.374   9.771  19.681  0.00  0.00    +0.000 OA
ATOM     32  H   UNL     1      10.348   9.843  19.656  0.00  0.00    +0.000 HD
ENDBRANCH  29  31
ENDBRANCH  28  29
ENDBRANCH  27  28
ENDBRANCH  25  27
ENDBRANCH  24  25
ENDBRANCH   8  24
TORSDOF 7
ENDMDL
MODEL 2
REMARK VINA RESULT:      -7.6      0.688      1.100
REMARK  Name = 
REMARK  10 active torsions:
REMARK  status: ('A' for Active; 'I' for Inactive)
REMARK    1  A    between atoms: C_1  and  C_2
REMARK    2  A    between atoms: C_6  and  C_7
REMARK    3  A    between atoms: C_8  and  O_9
REMARK    4  A    between atoms: C_8  and  C_17
REMARK    5  A    between atoms: O_9  and  C_10
REMARK    6  A    between atoms: C_10  and  C_12
REMARK    7  A    between atoms: C_12  and  C_13
REMARK    8  A    between atoms: C_13  and  C_14
REMARK    9  A    between atoms: C_14  and  O_16
REMARK   10  A    between atoms: C_24  and  C_25
REMARK                            x       y       z     vdW  Elec       q    Type
REMARK                         _______ _______ _______ _____ _____    ______ ____
ROOT
ATOM      1  C   UNL     1       1.319   7.433  21.091  0.00  0.00    +0.000 C 
ATOM      2  C   UNL     1       2.387   6.994  20.080  0.00  0.00    +0.000 C 
ATOM      3  C   UNL     1       2.227   7.866  18.830  0.00  0.00    +0.000 C 
ATOM      4  C   UNL     1       3.154   7.539  17.672  0.00  0.00    +0.000 C 
ATOM      5  C   UNL     1       3.414   6.047  17.425  0.00  0.00    +0.000 C 
ATOM      6  C   UNL     1       4.652   5.781  16.519  0.00  0.00    +0.000 C 
ATOM      7  C   UNL     1       4.729   6.756  15.336  0.00  0.00    +0.000 C 
ATOM      8  C   UNL     1       5.996   5.561  17.291  0.00  0.00    +0.000 C 
ATOM      9  O   UNL     1       5.817   4.533  18.277  0.00  0.00    +0.000 OA
ATOM     10  C   UNL     1       4.781   4.707  19.234  0.00  0.00    +0.000 C 
ATOM     11  O   UNL     1       4.813   3.553  20.087  0.00  0.00    +0.000 OA
ATOM     12  C   UNL     1       3.735   2.682  19.810  0.00  0.00    +0.000 C 
ATOM     13  C   UNL     1       4.194   1.272  20.176  0.00  0.00    +0.000 C 
ATOM     14  C   UNL     1       2.513   3.082  20.669  0.00  0.00    +0.000 C 
ATOM     15  C   UNL     1       2.407   4.588  20.965  0.00  0.00    +0.000 C 
ATOM     16  C   UNL     1       2.325   5.489  19.715  0.00  0.00    +0.000 C 
ATOM     17  C   UNL     1       3.368   5.062  18.636  0.00  0.00    +0.000 C 
ATOM     18  O   UNL     1       2.741   3.870  18.050  0.00  0.00    +0.000 OA
ATOM     19  O   UNL     1       3.481   2.670  18.406  0.00  0.00    +0.000 OA
ENDROOT
BRANCH   8  20
ATOM     20  C   UNL     1       7.076   4.985  16.261  0.00  0.00    +0.000 C 
ATOM     21  F   UNL     1       7.795   5.943  15.629  0.00  0.00    +0.000 F 
ATOM     22  F   UNL     1       7.976   4.175  16.886  0.00  0.00    +0.000 F 
ATOM     23  F   UNL     1       6.508   4.228  15.288  0.00  0.00    +0.000 F 
ENDBRANCH   8  20
BRANCH   8  24
ATOM     24  O   UNL     1       6.666   6.771  17.832  0.00  0.00    +0.000 OA
BRANCH  24  25
ATOM     25  C   UNL     1       7.743   6.799  18.623  0.00  0.00    +0.000 C 
ATOM     26  O   UNL     1       8.013   6.007  19.506  0.00  0.00    +0.000 OA
BRANCH  25  27
ATOM     27  C   UNL     1       8.753   7.865  18.283  0.00  0.00    +0.000 C 
BRANCH  27  28
ATOM     28  C   UNL     1       8.177   9.251  18.127  0.00  0.00    +0.000 C 
BRANCH  28  29
ATOM     29  C   UNL     1       9.035  10.288  18.815  0.00  0.00    +0.000 C 
ATOM     30  O   UNL     1       9.303  10.324  20.007  0.00  0.00    +0.000 OA
BRANCH  29  31
ATOM     31  O   UNL     1       9.494  11.214  17.941  0.00  0.00    +0.000 OA
ATOM     32  H   UNL     1       9.681  12.084  18.345  0.00  0.00    +0.000 HD
ENDBRANCH  29  31
ENDBRANCH  28  29
ENDBRANCH  27  28
ENDBRANCH  25  27
ENDBRANCH  24  25
ENDBRANCH   8  24
TORSDOF 7
ENDMDL
MODEL 3
REMARK VINA RESULT:      -7.1      6.901     10.159
REMARK  Name = 
REMARK  10 active torsions:
REMARK  status: ('A' for Active; 'I' for Inactive)
REMARK    1  A    between atoms: C_1  and  C_2
REMARK    2  A    between atoms: C_6  and  C_7
REMARK    3  A    between atoms: C_8  and  O_9
REMARK    4  A    between atoms: C_8  and  C_17
REMARK    5  A    between atoms: O_9  and  C_10
REMARK    6  A    between atoms: C_10  and  C_12
REMARK    7  A    between atoms: C_12  and  C_13
REMARK    8  A    between atoms: C_13  and  C_14
REMARK    9  A    between atoms: C_14  and  O_16
REMARK   10  A    between atoms: C_24  and  C_25
REMARK                            x       y       z     vdW  Elec       q    Type
REMARK                         _______ _______ _______ _____ _____    ______ ____
ROOT
ATOM      1  C   UNL     1      -2.703  16.339  20.710  0.00  0.00    +0.000 C 
ATOM      2  C   UNL     1      -2.047  14.958  20.841  0.00  0.00    +0.000 C 
ATOM      3  C   UNL     1      -2.765  14.210  21.970  0.00  0.00    +0.000 C 
ATOM      4  C   UNL     1      -2.214  12.836  22.308  0.00  0.00    +0.000 C 
ATOM      5  C   UNL     1      -0.685  12.703  22.276  0.00  0.00    +0.000 C 
ATOM      6  C   UNL     1      -0.198  11.225  22.228  0.00  0.00    +0.000 C 
ATOM      7  C   UNL     1      -1.006  10.315  23.164  0.00  0.00    +0.000 C 
ATOM      8  C   UNL     1       0.041  10.658  20.789  0.00  0.00    +0.000 C 
ATOM      9  O   UNL     1       0.916  11.539  20.068  0.00  0.00    +0.000 OA
ATOM     10  C   UNL     1       0.532  12.901  19.949  0.00  0.00    +0.000 C 
ATOM     11  O   UNL     1       1.567  13.555  19.200  0.00  0.00    +0.000 OA
ATOM     12  C   UNL     1       2.367  14.369  20.034  0.00  0.00    +0.000 C 
ATOM     13  C   UNL     1       3.754  14.432  19.399  0.00  0.00    +0.000 C 
ATOM     14  C   UNL     1       1.755  15.786  20.116  0.00  0.00    +0.000 C 
ATOM     15  C   UNL     1       0.220  15.825  20.016  0.00  0.00    +0.000 C 
ATOM     16  C   UNL     1      -0.520  15.011  21.098  0.00  0.00    +0.000 C 
ATOM     17  C   UNL     1       0.131  13.606  21.299  0.00  0.00    +0.000 C 
ATOM     18  O   UNL     1       1.327  13.927  22.089  0.00  0.00    +0.000 OA
ATOM     19  O   UNL     1       2.533  13.732  21.301  0.00  0.00    +0.000 OA
ENDROOT
BRANCH   8  20
ATOM     20  C   UNL     1       0.836   9.276  20.921  0.00  0.00    +0.000 C 
ATOM     21  F   UNL     1       1.545   8.945  19.817  0.00  0.00    +0.000 F 
ATOM     22  F   UNL     1       1.723   9.310  21.955  0.00  0.00    +0.000 F 
ATOM     23  F   UNL     1       0.011   8.229  21.176  0.00  0.00    +0.000 F 
ENDBRANCH   8  20
BRANCH   8  24
ATOM     24  O   UNL     1      -1.163  10.274  20.009  0.00  0.00    +0.000 OA
BRANCH  24  25
ATOM     25  C   UNL     1      -1.632  10.884  18.915  0.00  0.00    +0.000 C 
ATOM     26  O   UNL     1      -2.160  11.978  18.866  0.00  0.00    +0.000 OA
BRANCH  25  27
ATOM     27  C   UNL     1      -1.358  10.161  17.620  0.00  0.00    +0.000 C 
BRANCH  27  28
ATOM     28  C   UNL     1      -2.592   9.688  16.891  0.00  0.00    +0.000 C 
BRANCH  28  29
ATOM     29  C   UNL     1      -2.883  10.545  15.681  0.00  0.00    +0.000 C 
ATOM     30  O   UNL     1      -2.639  10.255  14.519  0.00  0.00    +0.000 OA
BRANCH  29  31
ATOM     31  O   UNL     1      -3.463  11.717  16.028  0.00  0.00    +0.000 OA
ATOM     32  H   UNL     1      -3.820  11.731  16.937  0.00  0.00    +0.000 HD
ENDBRANCH  29  31
ENDBRANCH  28  29
ENDBRANCH  27  28
ENDBRANCH  25  27
ENDBRANCH  24  25
ENDBRANCH   8  24
TORSDOF 7
ENDMDL
MODEL 4
REMARK VINA RESULT:      -6.9      6.854     10.135
REMARK  Name = 
REMARK  10 active torsions:
REMARK  status: ('A' for Active; 'I' for Inactive)
REMARK    1  A    between atoms: C_1  and  C_2
REMARK    2  A    between atoms: C_6  and  C_7
REMARK    3  A    between atoms: C_8  and  O_9
REMARK    4  A    between atoms: C_8  and  C_17
REMARK    5  A    between atoms: O_9  and  C_10
REMARK    6  A    between atoms: C_10  and  C_12
REMARK    7  A    between atoms: C_12  and  C_13
REMARK    8  A    between atoms: C_13  and  C_14
REMARK    9  A    between atoms: C_14  and  O_16
REMARK   10  A    between atoms: C_24  and  C_25
REMARK                            x       y       z     vdW  Elec       q    Type
REMARK                         _______ _______ _______ _____ _____    ______ ____
ROOT
ATOM      1  C   UNL     1      -3.319  15.778  20.841  0.00  0.00    +0.000 C 
ATOM      2  C   UNL     1      -2.498  14.486  20.950  0.00  0.00    +0.000 C 
ATOM      3  C   UNL     1      -3.139  13.622  22.043  0.00  0.00    +0.000 C 
ATOM      4  C   UNL     1      -2.428  12.318  22.356  0.00  0.00    +0.000 C 
ATOM      5  C   UNL     1      -0.894  12.375  22.355  0.00  0.00    +0.000 C 
ATOM      6  C   UNL     1      -0.227  10.971  22.278  0.00  0.00    +0.000 C 
ATOM      7  C   UNL     1      -0.933   9.941  23.173  0.00  0.00    +0.000 C 
ATOM      8  C   UNL     1       0.107  10.479  20.831  0.00  0.00    +0.000 C 
ATOM      9  O   UNL     1       0.880  11.482  20.153  0.00  0.00    +0.000 OA
ATOM     10  C   UNL     1       0.332  12.789  20.061  0.00  0.00    +0.000 C 
ATOM     11  O   UNL     1       1.292  13.587  19.352  0.00  0.00    +0.000 OA
ATOM     12  C   UNL     1       1.968  14.468  20.225  0.00  0.00    +0.000 C 
ATOM     13  C   UNL     1       3.349  14.721  19.622  0.00  0.00    +0.000 C 
ATOM     14  C   UNL     1       1.184  15.796  20.330  0.00  0.00    +0.000 C 
ATOM     15  C   UNL     1      -0.342  15.649  20.198  0.00  0.00    +0.000 C 
ATOM     16  C   UNL     1      -0.995  14.719  21.241  0.00  0.00    +0.000 C 
ATOM     17  C   UNL     1      -0.179  13.400  21.419  0.00  0.00    +0.000 C 
ATOM     18  O   UNL     1       0.954  13.843  22.244  0.00  0.00    +0.000 OA
ATOM     19  O   UNL     1       2.189  13.822  21.478  0.00  0.00    +0.000 OA
ENDROOT
BRANCH   8  20
ATOM     20  C   UNL     1       1.064   9.202  20.944  0.00  0.00    +0.000 C 
ATOM     21  F   UNL     1       0.401   8.034  21.114  0.00  0.00    +0.000 F 
ATOM     22  F   UNL     1       1.829   9.054  19.826  0.00  0.00    +0.000 F 
ATOM     23  F   UNL     1       1.936   9.303  21.979  0.00  0.00    +0.000 F 
ENDBRANCH   8  20
BRANCH   8  24
ATOM     24  O   UNL     1      -1.026   9.972  20.015  0.00  0.00    +0.000 OA
BRANCH  24  25
ATOM     25  C   UNL     1      -1.199  10.141  18.700  0.00  0.00    +0.000 C 
ATOM     26  O   UNL     1      -0.424   9.817  17.820  0.00  0.00    +0.000 OA
BRANCH  25  27
ATOM     27  C   UNL     1      -2.548  10.686  18.303  0.00  0.00    +0.000 C 
BRANCH  27  28
ATOM     28  C   UNL     1      -3.206   9.959  17.155  0.00  0.00    +0.000 C 
BRANCH  28  29
ATOM     29  C   UNL     1      -3.566  10.907  16.034  0.00  0.00    +0.000 C 
ATOM     30  O   UNL     1      -3.323  10.742  14.847  0.00  0.00    +0.000 OA
BRANCH  29  31
ATOM     31  O   UNL     1      -4.208  12.005  16.495  0.00  0.00    +0.000 OA
ATOM     32  H   UNL     1      -3.624  12.773  16.651  0.00  0.00    +0.000 HD
ENDBRANCH  29  31
ENDBRANCH  28  29
ENDBRANCH  27  28
ENDBRANCH  25  27
ENDBRANCH  24  25
ENDBRANCH   8  24
TORSDOF 7
ENDMDL
MODEL 5
REMARK VINA RESULT:      -6.8      0.739      1.300
REMARK  Name = 
REMARK  10 active torsions:
REMARK  status: ('A' for Active; 'I' for Inactive)
REMARK    1  A    between atoms: C_1  and  C_2
REMARK    2  A    between atoms: C_6  and  C_7
REMARK    3  A    between atoms: C_8  and  O_9
REMARK    4  A    between atoms: C_8  and  C_17
REMARK    5  A    between atoms: O_9  and  C_10
REMARK    6  A    between atoms: C_10  and  C_12
REMARK    7  A    between atoms: C_12  and  C_13
REMARK    8  A    between atoms: C_13  and  C_14
REMARK    9  A    between atoms: C_14  and  O_16
REMARK   10  A    between atoms: C_24  and  C_25
REMARK                            x       y       z     vdW  Elec       q    Type
REMARK                         _______ _______ _______ _____ _____    ______ ____
ROOT
ATOM      1  C   UNL     1       1.010   8.418  20.584  0.00  0.00    +0.000 C 
ATOM      2  C   UNL     1       2.127   7.721  19.795  0.00  0.00    +0.000 C 
ATOM      3  C   UNL     1       2.355   8.524  18.509  0.00  0.00    +0.000 C 
ATOM      4  C   UNL     1       3.382   7.954  17.546  0.00  0.00    +0.000 C 
ATOM      5  C   UNL     1       3.383   6.426  17.397  0.00  0.00    +0.000 C 
ATOM      6  C   UNL     1       4.681   5.875  16.737  0.00  0.00    +0.000 C 
ATOM      7  C   UNL     1       5.145   6.739  15.555  0.00  0.00    +0.000 C 
ATOM      8  C   UNL     1       5.805   5.460  17.742  0.00  0.00    +0.000 C 
ATOM      9  O   UNL     1       5.264   4.550  18.713  0.00  0.00    +0.000 OA
ATOM     10  C   UNL     1       4.137   4.977  19.463  0.00  0.00    +0.000 C 
ATOM     11  O   UNL     1       3.798   3.896  20.345  0.00  0.00    +0.000 OA
ATOM     12  C   UNL     1       2.633   3.225  19.908  0.00  0.00    +0.000 C 
ATOM     13  C   UNL     1       2.739   1.782  20.395  0.00  0.00    +0.000 C 
ATOM     14  C   UNL     1       1.386   3.902  20.521  0.00  0.00    +0.000 C 
ATOM     15  C   UNL     1       1.527   5.418  20.745  0.00  0.00    +0.000 C 
ATOM     16  C   UNL     1       1.835   6.234  19.473  0.00  0.00    +0.000 C 
ATOM     17  C   UNL     1       2.942   5.550  18.611  0.00  0.00    +0.000 C 
ATOM     18  O   UNL     1       2.202   4.460  17.961  0.00  0.00    +0.000 OA
ATOM     19  O   UNL     1       2.622   3.169  18.482  0.00  0.00    +0.000 OA
ENDROOT
BRANCH   8  20
ATOM     20  C   UNL     1       6.910   4.626  16.940  0.00  0.00    +0.000 C 
ATOM     21  F   UNL     1       7.534   5.335  15.970  0.00  0.00    +0.000 F 
ATOM     22  F   UNL     1       7.887   4.167  17.772  0.00  0.00    +0.000 F 
ATOM     23  F   UNL     1       6.390   3.527  16.338  0.00  0.00    +0.000 F 
ENDBRANCH   8  20
BRANCH   8  24
ATOM     24  O   UNL     1       6.597   6.556  18.355  0.00  0.00    +0.000 OA
BRANCH  24  25
ATOM     25  C   UNL     1       7.200   7.561  17.711  0.00  0.00    +0.000 C 
ATOM     26  O   UNL     1       6.854   8.054  16.654  0.00  0.00    +0.000 OA
BRANCH  25  27
ATOM     27  C   UNL     1       8.351   8.191  18.454  0.00  0.00    +0.000 C 
BRANCH  27  28
ATOM     28  C   UNL     1       8.608   9.637  18.106  0.00  0.00    +0.000 C 
BRANCH  28  29
ATOM     29  C   UNL     1       9.386  10.338  19.195  0.00  0.00    +0.000 C 
ATOM     30  O   UNL     1       9.129  10.317  20.390  0.00  0.00    +0.000 OA
BRANCH  29  31
ATOM     31  O   UNL     1      10.439  11.024  18.694  0.00  0.00    +0.000 OA
ATOM     32  H   UNL     1      10.510  11.942  19.024  0.00  0.00    +0.000 HD
ENDBRANCH  29  31
ENDBRANCH  28  29
ENDBRANCH  27  28
ENDBRANCH  25  27
ENDBRANCH  24  25
ENDBRANCH   8  24
TORSDOF 7
ENDMDL
MODEL 6
REMARK VINA RESULT:      -6.6      7.632     10.453
REMARK  Name = 
REMARK  10 active torsions:
REMARK  status: ('A' for Active; 'I' for Inactive)
REMARK    1  A    between atoms: C_1  and  C_2
REMARK    2  A    between atoms: C_6  and  C_7
REMARK    3  A    between atoms: C_8  and  O_9
REMARK    4  A    between atoms: C_8  and  C_17
REMARK    5  A    between atoms: O_9  and  C_10
REMARK    6  A    between atoms: C_10  and  C_12
REMARK    7  A    between atoms: C_12  and  C_13
REMARK    8  A    between atoms: C_13  and  C_14
REMARK    9  A    between atoms: C_14  and  O_16
REMARK   10  A    between atoms: C_24  and  C_25
REMARK                            x       y       z     vdW  Elec       q    Type
REMARK                         _______ _______ _______ _____ _____    ______ ____
ROOT
ATOM      1  C   UNL     1       2.053   9.474  17.817  0.00  0.00    +0.000 C 
ATOM      2  C   UNL     1       0.961  10.308  18.499  0.00  0.00    +0.000 C 
ATOM      3  C   UNL     1      -0.395   9.728  18.079  0.00  0.00    +0.000 C 
ATOM      4  C   UNL     1      -1.618  10.463  18.596  0.00  0.00    +0.000 C 
ATOM      5  C   UNL     1      -1.518  11.994  18.619  0.00  0.00    +0.000 C 
ATOM      6  C   UNL     1      -2.601  12.668  19.512  0.00  0.00    +0.000 C 
ATOM      7  C   UNL     1      -3.981  12.014  19.346  0.00  0.00    +0.000 C 
ATOM      8  C   UNL     1      -2.163  12.934  20.990  0.00  0.00    +0.000 C 
ATOM      9  O   UNL     1      -0.927  13.666  20.995  0.00  0.00    +0.000 OA
ATOM     10  C   UNL     1       0.178  13.105  20.301  0.00  0.00    +0.000 C 
ATOM     11  O   UNL     1       1.270  14.023  20.456  0.00  0.00    +0.000 OA
ATOM     12  C   UNL     1       1.514  14.735  19.260  0.00  0.00    +0.000 C 
ATOM     13  C   UNL     1       2.113  16.082  19.657  0.00  0.00    +0.000 C 
ATOM     14  C   UNL     1       2.514  13.947  18.384  0.00  0.00    +0.000 C 
ATOM     15  C   UNL     1       2.417  12.417  18.523  0.00  0.00    +0.000 C 
ATOM     16  C   UNL     1       1.035  11.822  18.180  0.00  0.00    +0.000 C 
ATOM     17  C   UNL     1      -0.118  12.656  18.820  0.00  0.00    +0.000 C 
ATOM     18  O   UNL     1      -0.190  13.824  17.932  0.00  0.00    +0.000 OA
ATOM     19  O   UNL     1       0.274  15.020  18.614  0.00  0.00    +0.000 OA
ENDROOT
BRANCH   8  20
ATOM     20  C   UNL     1      -3.240  13.906  21.664  0.00  0.00    +0.000 C 
ATOM     21  F   UNL     1      -4.285  13.256  22.229  0.00  0.00    +0.000 F 
ATOM     22  F   UNL     1      -2.679  14.665  22.646  0.00  0.00    +0.000 F 
ATOM     23  F   UNL     1      -3.770  14.784  20.774  0.00  0.00    +0.000 F 
ENDBRANCH   8  20
BRANCH   8  24
ATOM     24  O   UNL     1      -2.148  11.768  21.908  0.00  0.00    +0.000 OA
BRANCH  24  25
ATOM     25  C   UNL     1      -1.252  11.521  22.869  0.00  0.00    +0.000 C 
ATOM     26  O   UNL     1      -0.806  12.324  23.667  0.00  0.00    +0.000 OA
BRANCH  25  27
ATOM     27  C   UNL     1      -0.867  10.071  23.020  0.00  0.00    +0.000 C 
BRANCH  27  28
ATOM     28  C   UNL     1      -0.203   9.467  21.807  0.00  0.00    +0.000 C 
BRANCH  28  29
ATOM     29  C   UNL     1       1.209   9.024  22.111  0.00  0.00    +0.000 C 
ATOM     30  O   UNL     1       1.962   9.534  22.929  0.00  0.00    +0.000 OA
BRANCH  29  31
ATOM     31  O   UNL     1       1.574   7.964  21.354  0.00  0.00    +0.000 OA
ATOM     32  H   UNL     1       2.252   7.394  21.767  0.00  0.00    +0.000 HD
ENDBRANCH  29  31
ENDBRANCH  28  29
ENDBRANCH  27  28
ENDBRANCH  25  27
ENDBRANCH  24  25
ENDBRANCH   8  24
TORSDOF 7
ENDMDL
MODEL 7
REMARK VINA RESULT:      -6.6      6.901     10.201
REMARK  Name = 
REMARK  10 active torsions:
REMARK  status: ('A' for Active; 'I' for Inactive)
REMARK    1  A    between atoms: C_1  and  C_2
REMARK    2  A    between atoms: C_6  and  C_7
REMARK    3  A    between atoms: C_8  and  O_9
REMARK    4  A    between atoms: C_8  and  C_17
REMARK    5  A    between atoms: O_9  and  C_10
REMARK    6  A    between atoms: C_10  and  C_12
REMARK    7  A    between atoms: C_12  and  C_13
REMARK    8  A    between atoms: C_13  and  C_14
REMARK    9  A    between atoms: C_14  and  O_16
REMARK   10  A    between atoms: C_24  and  C_25
REMARK                            x       y       z     vdW  Elec       q    Type
REMARK                         _______ _______ _______ _____ _____    ______ ____
ROOT
ATOM      1  C   UNL     1      -2.975  15.947  20.675  0.00  0.00    +0.000 C 
ATOM      2  C   UNL     1      -2.228  14.614  20.815  0.00  0.00    +0.000 C 
ATOM      3  C   UNL     1      -2.927  13.805  21.914  0.00  0.00    +0.000 C 
ATOM      4  C   UNL     1      -2.292  12.469  22.257  0.00  0.00    +0.000 C 
ATOM      5  C   UNL     1      -0.757  12.443  22.273  0.00  0.00    +0.000 C 
ATOM      6  C   UNL     1      -0.167  11.003  22.227  0.00  0.00    +0.000 C 
ATOM      7  C   UNL     1      -0.938  10.029  23.130  0.00  0.00    +0.000 C 
ATOM      8  C   UNL     1       0.154  10.469  20.792  0.00  0.00    +0.000 C 
ATOM      9  O   UNL     1       0.988  11.417  20.107  0.00  0.00    +0.000 OA
ATOM     10  C   UNL     1       0.514  12.750  19.986  0.00  0.00    +0.000 C 
ATOM     11  O   UNL     1       1.524  13.482  19.276  0.00  0.00    +0.000 OA
ATOM     12  C   UNL     1       2.238  14.340  20.142  0.00  0.00    +0.000 C 
ATOM     13  C   UNL     1       3.637  14.506  19.551  0.00  0.00    +0.000 C 
ATOM     14  C   UNL     1       1.527  15.710  20.216  0.00  0.00    +0.000 C 
ATOM     15  C   UNL     1      -0.003  15.644  20.069  0.00  0.00    +0.000 C 
ATOM     16  C   UNL     1      -0.717  14.769  21.120  0.00  0.00    +0.000 C 
ATOM     17  C   UNL     1       0.023  13.411  21.329  0.00  0.00    +0.000 C 
ATOM     18  O   UNL     1       1.169  13.806  22.159  0.00  0.00    +0.000 OA
ATOM     19  O   UNL     1       2.409  13.704  21.408  0.00  0.00    +0.000 OA
ENDROOT
BRANCH   8  20
ATOM     20  C   UNL     1       1.039   9.144  20.938  0.00  0.00    +0.000 C 
ATOM     21  F   UNL     1       0.311   8.018  21.121  0.00  0.00    +0.000 F 
ATOM     22  F   UNL     1       1.805   8.934  19.830  0.00  0.00    +0.000 F 
ATOM     23  F   UNL     1       1.905   9.215  21.980  0.00  0.00    +0.000 F 
ENDBRANCH   8  20
BRANCH   8  24
ATOM     24  O   UNL     1      -0.996  10.012  19.972  0.00  0.00    +0.000 OA
BRANCH  24  25
ATOM     25  C   UNL     1      -1.112  10.100  18.643  0.00  0.00    +0.000 C 
ATOM     26  O   UNL     1      -0.263   9.810  17.820  0.00  0.00    +0.000 OA
BRANCH  25  27
ATOM     27  C   UNL     1      -2.482  10.494  18.150  0.00  0.00    +0.000 C 
BRANCH  27  28
ATOM     28  C   UNL     1      -2.978  11.823  18.666  0.00  0.00    +0.000 C 
BRANCH  28  29
ATOM     29  C   UNL     1      -4.487  11.864  18.728  0.00  0.00    +0.000 C 
ATOM     30  O   UNL     1      -5.158  12.203  19.692  0.00  0.00    +0.000 OA
BRANCH  29  31
ATOM     31  O   UNL     1      -5.046  11.468  17.561  0.00  0.00    +0.000 OA
ATOM     32  H   UNL     1      -4.484  11.624  16.777  0.00  0.00    +0.000 HD
ENDBRANCH  29  31
ENDBRANCH  28  29
ENDBRANCH  27  28
ENDBRANCH  25  27
ENDBRANCH  24  25
ENDBRANCH   8  24
TORSDOF 7
ENDMDL
MODEL 8
REMARK VINA RESULT:      -6.4      7.849     10.558
REMARK  Name = 
REMARK  10 active torsions:
REMARK  status: ('A' for Active; 'I' for Inactive)
REMARK    1  A    between atoms: C_1  and  C_2
REMARK    2  A    between atoms: C_6  and  C_7
REMARK    3  A    between atoms: C_8  and  O_9
REMARK    4  A    between atoms: C_8  and  C_17
REMARK    5  A    between atoms: O_9  and  C_10
REMARK    6  A    between atoms: C_10  and  C_12
REMARK    7  A    between atoms: C_12  and  C_13
REMARK    8  A    between atoms: C_13  and  C_14
REMARK    9  A    between atoms: C_14  and  O_16
REMARK   10  A    between atoms: C_24  and  C_25
REMARK                            x       y       z     vdW  Elec       q    Type
REMARK                         _______ _______ _______ _____ _____    ______ ____
ROOT
ATOM      1  C   UNL     1       9.012  18.569  22.301  0.00  0.00    +0.000 C 
ATOM      2  C   UNL     1       9.291  17.227  21.611  0.00  0.00    +0.000 C 
ATOM      3  C   UNL     1      10.811  17.080  21.482  0.00  0.00    +0.000 C 
ATOM      4  C   UNL     1      11.297  15.839  20.756  0.00  0.00    +0.000 C 
ATOM      5  C   UNL     1      10.473  15.414  19.532  0.00  0.00    +0.000 C 
ATOM      6  C   UNL     1      10.756  13.952  19.079  0.00  0.00    +0.000 C 
ATOM      7  C   UNL     1      12.251  13.607  19.125  0.00  0.00    +0.000 C 
ATOM      8  C   UNL     1       9.803  12.876  19.697  0.00  0.00    +0.000 C 
ATOM      9  O   UNL     1       8.438  13.259  19.467  0.00  0.00    +0.000 OA
ATOM     10  C   UNL     1       8.022  14.535  19.930  0.00  0.00    +0.000 C 
ATOM     11  O   UNL     1       6.638  14.670  19.574  0.00  0.00    +0.000 OA
ATOM     12  C   UNL     1       6.473  15.558  18.487  0.00  0.00    +0.000 C 
ATOM     13  C   UNL     1       5.211  15.126  17.745  0.00  0.00    +0.000 C 
ATOM     14  C   UNL     1       6.308  17.000  19.019  0.00  0.00    +0.000 C 
ATOM     15  C   UNL     1       7.078  17.294  20.319  0.00  0.00    +0.000 C 
ATOM     16  C   UNL     1       8.603  17.075  20.231  0.00  0.00    +0.000 C 
ATOM     17  C   UNL     1       8.946  15.737  19.503  0.00  0.00    +0.000 C 
ATOM     18  O   UNL     1       8.724  16.084  18.093  0.00  0.00    +0.000 OA
ATOM     19  O   UNL     1       7.555  15.396  17.571  0.00  0.00    +0.000 OA
ENDROOT
BRANCH   8  20
ATOM     20  C   UNL     1      10.007  11.507  18.894  0.00  0.00    +0.000 C 
ATOM     21  F   UNL     1      10.367  11.680  17.601  0.00  0.00    +0.000 F 
ATOM     22  F   UNL     1      10.975  10.736  19.465  0.00  0.00    +0.000 F 
ATOM     23  F   UNL     1       8.884  10.745  18.882  0.00  0.00    +0.000 F 
ENDBRANCH   8  20
BRANCH   8  24
ATOM     24  O   UNL     1      10.063  12.477  21.104  0.00  0.00    +0.000 OA
BRANCH  24  25
ATOM     25  C   UNL     1       9.277  12.718  22.158  0.00  0.00    +0.000 C 
ATOM     26  O   UNL     1       9.255  13.734  22.827  0.00  0.00    +0.000 OA
BRANCH  25  27
ATOM     27  C   UNL     1       8.255  11.648  22.446  0.00  0.00    +0.000 C 
BRANCH  27  28
ATOM     28  C   UNL     1       7.660  11.702  23.832  0.00  0.00    +0.000 C 
BRANCH  28  29
ATOM     29  C   UNL     1       6.166  11.926  23.785  0.00  0.00    +0.000 C 
ATOM     30  O   UNL     1       5.580  12.718  23.061  0.00  0.00    +0.000 OA
BRANCH  29  31
ATOM     31  O   UNL     1       5.515  11.130  24.663  0.00  0.00    +0.000 OA
ATOM     32  H   UNL     1       4.936  10.463  24.244  0.00  0.00    +0.000 HD
ENDBRANCH  29  31
ENDBRANCH  28  29
ENDBRANCH  27  28
ENDBRANCH  25  27
ENDBRANCH  24  25
ENDBRANCH   8  24
TORSDOF 7
ENDMDL
MODEL 9
REMARK VINA RESULT:      -6.3      8.371     10.873
REMARK  Name = 
REMARK  10 active torsions:
REMARK  status: ('A' for Active; 'I' for Inactive)
REMARK    1  A    between atoms: C_1  and  C_2
REMARK    2  A    between atoms: C_6  and  C_7
REMARK    3  A    between atoms: C_8  and  O_9
REMARK    4  A    between atoms: C_8  and  C_17
REMARK    5  A    between atoms: O_9  and  C_10
REMARK    6  A    between atoms: C_10  and  C_12
REMARK    7  A    between atoms: C_12  and  C_13
REMARK    8  A    between atoms: C_13  and  C_14
REMARK    9  A    between atoms: C_14  and  O_16
REMARK   10  A    between atoms: C_24  and  C_25
REMARK                            x       y       z     vdW  Elec       q    Type
REMARK                         _______ _______ _______ _____ _____    ______ ____
ROOT
ATOM      1  C   UNL     1       9.313   9.716  19.043  0.00  0.00    +0.000 C 
ATOM      2  C   UNL     1       9.327  11.248  18.941  0.00  0.00    +0.000 C 
ATOM      3  C   UNL     1      10.276  11.627  17.798  0.00  0.00    +0.000 C 
ATOM      4  C   UNL     1      10.485  13.114  17.578  0.00  0.00    +0.000 C 
ATOM      5  C   UNL     1      10.583  13.971  18.848  0.00  0.00    +0.000 C 
ATOM      6  C   UNL     1      10.391  15.492  18.579  0.00  0.00    +0.000 C 
ATOM      7  C   UNL     1      11.121  15.956  17.310  0.00  0.00    +0.000 C 
ATOM      8  C   UNL     1       8.921  16.006  18.728  0.00  0.00    +0.000 C 
ATOM      9  O   UNL     1       8.407  15.615  20.011  0.00  0.00    +0.000 OA
ATOM     10  C   UNL     1       8.428  14.234  20.339  0.00  0.00    +0.000 C 
ATOM     11  O   UNL     1       7.872  14.117  21.658  0.00  0.00    +0.000 OA
ATOM     12  C   UNL     1       8.878  13.852  22.615  0.00  0.00    +0.000 C 
ATOM     13  C   UNL     1       8.392  14.428  23.943  0.00  0.00    +0.000 C 
ATOM     14  C   UNL     1       9.082  12.325  22.742  0.00  0.00    +0.000 C 
ATOM     15  C   UNL     1       8.842  11.538  21.441  0.00  0.00    +0.000 C 
ATOM     16  C   UNL     1       9.733  11.961  20.255  0.00  0.00    +0.000 C 
ATOM     17  C   UNL     1       9.813  13.515  20.127  0.00  0.00    +0.000 C 
ATOM     18  O   UNL     1      10.749  13.869  21.202  0.00  0.00    +0.000 OA
ATOM     19  O   UNL     1      10.061  14.572  22.273  0.00  0.00    +0.000 OA
ENDROOT
BRANCH   8  20
ATOM     20  C   UNL     1       8.949  17.606  18.746  0.00  0.00    +0.000 C 
ATOM     21  F   UNL     1      10.030  18.127  19.372  0.00  0.00    +0.000 F 
ATOM     22  F   UNL     1       8.952  18.117  17.482  0.00  0.00    +0.000 F 
ATOM     23  F   UNL     1       7.859  18.134  19.357  0.00  0.00    +0.000 F 
ENDBRANCH   8  20
BRANCH   8  24
ATOM     24  O   UNL     1       7.986  15.704  17.615  0.00  0.00    +0.000 OA
BRANCH  24  25
ATOM     25  C   UNL     1       6.924  14.893  17.664  0.00  0.00    +0.000 C 
ATOM     26  O   UNL     1       6.917  13.695  17.450  0.00  0.00    +0.000 OA
BRANCH  25  27
ATOM     27  C   UNL     1       5.651  15.544  18.144  0.00  0.00    +0.000 C 
BRANCH  27  28
ATOM     28  C   UNL     1       4.456  14.623  18.197  0.00  0.00    +0.000 C 
BRANCH  28  29
ATOM     29  C   UNL     1       3.709  14.762  19.504  0.00  0.00    +0.000 C 
ATOM     30  O   UNL     1       4.149  14.505  20.615  0.00  0.00    +0.000 OA
BRANCH  29  31
ATOM     31  O   UNL     1       2.450  15.218  19.312  0.00  0.00    +0.000 OA
ATOM     32  H   UNL     1       1.995  15.490  20.133  0.00  0.00    +0.000 HD
ENDBRANCH  29  31
ENDBRANCH  28  29
ENDBRANCH  27  28
ENDBRANCH  25  27
ENDBRANCH  24  25
ENDBRANCH   8  24
TORSDOF 7
ENDMDL
