MODEL 1
REMARK VINA RESULT:      -7.6      0.000      0.000
REMARK  Name = 
REMARK  7 active torsions:
REMARK  status: ('A' for Active; 'I' for Inactive)
REMARK    1  A    between atoms: C_2  and  C_3
REMARK    2  A    between atoms: C_2  and  C_18
REMARK    3  A    between atoms: C_3  and  C_4
REMARK    4  A    between atoms: C_4  and  C_5
REMARK    5  A    between atoms: C_5  and  S_6
REMARK    6  A    between atoms: S_6  and  C_7
REMARK    7  A    between atoms: N_11  and  C_12
REMARK                            x       y       z     vdW  Elec       q    Type
REMARK                         _______ _______ _______ _____ _____    ______ ____
ROOT
ATOM      1  C   UNL     1       6.452   4.488  17.254  0.00  0.00    +0.000 C 
ENDROOT
BRANCH   1   2
ATOM      2  C   UNL     1       5.788   5.810  17.661  0.00  0.00    +0.000 C 
BRANCH   2   3
ATOM      3  C   UNL     1       4.537   6.212  16.865  0.00  0.00    +0.000 C 
BRANCH   3   5
ATOM      4  O   UNL     1       3.158   7.933  17.854  0.00  0.00    +0.000 OA
ATOM      5  C   UNL     1       3.413   6.739  17.742  0.00  0.00    +0.000 C 
BRANCH   5   6
ATOM      6  C   UNL     1       2.588   5.761  18.507  0.00  0.00    +0.000 A 
ATOM      7  C   UNL     1       2.311   5.935  19.869  0.00  0.00    +0.000 A 
ATOM      8  C   UNL     1       1.588   4.958  20.557  0.00  0.00    +0.000 A 
ATOM      9  C   UNL     1       1.139   3.826  19.883  0.00  0.00    +0.000 A 
ATOM     10  F   UNL     1       0.458   2.888  20.554  0.00  0.00    +0.000 F 
ATOM     11  C   UNL     1       1.395   3.649  18.529  0.00  0.00    +0.000 A 
ATOM     12  C   UNL     1       2.127   4.616  17.838  0.00  0.00    +0.000 A 
ENDBRANCH   5   6
ENDBRANCH   3   5
ENDBRANCH   2   3
ENDBRANCH   1   2
BRANCH   1  13
ATOM     13  S   UNL     1       5.793   3.903  15.675  0.00  0.00    +0.000 S 
BRANCH  13  14
ATOM     14  C   UNL     1       6.809   4.713  14.526  0.00  0.00    +0.000 A 
ATOM     15  N   UNL     1       7.730   5.608  14.804  0.00  0.00    +0.000 NA
ATOM     16  N   UNL     1       8.455   5.771  13.652  0.00  0.00    +0.000 NA
ATOM     17  N   UNL     1       8.012   4.976  12.688  0.00  0.00    +0.000 NA
ATOM     18  N   UNL     1       6.904   4.367  13.186  0.00  0.00    +0.000 N 
BRANCH  18  19
ATOM     19  C   UNL     1       6.082   3.548  12.371  0.00  0.00    +0.000 A 
ATOM     20  C   UNL     1       6.580   2.327  11.896  0.00  0.00    +0.000 A 
ATOM     21  C   UNL     1       5.757   1.493  11.134  0.00  0.00    +0.000 A 
ATOM     22  C   UNL     1       4.457   1.885  10.817  0.00  0.00    +0.000 A 
ATOM     23  C   UNL     1       3.975   3.117  11.252  0.00  0.00    +0.000 A 
ATOM     24  C   UNL     1       4.787   3.947  12.024  0.00  0.00    +0.000 A 
ENDBRANCH  18  19
ENDBRANCH  13  14
ENDBRANCH   1  13
TORSDOF 7
ENDMDL
MODEL 2
REMARK VINA RESULT:      -7.6      4.126      5.817
REMARK  Name = 
REMARK  7 active torsions:
REMARK  status: ('A' for Active; 'I' for Inactive)
REMARK    1  A    between atoms: C_2  and  C_3
REMARK    2  A    between atoms: C_2  and  C_18
REMARK    3  A    between atoms: C_3  and  C_4
REMARK    4  A    between atoms: C_4  and  C_5
REMARK    5  A    between atoms: C_5  and  S_6
REMARK    6  A    between atoms: S_6  and  C_7
REMARK    7  A    between atoms: N_11  and  C_12
REMARK                            x       y       z     vdW  Elec       q    Type
REMARK                         _______ _______ _______ _____ _____    ______ ____
ROOT
ATOM      1  C   UNL     1       4.697   6.816  16.228  0.00  0.00    +0.000 C 
ENDROOT
BRANCH   1   2
ATOM      2  C   UNL     1       4.157   7.327  17.570  0.00  0.00    +0.000 C 
BRANCH   2   3
ATOM      3  C   UNL     1       2.629   7.340  17.724  0.00  0.00    +0.000 C 
BRANCH   3   5
ATOM      4  O   UNL     1       2.213   9.688  17.330  0.00  0.00    +0.000 OA
ATOM      5  C   UNL     1       2.073   8.713  18.060  0.00  0.00    +0.000 C 
BRANCH   5   6
ATOM      6  C   UNL     1       1.330   8.887  19.341  0.00  0.00    +0.000 A 
ATOM      7  C   UNL     1       0.384   9.906  19.514  0.00  0.00    +0.000 A 
ATOM      8  C   UNL     1      -0.239  10.067  20.754  0.00  0.00    +0.000 A 
ATOM      9  C   UNL     1       0.075   9.209  21.804  0.00  0.00    +0.000 A 
ATOM     10  F   UNL     1      -0.516   9.380  22.993  0.00  0.00    +0.000 F 
ATOM     11  C   UNL     1       1.001   8.186  21.640  0.00  0.00    +0.000 A 
ATOM     12  C   UNL     1       1.635   8.026  20.407  0.00  0.00    +0.000 A 
ENDBRANCH   5   6
ENDBRANCH   3   5
ENDBRANCH   2   3
ENDBRANCH   1   2
BRANCH   1  13
ATOM     13  S   UNL     1       4.958   5.027  16.283  0.00  0.00    +0.000 S 
BRANCH  13  14
ATOM     14  C   UNL     1       5.893   4.833  17.732  0.00  0.00    +0.000 A 
ATOM     15  N   UNL     1       7.160   5.145  17.880  0.00  0.00    +0.000 NA
ATOM     16  N   UNL     1       7.406   5.084  19.228  0.00  0.00    +0.000 NA
ATOM     17  N   UNL     1       6.309   4.767  19.902  0.00  0.00    +0.000 NA
ATOM     18  N   UNL     1       5.358   4.504  18.968  0.00  0.00    +0.000 N 
BRANCH  18  19
ATOM     19  C   UNL     1       4.087   3.991  19.331  0.00  0.00    +0.000 A 
ATOM     20  C   UNL     1       3.703   2.719  18.883  0.00  0.00    +0.000 A 
ATOM     21  C   UNL     1       2.472   2.188  19.280  0.00  0.00    +0.000 A 
ATOM     22  C   UNL     1       1.613   2.931  20.089  0.00  0.00    +0.000 A 
ATOM     23  C   UNL     1       1.975   4.211  20.500  0.00  0.00    +0.000 A 
ATOM     24  C   UNL     1       3.207   4.741  20.118  0.00  0.00    +0.000 A 
ENDBRANCH  18  19
ENDBRANCH  13  14
ENDBRANCH   1  13
TORSDOF 7
ENDMDL
MODEL 3
REMARK VINA RESULT:      -7.5      0.705      1.237
REMARK  Name = 
REMARK  7 active torsions:
REMARK  status: ('A' for Active; 'I' for Inactive)
REMARK    1  A    between atoms: C_2  and  C_3
REMARK    2  A    between atoms: C_2  and  C_18
REMARK    3  A    between atoms: C_3  and  C_4
REMARK    4  A    between atoms: C_4  and  C_5
REMARK    5  A    between atoms: C_5  and  S_6
REMARK    6  A    between atoms: S_6  and  C_7
REMARK    7  A    between atoms: N_11  and  C_12
REMARK                            x       y       z     vdW  Elec       q    Type
REMARK                         _______ _______ _______ _____ _____    ______ ____
ROOT
ATOM      1  C   UNL     1       6.630   4.592  17.151  0.00  0.00    +0.000 C 
ENDROOT
BRANCH   1   2
ATOM      2  C   UNL     1       5.466   5.176  17.962  0.00  0.00    +0.000 C 
BRANCH   2   3
ATOM      3  C   UNL     1       4.147   5.382  17.202  0.00  0.00    +0.000 C 
BRANCH   3   5
ATOM      4  O   UNL     1       2.555   6.993  18.045  0.00  0.00    +0.000 OA
ATOM      5  C   UNL     1       3.011   5.856  18.092  0.00  0.00    +0.000 C 
BRANCH   5   6
ATOM      6  C   UNL     1       2.428   4.898  19.075  0.00  0.00    +0.000 A 
ATOM      7  C   UNL     1       1.578   3.858  18.677  0.00  0.00    +0.000 A 
ATOM      8  C   UNL     1       1.007   3.026  19.643  0.00  0.00    +0.000 A 
ATOM      9  C   UNL     1       1.293   3.228  20.990  0.00  0.00    +0.000 A 
ATOM     10  F   UNL     1       0.730   2.435  21.909  0.00  0.00    +0.000 F 
ATOM     11  C   UNL     1       2.146   4.248  21.395  0.00  0.00    +0.000 A 
ATOM     12  C   UNL     1       2.712   5.089  20.436  0.00  0.00    +0.000 A 
ENDBRANCH   5   6
ENDBRANCH   3   5
ENDBRANCH   2   3
ENDBRANCH   1   2
BRANCH   1  13
ATOM     13  S   UNL     1       6.029   3.862  15.609  0.00  0.00    +0.000 S 
BRANCH  13  14
ATOM     14  C   UNL     1       6.927   4.738  14.410  0.00  0.00    +0.000 A 
ATOM     15  N   UNL     1       7.802   5.690  14.643  0.00  0.00    +0.000 NA
ATOM     16  N   UNL     1       8.450   5.902  13.454  0.00  0.00    +0.000 NA
ATOM     17  N   UNL     1       8.006   5.083  12.511  0.00  0.00    +0.000 NA
ATOM     18  N   UNL     1       6.968   4.403  13.066  0.00  0.00    +0.000 N 
BRANCH  18  19
ATOM     19  C   UNL     1       6.156   3.534  12.292  0.00  0.00    +0.000 A 
ATOM     20  C   UNL     1       6.687   2.321  11.832  0.00  0.00    +0.000 A 
ATOM     21  C   UNL     1       5.876   1.440  11.112  0.00  0.00    +0.000 A 
ATOM     22  C   UNL     1       4.554   1.776  10.822  0.00  0.00    +0.000 A 
ATOM     23  C   UNL     1       4.038   3.000  11.242  0.00  0.00    +0.000 A 
ATOM     24  C   UNL     1       4.838   3.878  11.971  0.00  0.00    +0.000 A 
ENDBRANCH  18  19
ENDBRANCH  13  14
ENDBRANCH   1  13
TORSDOF 7
ENDMDL
MODEL 4
REMARK VINA RESULT:      -7.5      6.293      8.525
REMARK  Name = 
REMARK  7 active torsions:
REMARK  status: ('A' for Active; 'I' for Inactive)
REMARK    1  A    between atoms: C_2  and  C_3
REMARK    2  A    between atoms: C_2  and  C_18
REMARK    3  A    between atoms: C_3  and  C_4
REMARK    4  A    between atoms: C_4  and  C_5
REMARK    5  A    between atoms: C_5  and  S_6
REMARK    6  A    between atoms: S_6  and  C_7
REMARK    7  A    between atoms: N_11  and  C_12
REMARK                            x       y       z     vdW  Elec       q    Type
REMARK                         _______ _______ _______ _____ _____    ______ ____
ROOT
ATOM      1  C   UNL     1       7.214   7.719  17.679  0.00  0.00    +0.000 C 
ENDROOT
BRANCH   1   2
ATOM      2  C   UNL     1       8.435   8.405  18.305  0.00  0.00    +0.000 C 
BRANCH   2   3
ATOM      3  C   UNL     1       8.577   9.911  18.038  0.00  0.00    +0.000 C 
BRANCH   3   5
ATOM      4  O   UNL     1       9.442  10.262  20.267  0.00  0.00    +0.000 OA
ATOM      5  C   UNL     1       9.388  10.634  19.100  0.00  0.00    +0.000 C 
BRANCH   5   6
ATOM      6  C   UNL     1      10.145  11.857  18.707  0.00  0.00    +0.000 A 
ATOM      7  C   UNL     1      11.009  11.868  17.605  0.00  0.00    +0.000 A 
ATOM      8  C   UNL     1      11.746  13.019  17.316  0.00  0.00    +0.000 A 
ATOM      9  C   UNL     1      11.609  14.149  18.118  0.00  0.00    +0.000 A 
ATOM     10  F   UNL     1      12.330  15.243  17.843  0.00  0.00    +0.000 F 
ATOM     11  C   UNL     1      10.745  14.154  19.207  0.00  0.00    +0.000 A 
ATOM     12  C   UNL     1      10.014  13.003  19.507  0.00  0.00    +0.000 A 
ENDBRANCH   5   6
ENDBRANCH   3   5
ENDBRANCH   2   3
ENDBRANCH   1   2
BRANCH   1  13
ATOM     13  S   UNL     1       7.371   5.919  17.781  0.00  0.00    +0.000 S 
BRANCH  13  14
ATOM     14  C   UNL     1       6.774   5.407  16.235  0.00  0.00    +0.000 A 
ATOM     15  N   UNL     1       7.477   5.308  15.130  0.00  0.00    +0.000 NA
ATOM     16  N   UNL     1       6.688   4.622  14.243  0.00  0.00    +0.000 NA
ATOM     17  N   UNL     1       5.531   4.280  14.794  0.00  0.00    +0.000 NA
ATOM     18  N   UNL     1       5.520   4.855  16.026  0.00  0.00    +0.000 N 
BRANCH  18  19
ATOM     19  C   UNL     1       4.365   4.817  16.848  0.00  0.00    +0.000 A 
ATOM     20  C   UNL     1       3.844   6.013  17.361  0.00  0.00    +0.000 A 
ATOM     21  C   UNL     1       2.677   5.986  18.130  0.00  0.00    +0.000 A 
ATOM     22  C   UNL     1       2.050   4.774  18.417  0.00  0.00    +0.000 A 
ATOM     23  C   UNL     1       2.591   3.581  17.944  0.00  0.00    +0.000 A 
ATOM     24  C   UNL     1       3.747   3.602  17.165  0.00  0.00    +0.000 A 
ENDBRANCH  18  19
ENDBRANCH  13  14
ENDBRANCH   1  13
TORSDOF 7
ENDMDL
MODEL 5
REMARK VINA RESULT:      -7.3      2.295      3.238
REMARK  Name = 
REMARK  7 active torsions:
REMARK  status: ('A' for Active; 'I' for Inactive)
REMARK    1  A    between atoms: C_2  and  C_3
REMARK    2  A    between atoms: C_2  and  C_18
REMARK    3  A    between atoms: C_3  and  C_4
REMARK    4  A    between atoms: C_4  and  C_5
REMARK    5  A    between atoms: C_5  and  S_6
REMARK    6  A    between atoms: S_6  and  C_7
REMARK    7  A    between atoms: N_11  and  C_12
REMARK                            x       y       z     vdW  Elec       q    Type
REMARK                         _______ _______ _______ _____ _____    ______ ____
ROOT
ATOM      1  C   UNL     1       4.011   6.946  17.722  0.00  0.00    +0.000 C 
ENDROOT
BRANCH   1   2
ATOM      2  C   UNL     1       3.597   5.532  18.146  0.00  0.00    +0.000 C 
BRANCH   2   3
ATOM      3  C   UNL     1       3.485   4.493  17.020  0.00  0.00    +0.000 C 
BRANCH   3   5
ATOM      4  O   UNL     1       2.689   2.230  16.722  0.00  0.00    +0.000 OA
ATOM      5  C   UNL     1       2.859   3.184  17.473  0.00  0.00    +0.000 C 
BRANCH   5   6
ATOM      6  C   UNL     1       2.423   3.057  18.893  0.00  0.00    +0.000 A 
ATOM      7  C   UNL     1       3.298   2.626  19.898  0.00  0.00    +0.000 A 
ATOM      8  C   UNL     1       2.825   2.461  21.202  0.00  0.00    +0.000 A 
ATOM      9  C   UNL     1       1.493   2.736  21.496  0.00  0.00    +0.000 A 
ATOM     10  F   UNL     1       1.044   2.561  22.745  0.00  0.00    +0.000 F 
ATOM     11  C   UNL     1       0.618   3.177  20.510  0.00  0.00    +0.000 A 
ATOM     12  C   UNL     1       1.082   3.334  19.203  0.00  0.00    +0.000 A 
ENDBRANCH   5   6
ENDBRANCH   3   5
ENDBRANCH   2   3
ENDBRANCH   1   2
BRANCH   1  13
ATOM     13  S   UNL     1       5.010   6.894  16.214  0.00  0.00    +0.000 S 
BRANCH  13  14
ATOM     14  C   UNL     1       6.427   6.042  16.737  0.00  0.00    +0.000 A 
ATOM     15  N   UNL     1       6.951   6.080  17.942  0.00  0.00    +0.000 NA
ATOM     16  N   UNL     1       7.875   5.068  17.981  0.00  0.00    +0.000 NA
ATOM     17  N   UNL     1       7.906   4.401  16.836  0.00  0.00    +0.000 NA
ATOM     18  N   UNL     1       7.068   5.062  15.995  0.00  0.00    +0.000 N 
BRANCH  18  19
ATOM     19  C   UNL     1       6.963   4.707  14.626  0.00  0.00    +0.000 A 
ATOM     20  C   UNL     1       6.032   3.735  14.235  0.00  0.00    +0.000 A 
ATOM     21  C   UNL     1       5.890   3.418  12.881  0.00  0.00    +0.000 A 
ATOM     22  C   UNL     1       6.693   4.037  11.924  0.00  0.00    +0.000 A 
ATOM     23  C   UNL     1       7.649   4.972  12.316  0.00  0.00    +0.000 A 
ATOM     24  C   UNL     1       7.786   5.302  13.663  0.00  0.00    +0.000 A 
ENDBRANCH  18  19
ENDBRANCH  13  14
ENDBRANCH   1  13
TORSDOF 7
ENDMDL
MODEL 6
REMARK VINA RESULT:      -7.3      4.496      6.085
REMARK  Name = 
REMARK  7 active torsions:
REMARK  status: ('A' for Active; 'I' for Inactive)
REMARK    1  A    between atoms: C_2  and  C_3
REMARK    2  A    between atoms: C_2  and  C_18
REMARK    3  A    between atoms: C_3  and  C_4
REMARK    4  A    between atoms: C_4  and  C_5
REMARK    5  A    between atoms: C_5  and  S_6
REMARK    6  A    between atoms: S_6  and  C_7
REMARK    7  A    between atoms: N_11  and  C_12
REMARK                            x       y       z     vdW  Elec       q    Type
REMARK                         _______ _______ _______ _____ _____    ______ ____
ROOT
ATOM      1  C   UNL     1       4.013   7.502  17.347  0.00  0.00    +0.000 C 
ENDROOT
BRANCH   1   2
ATOM      2  C   UNL     1       2.631   7.072  17.853  0.00  0.00    +0.000 C 
BRANCH   2   3
ATOM      3  C   UNL     1       2.195   7.652  19.208  0.00  0.00    +0.000 C 
BRANCH   3   5
ATOM      4  O   UNL     1       1.552   9.689  18.077  0.00  0.00    +0.000 OA
ATOM      5  C   UNL     1       1.497   8.996  19.087  0.00  0.00    +0.000 C 
BRANCH   5   6
ATOM      6  C   UNL     1       0.715   9.500  20.252  0.00  0.00    +0.000 A 
ATOM      7  C   UNL     1      -0.170  10.579  20.136  0.00  0.00    +0.000 A 
ATOM      8  C   UNL     1      -0.831  11.056  21.270  0.00  0.00    +0.000 A 
ATOM      9  C   UNL     1      -0.613  10.450  22.505  0.00  0.00    +0.000 A 
ATOM     10  F   UNL     1      -1.240  10.922  23.589  0.00  0.00    +0.000 F 
ATOM     11  C   UNL     1       0.252   9.370  22.630  0.00  0.00    +0.000 A 
ATOM     12  C   UNL     1       0.924   8.896  21.502  0.00  0.00    +0.000 A 
ENDBRANCH   5   6
ENDBRANCH   3   5
ENDBRANCH   2   3
ENDBRANCH   1   2
BRANCH   1  13
ATOM     13  S   UNL     1       4.888   6.100  16.611  0.00  0.00    +0.000 S 
BRANCH  13  14
ATOM     14  C   UNL     1       5.717   5.422  17.975  0.00  0.00    +0.000 A 
ATOM     15  N   UNL     1       6.913   5.763  18.400  0.00  0.00    +0.000 NA
ATOM     16  N   UNL     1       7.051   5.183  19.635  0.00  0.00    +0.000 NA
ATOM     17  N   UNL     1       5.957   4.518  19.979  0.00  0.00    +0.000 NA
ATOM     18  N   UNL     1       5.133   4.571  18.900  0.00  0.00    +0.000 N 
BRANCH  18  19
ATOM     19  C   UNL     1       3.919   3.838  18.861  0.00  0.00    +0.000 A 
ATOM     20  C   UNL     1       3.693   2.933  17.814  0.00  0.00    +0.000 A 
ATOM     21  C   UNL     1       2.520   2.173  17.799  0.00  0.00    +0.000 A 
ATOM     22  C   UNL     1       1.562   2.334  18.800  0.00  0.00    +0.000 A 
ATOM     23  C   UNL     1       1.767   3.263  19.817  0.00  0.00    +0.000 A 
ATOM     24  C   UNL     1       2.940   4.016  19.845  0.00  0.00    +0.000 A 
ENDBRANCH  18  19
ENDBRANCH  13  14
ENDBRANCH   1  13
TORSDOF 7
ENDMDL
MODEL 7
REMARK VINA RESULT:      -7.2      2.342      3.407
REMARK  Name = 
REMARK  7 active torsions:
REMARK  status: ('A' for Active; 'I' for Inactive)
REMARK    1  A    between atoms: C_2  and  C_3
REMARK    2  A    between atoms: C_2  and  C_18
REMARK    3  A    between atoms: C_3  and  C_4
REMARK    4  A    between atoms: C_4  and  C_5
REMARK    5  A    between atoms: C_5  and  S_6
REMARK    6  A    between atoms: S_6  and  C_7
REMARK    7  A    between atoms: N_11  and  C_12
REMARK                            x       y       z     vdW  Elec       q    Type
REMARK                         _______ _______ _______ _____ _____    ______ ____
ROOT
ATOM      1  C   UNL     1       3.689   5.961  17.346  0.00  0.00    +0.000 C 
ENDROOT
BRANCH   1   2
ATOM      2  C   UNL     1       2.890   6.961  18.191  0.00  0.00    +0.000 C 
BRANCH   2   3
ATOM      3  C   UNL     1       2.830   6.677  19.700  0.00  0.00    +0.000 C 
BRANCH   3   5
ATOM      4  O   UNL     1       0.958   5.479  20.650  0.00  0.00    +0.000 OA
ATOM      5  C   UNL     1       2.023   5.436  20.044  0.00  0.00    +0.000 C 
BRANCH   5   6
ATOM      6  C   UNL     1       2.554   4.105  19.634  0.00  0.00    +0.000 A 
ATOM      7  C   UNL     1       3.846   3.688  19.979  0.00  0.00    +0.000 A 
ATOM      8  C   UNL     1       4.322   2.458  19.517  0.00  0.00    +0.000 A 
ATOM      9  C   UNL     1       3.506   1.652  18.727  0.00  0.00    +0.000 A 
ATOM     10  F   UNL     1       3.974   0.482  18.277  0.00  0.00    +0.000 F 
ATOM     11  C   UNL     1       2.217   2.049  18.391  0.00  0.00    +0.000 A 
ATOM     12  C   UNL     1       1.740   3.282  18.840  0.00  0.00    +0.000 A 
ENDBRANCH   5   6
ENDBRANCH   3   5
ENDBRANCH   2   3
ENDBRANCH   1   2
BRANCH   1  13
ATOM     13  S   UNL     1       5.042   6.795  16.480  0.00  0.00    +0.000 S 
BRANCH  13  14
ATOM     14  C   UNL     1       6.427   5.886  16.993  0.00  0.00    +0.000 A 
ATOM     15  N   UNL     1       6.903   5.828  18.217  0.00  0.00    +0.000 NA
ATOM     16  N   UNL     1       7.813   4.802  18.216  0.00  0.00    +0.000 NA
ATOM     17  N   UNL     1       7.881   4.220  17.027  0.00  0.00    +0.000 NA
ATOM     18  N   UNL     1       7.085   4.954  16.206  0.00  0.00    +0.000 N 
BRANCH  18  19
ATOM     19  C   UNL     1       7.030   4.702  14.811  0.00  0.00    +0.000 A 
ATOM     20  C   UNL     1       6.146   3.730  14.320  0.00  0.00    +0.000 A 
ATOM     21  C   UNL     1       6.053   3.514  12.942  0.00  0.00    +0.000 A 
ATOM     22  C   UNL     1       6.857   4.234  12.059  0.00  0.00    +0.000 A 
ATOM     23  C   UNL     1       7.765   5.169  12.549  0.00  0.00    +0.000 A 
ATOM     24  C   UNL     1       7.854   5.400  13.921  0.00  0.00    +0.000 A 
ENDBRANCH  18  19
ENDBRANCH  13  14
ENDBRANCH   1  13
TORSDOF 7
ENDMDL
MODEL 8
REMARK VINA RESULT:      -7.2      4.625      6.463
REMARK  Name = 
REMARK  7 active torsions:
REMARK  status: ('A' for Active; 'I' for Inactive)
REMARK    1  A    between atoms: C_2  and  C_3
REMARK    2  A    between atoms: C_2  and  C_18
REMARK    3  A    between atoms: C_3  and  C_4
REMARK    4  A    between atoms: C_4  and  C_5
REMARK    5  A    between atoms: C_5  and  S_6
REMARK    6  A    between atoms: S_6  and  C_7
REMARK    7  A    between atoms: N_11  and  C_12
REMARK                            x       y       z     vdW  Elec       q    Type
REMARK                         _______ _______ _______ _____ _____    ______ ____
ROOT
ATOM      1  C   UNL     1       2.561   6.797  19.074  0.00  0.00    +0.000 C 
ENDROOT
BRANCH   1   2
ATOM      2  C   UNL     1       2.670   7.919  18.034  0.00  0.00    +0.000 C 
BRANCH   2   3
ATOM      3  C   UNL     1       1.426   8.805  17.861  0.00  0.00    +0.000 C 
BRANCH   3   5
ATOM      4  O   UNL     1       2.108  11.091  18.247  0.00  0.00    +0.000 OA
ATOM      5  C   UNL     1       1.501  10.103  18.646  0.00  0.00    +0.000 C 
BRANCH   5   6
ATOM      6  C   UNL     1       0.813  10.178  19.967  0.00  0.00    +0.000 A 
ATOM      7  C   UNL     1       0.908   9.145  20.908  0.00  0.00    +0.000 A 
ATOM      8  C   UNL     1       0.193   9.233  22.105  0.00  0.00    +0.000 A 
ATOM      9  C   UNL     1      -0.600  10.349  22.358  0.00  0.00    +0.000 A 
ATOM     10  F   UNL     1      -1.293  10.418  23.501  0.00  0.00    +0.000 F 
ATOM     11  C   UNL     1      -0.691  11.386  21.438  0.00  0.00    +0.000 A 
ATOM     12  C   UNL     1       0.013  11.299  20.235  0.00  0.00    +0.000 A 
ENDBRANCH   5   6
ENDBRANCH   3   5
ENDBRANCH   2   3
ENDBRANCH   1   2
BRANCH   1  13
ATOM     13  S   UNL     1       2.239   5.209  18.269  0.00  0.00    +0.000 S 
BRANCH  13  14
ATOM     14  C   UNL     1       3.201   4.115  19.211  0.00  0.00    +0.000 A 
ATOM     15  N   UNL     1       2.744   3.187  20.021  0.00  0.00    +0.000 NA
ATOM     16  N   UNL     1       3.822   2.399  20.335  0.00  0.00    +0.000 NA
ATOM     17  N   UNL     1       4.917   2.813  19.712  0.00  0.00    +0.000 NA
ATOM     18  N   UNL     1       4.571   3.961  19.072  0.00  0.00    +0.000 N 
BRANCH  18  19
ATOM     19  C   UNL     1       5.541   4.761  18.415  0.00  0.00    +0.000 A 
ATOM     20  C   UNL     1       5.546   4.829  17.015  0.00  0.00    +0.000 A 
ATOM     21  C   UNL     1       6.467   5.655  16.365  0.00  0.00    +0.000 A 
ATOM     22  C   UNL     1       7.401   6.383  17.101  0.00  0.00    +0.000 A 
ATOM     23  C   UNL     1       7.426   6.283  18.490  0.00  0.00    +0.000 A 
ATOM     24  C   UNL     1       6.501   5.472  19.145  0.00  0.00    +0.000 A 
ENDBRANCH  18  19
ENDBRANCH  13  14
ENDBRANCH   1  13
TORSDOF 7
ENDMDL
MODEL 9
REMARK VINA RESULT:      -7.2      5.655      7.899
REMARK  Name = 
REMARK  7 active torsions:
REMARK  status: ('A' for Active; 'I' for Inactive)
REMARK    1  A    between atoms: C_2  and  C_3
REMARK    2  A    between atoms: C_2  and  C_18
REMARK    3  A    between atoms: C_3  and  C_4
REMARK    4  A    between atoms: C_4  and  C_5
REMARK    5  A    between atoms: C_5  and  S_6
REMARK    6  A    between atoms: S_6  and  C_7
REMARK    7  A    between atoms: N_11  and  C_12
REMARK                            x       y       z     vdW  Elec       q    Type
REMARK                         _______ _______ _______ _____ _____    ______ ____
ROOT
ATOM      1  C   UNL     1       1.885   3.324  17.577  0.00  0.00    +0.000 C 
ENDROOT
BRANCH   1   2
ATOM      2  C   UNL     1       3.155   2.702  18.170  0.00  0.00    +0.000 C 
BRANCH   2   3
ATOM      3  C   UNL     1       4.489   3.242  17.630  0.00  0.00    +0.000 C 
BRANCH   3   5
ATOM      4  O   UNL     1       5.415   3.461  19.852  0.00  0.00    +0.000 OA
ATOM      5  C   UNL     1       5.353   3.884  18.702  0.00  0.00    +0.000 C 
BRANCH   5   6
ATOM      6  C   UNL     1       6.155   5.089  18.344  0.00  0.00    +0.000 A 
ATOM      7  C   UNL     1       7.302   5.451  19.061  0.00  0.00    +0.000 A 
ATOM      8  C   UNL     1       7.983   6.625  18.727  0.00  0.00    +0.000 A 
ATOM      9  C   UNL     1       7.524   7.418  17.680  0.00  0.00    +0.000 A 
ATOM     10  F   UNL     1       8.174   8.548  17.376  0.00  0.00    +0.000 F 
ATOM     11  C   UNL     1       6.395   7.061  16.952  0.00  0.00    +0.000 A 
ATOM     12  C   UNL     1       5.704   5.895  17.288  0.00  0.00    +0.000 A 
ENDBRANCH   5   6
ENDBRANCH   3   5
ENDBRANCH   2   3
ENDBRANCH   1   2
BRANCH   1  13
ATOM     13  S   UNL     1       0.509   3.201  18.745  0.00  0.00    +0.000 S 
BRANCH  13  14
ATOM     14  C   UNL     1       1.302   3.403  20.275  0.00  0.00    +0.000 A 
ATOM     15  N   UNL     1       1.532   2.457  21.157  0.00  0.00    +0.000 NA
ATOM     16  N   UNL     1       2.403   2.997  22.068  0.00  0.00    +0.000 NA
ATOM     17  N   UNL     1       2.727   4.242  21.744  0.00  0.00    +0.000 NA
ATOM     18  N   UNL     1       1.963   4.558  20.665  0.00  0.00    +0.000 N 
BRANCH  18  19
ATOM     19  C   UNL     1       1.943   5.872  20.134  0.00  0.00    +0.000 A 
ATOM     20  C   UNL     1       1.343   6.905  20.868  0.00  0.00    +0.000 A 
ATOM     21  C   UNL     1       1.365   8.211  20.371  0.00  0.00    +0.000 A 
ATOM     22  C   UNL     1       1.951   8.485  19.135  0.00  0.00    +0.000 A 
ATOM     23  C   UNL     1       2.510   7.453  18.385  0.00  0.00    +0.000 A 
ATOM     24  C   UNL     1       2.503   6.150  18.881  0.00  0.00    +0.000 A 
ENDBRANCH  18  19
ENDBRANCH  13  14
ENDBRANCH   1  13
TORSDOF 7
ENDMDL
