MODEL 1
REMARK VINA RESULT:      -5.6      0.000      0.000
REMARK  Name = 
REMARK  8 active torsions:
REMARK  status: ('A' for Active; 'I' for Inactive)
REMARK    1  A    between atoms: C_1  and  O_2
REMARK    2  A    between atoms: O_2  and  C_3
REMARK    3  A    between atoms: C_6  and  C_7
REMARK    4  A    between atoms: C_7  and  C_8
REMARK    5  A    between atoms: C_7  and  N_9
REMARK    6  A    between atoms: C_10  and  C_11
REMARK    7  A    between atoms: C_12  and  O_13
REMARK    8  A    between atoms: O_13  and  C_14
REMARK                            x       y       z     vdW  Elec       q    Type
REMARK                         _______ _______ _______ _____ _____    ______ ____
ROOT
ATOM      1  C   UNL     1       6.906   5.083  15.472  0.00  0.00    +0.000 A 
ATOM      2  C   UNL     1       5.945   4.194  14.982  0.00  0.00    +0.000 A 
ATOM      3  C   UNL     1       4.967   3.672  15.802  0.00  0.00    +0.000 A 
ATOM      4  C   UNL     1       4.896   3.983  17.175  0.00  0.00    +0.000 A 
ATOM      5  C   UNL     1       5.913   4.827  17.696  0.00  0.00    +0.000 A 
ATOM      6  C   UNL     1       6.003   5.147  19.179  0.00  0.00    +0.000 C 
ATOM      7  C   UNL     1       6.897   5.401  16.843  0.00  0.00    +0.000 A 
ENDROOT
BRANCH   1   9
ATOM      8  C   UNL     1       7.742   5.193  13.274  0.00  0.00    +0.000 C 
ATOM      9  O   UNL     1       7.875   5.579  14.642  0.00  0.00    +0.000 OA
ENDBRANCH   1   9
BRANCH   4  10
ATOM     10  C   UNL     1       3.787   3.383  18.039  0.00  0.00    +0.000 C 
ATOM     11  C   UNL     1       2.385   3.701  17.508  0.00  0.00    +0.000 C 
BRANCH  10  12
ATOM     12  N   UNL     1       3.868   1.913  18.168  0.00  0.00    +0.000 NA
ATOM     13  H   UNL     1       4.846   1.656  18.310  0.00  0.00    +0.000 HD
ATOM     14  H   UNL     1       3.603   1.489  17.282  0.00  0.00    +0.000 HD
ENDBRANCH  10  12
ENDBRANCH   4  10
BRANCH   7  15
ATOM     15  O   UNL     1       7.769   6.241  17.497  0.00  0.00    +0.000 OA
ATOM     16  C   UNL     1       7.575   7.644  17.430  0.00  0.00    +0.000 C 
ENDBRANCH   7  15
TORSDOF 4
ENDMDL
MODEL 2
REMARK VINA RESULT:      -5.5      3.310      4.892
REMARK  Name = 
REMARK  8 active torsions:
REMARK  status: ('A' for Active; 'I' for Inactive)
REMARK    1  A    between atoms: C_1  and  O_2
REMARK    2  A    between atoms: O_2  and  C_3
REMARK    3  A    between atoms: C_6  and  C_7
REMARK    4  A    between atoms: C_7  and  C_8
REMARK    5  A    between atoms: C_7  and  N_9
REMARK    6  A    between atoms: C_10  and  C_11
REMARK    7  A    between atoms: C_12  and  O_13
REMARK    8  A    between atoms: O_13  and  C_14
REMARK                            x       y       z     vdW  Elec       q    Type
REMARK                         _______ _______ _______ _____ _____    ______ ____
ROOT
ATOM      1  C   UNL     1       3.256   6.663  17.908  0.00  0.00    +0.000 A 
ATOM      2  C   UNL     1       4.374   7.180  17.248  0.00  0.00    +0.000 A 
ATOM      3  C   UNL     1       5.282   6.353  16.621  0.00  0.00    +0.000 A 
ATOM      4  C   UNL     1       5.148   4.949  16.630  0.00  0.00    +0.000 A 
ATOM      5  C   UNL     1       4.055   4.413  17.362  0.00  0.00    +0.000 A 
ATOM      6  C   UNL     1       3.865   2.915  17.533  0.00  0.00    +0.000 C 
ATOM      7  C   UNL     1       3.093   5.267  17.974  0.00  0.00    +0.000 A 
ENDROOT
BRANCH   1   9
ATOM      8  C   UNL     1       2.071   8.695  17.810  0.00  0.00    +0.000 C 
ATOM      9  O   UNL     1       2.375   7.504  18.535  0.00  0.00    +0.000 OA
ENDBRANCH   1   9
BRANCH   4  10
ATOM     10  C   UNL     1       6.178   4.077  15.913  0.00  0.00    +0.000 C 
ATOM     11  C   UNL     1       5.994   4.073  14.391  0.00  0.00    +0.000 C 
BRANCH  10  12
ATOM     12  N   UNL     1       7.575   4.481  16.170  0.00  0.00    +0.000 NA
ATOM     13  H   UNL     1       7.601   5.495  16.285  0.00  0.00    +0.000 HD
ATOM     14  H   UNL     1       8.133   4.289  15.340  0.00  0.00    +0.000 HD
ENDBRANCH  10  12
ENDBRANCH   4  10
BRANCH   7  15
ATOM     15  O   UNL     1       2.067   4.587  18.588  0.00  0.00    +0.000 OA
ATOM     16  C   UNL     1       1.966   4.597  20.002  0.00  0.00    +0.000 C 
ENDBRANCH   7  15
TORSDOF 4
ENDMDL
MODEL 3
REMARK VINA RESULT:      -5.5      2.615      3.550
REMARK  Name = 
REMARK  8 active torsions:
REMARK  status: ('A' for Active; 'I' for Inactive)
REMARK    1  A    between atoms: C_1  and  O_2
REMARK    2  A    between atoms: O_2  and  C_3
REMARK    3  A    between atoms: C_6  and  C_7
REMARK    4  A    between atoms: C_7  and  C_8
REMARK    5  A    between atoms: C_7  and  N_9
REMARK    6  A    between atoms: C_10  and  C_11
REMARK    7  A    between atoms: C_12  and  O_13
REMARK    8  A    between atoms: O_13  and  C_14
REMARK                            x       y       z     vdW  Elec       q    Type
REMARK                         _______ _______ _______ _____ _____    ______ ____
ROOT
ATOM      1  C   UNL     1       4.109   5.627  17.952  0.00  0.00    +0.000 A 
ATOM      2  C   UNL     1       2.717   5.642  17.832  0.00  0.00    +0.000 A 
ATOM      3  C   UNL     1       1.937   4.662  18.410  0.00  0.00    +0.000 A 
ATOM      4  C   UNL     1       2.498   3.586  19.130  0.00  0.00    +0.000 A 
ATOM      5  C   UNL     1       3.915   3.524  19.192  0.00  0.00    +0.000 A 
ATOM      6  C   UNL     1       4.636   2.357  19.846  0.00  0.00    +0.000 C 
ATOM      7  C   UNL     1       4.719   4.557  18.633  0.00  0.00    +0.000 A 
ENDROOT
BRANCH   1   9
ATOM      8  C   UNL     1       5.187   6.358  15.991  0.00  0.00    +0.000 C 
ATOM      9  O   UNL     1       4.863   6.604  17.359  0.00  0.00    +0.000 OA
ENDBRANCH   1   9
BRANCH   4  10
ATOM     10  C   UNL     1       1.589   2.529  19.757  0.00  0.00    +0.000 C 
ATOM     11  C   UNL     1       1.199   2.866  21.201  0.00  0.00    +0.000 C 
BRANCH  10  12
ATOM     12  N   UNL     1       0.328   2.318  19.016  0.00  0.00    +0.000 NA
ATOM     13  H   UNL     1      -0.249   1.662  19.544  0.00  0.00    +0.000 HD
ATOM     14  H   UNL     1       0.536   1.850  18.137  0.00  0.00    +0.000 HD
ENDBRANCH  10  12
ENDBRANCH   4  10
BRANCH   7  15
ATOM     15  O   UNL     1       6.068   4.375  18.835  0.00  0.00    +0.000 OA
ATOM     16  C   UNL     1       6.835   5.409  19.428  0.00  0.00    +0.000 C 
ENDBRANCH   7  15
TORSDOF 4
ENDMDL
MODEL 4
REMARK VINA RESULT:      -5.4      1.117      1.216
REMARK  Name = 
REMARK  8 active torsions:
REMARK  status: ('A' for Active; 'I' for Inactive)
REMARK    1  A    between atoms: C_1  and  O_2
REMARK    2  A    between atoms: O_2  and  C_3
REMARK    3  A    between atoms: C_6  and  C_7
REMARK    4  A    between atoms: C_7  and  C_8
REMARK    5  A    between atoms: C_7  and  N_9
REMARK    6  A    between atoms: C_10  and  C_11
REMARK    7  A    between atoms: C_12  and  O_13
REMARK    8  A    between atoms: O_13  and  C_14
REMARK                            x       y       z     vdW  Elec       q    Type
REMARK                         _______ _______ _______ _____ _____    ______ ____
ROOT
ATOM      1  C   UNL     1       6.056   5.281  15.808  0.00  0.00    +0.000 A 
ATOM      2  C   UNL     1       4.992   4.376  15.815  0.00  0.00    +0.000 A 
ATOM      3  C   UNL     1       4.509   3.846  16.994  0.00  0.00    +0.000 A 
ATOM      4  C   UNL     1       5.072   4.167  18.246  0.00  0.00    +0.000 A 
ATOM      5  C   UNL     1       6.201   5.028  18.240  0.00  0.00    +0.000 A 
ATOM      6  C   UNL     1       6.959   5.362  19.515  0.00  0.00    +0.000 C 
ATOM      7  C   UNL     1       6.674   5.609  17.029  0.00  0.00    +0.000 A 
ENDROOT
BRANCH   1   9
ATOM      8  C   UNL     1       7.295   4.863  13.851  0.00  0.00    +0.000 C 
ATOM      9  O   UNL     1       6.527   5.784  14.624  0.00  0.00    +0.000 OA
ENDBRANCH   1   9
BRANCH   4  10
ATOM     10  C   UNL     1       4.495   3.559  19.523  0.00  0.00    +0.000 C 
ATOM     11  C   UNL     1       2.963   3.514  19.517  0.00  0.00    +0.000 C 
BRANCH  10  12
ATOM     12  N   UNL     1       4.958   2.180  19.783  0.00  0.00    +0.000 NA
ATOM     13  H   UNL     1       4.149   1.558  19.755  0.00  0.00    +0.000 HD
ATOM     14  H   UNL     1       5.310   2.124  20.736  0.00  0.00    +0.000 HD
ENDBRANCH  10  12
ENDBRANCH   4  10
BRANCH   7  15
ATOM     15  O   UNL     1       7.736   6.466  17.208  0.00  0.00    +0.000 OA
ATOM     16  C   UNL     1       7.497   7.854  17.374  0.00  0.00    +0.000 C 
ENDBRANCH   7  15
TORSDOF 4
ENDMDL
MODEL 5
REMARK VINA RESULT:      -5.4      3.224      5.097
REMARK  Name = 
REMARK  8 active torsions:
REMARK  status: ('A' for Active; 'I' for Inactive)
REMARK    1  A    between atoms: C_1  and  O_2
REMARK    2  A    between atoms: O_2  and  C_3
REMARK    3  A    between atoms: C_6  and  C_7
REMARK    4  A    between atoms: C_7  and  C_8
REMARK    5  A    between atoms: C_7  and  N_9
REMARK    6  A    between atoms: C_10  and  C_11
REMARK    7  A    between atoms: C_12  and  O_13
REMARK    8  A    between atoms: O_13  and  C_14
REMARK                            x       y       z     vdW  Elec       q    Type
REMARK                         _______ _______ _______ _____ _____    ______ ____
ROOT
ATOM      1  C   UNL     1       2.295   4.146  18.290  0.00  0.00    +0.000 A 
ATOM      2  C   UNL     1       2.987   3.045  17.777  0.00  0.00    +0.000 A 
ATOM      3  C   UNL     1       4.182   3.198  17.106  0.00  0.00    +0.000 A 
ATOM      4  C   UNL     1       4.758   4.466  16.882  0.00  0.00    +0.000 A 
ATOM      5  C   UNL     1       4.024   5.594  17.335  0.00  0.00    +0.000 A 
ATOM      6  C   UNL     1       4.489   7.014  17.058  0.00  0.00    +0.000 C 
ATOM      7  C   UNL     1       2.811   5.435  18.064  0.00  0.00    +0.000 A 
ENDROOT
BRANCH   1   9
ATOM      8  C   UNL     1       1.214   3.378  20.235  0.00  0.00    +0.000 C 
ATOM      9  O   UNL     1       1.103   3.969  18.941  0.00  0.00    +0.000 OA
ENDBRANCH   1   9
BRANCH   4  10
ATOM     10  C   UNL     1       6.089   4.581  16.140  0.00  0.00    +0.000 C 
ATOM     11  C   UNL     1       7.298   4.522  17.080  0.00  0.00    +0.000 C 
BRANCH  10  12
ATOM     12  N   UNL     1       6.292   3.528  15.123  0.00  0.00    +0.000 NA
ATOM     13  H   UNL     1       7.190   3.076  15.303  0.00  0.00    +0.000 HD
ATOM     14  H   UNL     1       6.386   3.966  14.209  0.00  0.00    +0.000 HD
ENDBRANCH  10  12
ENDBRANCH   4  10
BRANCH   7  15
ATOM     15  O   UNL     1       2.261   6.625  18.482  0.00  0.00    +0.000 OA
ATOM     16  C   UNL     1       2.290   6.967  19.857  0.00  0.00    +0.000 C 
ENDBRANCH   7  15
TORSDOF 4
ENDMDL
MODEL 6
REMARK VINA RESULT:      -5.3      2.691      4.091
REMARK  Name = 
REMARK  8 active torsions:
REMARK  status: ('A' for Active; 'I' for Inactive)
REMARK    1  A    between atoms: C_1  and  O_2
REMARK    2  A    between atoms: O_2  and  C_3
REMARK    3  A    between atoms: C_6  and  C_7
REMARK    4  A    between atoms: C_7  and  C_8
REMARK    5  A    between atoms: C_7  and  N_9
REMARK    6  A    between atoms: C_10  and  C_11
REMARK    7  A    between atoms: C_12  and  O_13
REMARK    8  A    between atoms: O_13  and  C_14
REMARK                            x       y       z     vdW  Elec       q    Type
REMARK                         _______ _______ _______ _____ _____    ______ ____
ROOT
ATOM      1  C   UNL     1       4.004   5.852  17.665  0.00  0.00    +0.000 A 
ATOM      2  C   UNL     1       3.376   6.276  18.839  0.00  0.00    +0.000 A 
ATOM      3  C   UNL     1       2.704   5.389  19.654  0.00  0.00    +0.000 A 
ATOM      4  C   UNL     1       2.593   4.019  19.339  0.00  0.00    +0.000 A 
ATOM      5  C   UNL     1       3.165   3.594  18.110  0.00  0.00    +0.000 A 
ATOM      6  C   UNL     1       3.018   2.166  17.612  0.00  0.00    +0.000 C 
ATOM      7  C   UNL     1       3.895   4.500  17.289  0.00  0.00    +0.000 A 
ENDROOT
BRANCH   1   9
ATOM      8  C   UNL     1       5.990   7.053  17.270  0.00  0.00    +0.000 C 
ATOM      9  O   UNL     1       4.654   6.754  16.865  0.00  0.00    +0.000 OA
ENDBRANCH   1   9
BRANCH   4  10
ATOM     10  C   UNL     1       1.844   3.076  20.279  0.00  0.00    +0.000 C 
ATOM     11  C   UNL     1       2.179   3.322  21.755  0.00  0.00    +0.000 C 
BRANCH  10  12
ATOM     12  N   UNL     1       0.374   3.165  20.158  0.00  0.00    +0.000 NA
ATOM     13  H   UNL     1       0.028   2.282  19.781  0.00  0.00    +0.000 HD
ATOM     14  H   UNL     1       0.143   3.868  19.459  0.00  0.00    +0.000 HD
ENDBRANCH  10  12
ENDBRANCH   4  10
BRANCH   7  15
ATOM     15  O   UNL     1       4.434   3.913  16.167  0.00  0.00    +0.000 OA
ATOM     16  C   UNL     1       5.840   3.775  16.055  0.00  0.00    +0.000 C 
ENDBRANCH   7  15
TORSDOF 4
ENDMDL
MODEL 7
REMARK VINA RESULT:      -5.3      3.585      5.333
REMARK  Name = 
REMARK  8 active torsions:
REMARK  status: ('A' for Active; 'I' for Inactive)
REMARK    1  A    between atoms: C_1  and  O_2
REMARK    2  A    between atoms: O_2  and  C_3
REMARK    3  A    between atoms: C_6  and  C_7
REMARK    4  A    between atoms: C_7  and  C_8
REMARK    5  A    between atoms: C_7  and  N_9
REMARK    6  A    between atoms: C_10  and  C_11
REMARK    7  A    between atoms: C_12  and  O_13
REMARK    8  A    between atoms: O_13  and  C_14
REMARK                            x       y       z     vdW  Elec       q    Type
REMARK                         _______ _______ _______ _____ _____    ______ ____
ROOT
ATOM      1  C   UNL     1       2.959   3.377  18.485  0.00  0.00    +0.000 A 
ATOM      2  C   UNL     1       3.933   3.063  17.533  0.00  0.00    +0.000 A 
ATOM      3  C   UNL     1       4.636   4.050  16.875  0.00  0.00    +0.000 A 
ATOM      4  C   UNL     1       4.399   5.421  17.106  0.00  0.00    +0.000 A 
ATOM      5  C   UNL     1       3.360   5.748  18.017  0.00  0.00    +0.000 A 
ATOM      6  C   UNL     1       2.940   7.187  18.268  0.00  0.00    +0.000 C 
ATOM      7  C   UNL     1       2.662   4.731  18.729  0.00  0.00    +0.000 A 
ENDROOT
BRANCH   1   9
ATOM      8  C   UNL     1       0.915   2.226  18.679  0.00  0.00    +0.000 C 
ATOM      9  O   UNL     1       2.265   2.380  19.116  0.00  0.00    +0.000 OA
ENDBRANCH   1   9
BRANCH   4  10
ATOM     10  C   UNL     1       5.212   6.476  16.356  0.00  0.00    +0.000 C 
ATOM     11  C   UNL     1       6.428   6.961  17.151  0.00  0.00    +0.000 C 
BRANCH  10  12
ATOM     12  N   UNL     1       5.718   6.011  15.048  0.00  0.00    +0.000 NA
ATOM     13  H   UNL     1       5.704   6.799  14.399  0.00  0.00    +0.000 HD
ATOM     14  H   UNL     1       5.066   5.331  14.664  0.00  0.00    +0.000 HD
ENDBRANCH  10  12
ENDBRANCH   4  10
BRANCH   7  15
ATOM     15  O   UNL     1       1.731   5.221  19.616  0.00  0.00    +0.000 OA
ATOM     16  C   UNL     1       1.928   5.044  21.009  0.00  0.00    +0.000 C 
ENDBRANCH   7  15
TORSDOF 4
ENDMDL
MODEL 8
REMARK VINA RESULT:      -5.3      2.545      3.873
REMARK  Name = 
REMARK  8 active torsions:
REMARK  status: ('A' for Active; 'I' for Inactive)
REMARK    1  A    between atoms: C_1  and  O_2
REMARK    2  A    between atoms: O_2  and  C_3
REMARK    3  A    between atoms: C_6  and  C_7
REMARK    4  A    between atoms: C_7  and  C_8
REMARK    5  A    between atoms: C_7  and  N_9
REMARK    6  A    between atoms: C_10  and  C_11
REMARK    7  A    between atoms: C_12  and  O_13
REMARK    8  A    between atoms: O_13  and  C_14
REMARK                            x       y       z     vdW  Elec       q    Type
REMARK                         _______ _______ _______ _____ _____    ______ ____
ROOT
ATOM      1  C   UNL     1       3.375   6.832  17.790  0.00  0.00    +0.000 A 
ATOM      2  C   UNL     1       2.340   6.105  18.386  0.00  0.00    +0.000 A 
ATOM      3  C   UNL     1       2.343   4.726  18.389  0.00  0.00    +0.000 A 
ATOM      4  C   UNL     1       3.369   3.977  17.777  0.00  0.00    +0.000 A 
ATOM      5  C   UNL     1       4.384   4.708  17.105  0.00  0.00    +0.000 A 
ATOM      6  C   UNL     1       5.482   4.012  16.319  0.00  0.00    +0.000 C 
ATOM      7  C   UNL     1       4.405   6.131  17.137  0.00  0.00    +0.000 A 
ENDROOT
BRANCH   1   9
ATOM      8  C   UNL     1       2.034   8.767  17.829  0.00  0.00    +0.000 C 
ATOM      9  O   UNL     1       3.344   8.201  17.788  0.00  0.00    +0.000 OA
ENDBRANCH   1   9
BRANCH   4  10
ATOM     10  C   UNL     1       3.328   2.450  17.815  0.00  0.00    +0.000 C 
ATOM     11  C   UNL     1       3.871   1.876  19.129  0.00  0.00    +0.000 C 
BRANCH  10  12
ATOM     12  N   UNL     1       1.973   1.890  17.637  0.00  0.00    +0.000 NA
ATOM     13  H   UNL     1       2.063   0.920  17.328  0.00  0.00    +0.000 HD
ATOM     14  H   UNL     1       1.513   2.376  16.871  0.00  0.00    +0.000 HD
ENDBRANCH  10  12
ENDBRANCH   4  10
BRANCH   7  15
ATOM     15  O   UNL     1       5.489   6.679  16.490  0.00  0.00    +0.000 OA
ATOM     16  C   UNL     1       6.586   7.164  17.246  0.00  0.00    +0.000 C 
ENDBRANCH   7  15
TORSDOF 4
ENDMDL
MODEL 9
REMARK VINA RESULT:      -5.2      3.446      4.990
REMARK  Name = 
REMARK  8 active torsions:
REMARK  status: ('A' for Active; 'I' for Inactive)
REMARK    1  A    between atoms: C_1  and  O_2
REMARK    2  A    between atoms: O_2  and  C_3
REMARK    3  A    between atoms: C_6  and  C_7
REMARK    4  A    between atoms: C_7  and  C_8
REMARK    5  A    between atoms: C_7  and  N_9
REMARK    6  A    between atoms: C_10  and  C_11
REMARK    7  A    between atoms: C_12  and  O_13
REMARK    8  A    between atoms: O_13  and  C_14
REMARK                            x       y       z     vdW  Elec       q    Type
REMARK                         _______ _______ _______ _____ _____    ______ ____
ROOT
ATOM      1  C   UNL     1       3.099   6.796  18.642  0.00  0.00    +0.000 A 
ATOM      2  C   UNL     1       3.777   7.168  17.478  0.00  0.00    +0.000 A 
ATOM      3  C   UNL     1       4.673   6.316  16.867  0.00  0.00    +0.000 A 
ATOM      4  C   UNL     1       4.969   5.040  17.389  0.00  0.00    +0.000 A 
ATOM      5  C   UNL     1       4.340   4.685  18.612  0.00  0.00    +0.000 A 
ATOM      6  C   UNL     1       4.660   3.383  19.327  0.00  0.00    +0.000 C 
ATOM      7  C   UNL     1       3.383   5.546  19.221  0.00  0.00    +0.000 A 
ENDROOT
BRANCH   1   9
ATOM      8  C   UNL     1       1.872   8.795  18.442  0.00  0.00    +0.000 C 
ATOM      9  O   UNL     1       2.224   7.664  19.238  0.00  0.00    +0.000 OA
ENDBRANCH   1   9
BRANCH   4  10
ATOM     10  C   UNL     1       5.964   4.130  16.669  0.00  0.00    +0.000 C 
ATOM     11  C   UNL     1       5.849   4.219  15.143  0.00  0.00    +0.000 C 
BRANCH  10  12
ATOM     12  N   UNL     1       7.374   4.414  17.005  0.00  0.00    +0.000 NA
ATOM     13  H   UNL     1       7.710   5.153  16.386  0.00  0.00    +0.000 HD
ATOM     14  H   UNL     1       7.938   3.596  16.780  0.00  0.00    +0.000 HD
ENDBRANCH  10  12
ENDBRANCH   4  10
BRANCH   7  15
ATOM     15  O   UNL     1       2.824   5.024  20.365  0.00  0.00    +0.000 OA
ATOM     16  C   UNL     1       1.461   4.634  20.365  0.00  0.00    +0.000 C 
ENDBRANCH   7  15
TORSDOF 4
ENDMDL
