MODEL 1
REMARK VINA RESULT:      -7.8      0.000      0.000
REMARK  Name = 
REMARK  13 active torsions:
REMARK  status: ('A' for Active; 'I' for Inactive)
REMARK    1  A    between atoms: C_1  and  C_2
REMARK    2  A    between atoms: C_2  and  C_3
REMARK    3  A    between atoms: C_3  and  C_4
REMARK    4  A    between atoms: C_4  and  C_5
REMARK    5  A    between atoms: C_4  and  O_6
REMARK    6  A    between atoms: C_4  and  C_25
REMARK    7  A    between atoms: O_6  and  C_7
REMARK    8  A    between atoms: C_10  and  C_11
REMARK    9  A    between atoms: C_11  and  C_12
REMARK   10  A    between atoms: N_14  and  C_15
REMARK   11  A    between atoms: C_17  and  C_18
REMARK   12  A    between atoms: C_20  and  C_21
REMARK   13  A    between atoms: C_25  and  O_27
REMARK                            x       y       z     vdW  Elec       q    Type
REMARK                         _______ _______ _______ _____ _____    ______ ____
ROOT
ATOM      1  C   UNL     1       2.405   6.362  19.281  0.00  0.00    +0.000 A 
ATOM      2  C   UNL     1       1.840   6.623  20.534  0.00  0.00    +0.000 A 
ATOM      3  C   UNL     1       1.320   7.881  20.838  0.00  0.00    +0.000 A 
ATOM      4  C   UNL     1       1.373   8.903  19.887  0.00  0.00    +0.000 A 
ATOM      5  C   UNL     1       1.910   8.631  18.624  0.00  0.00    +0.000 A 
ATOM      6  C   UNL     1       2.452   7.378  18.337  0.00  0.00    +0.000 A 
ENDROOT
BRANCH   1   7
ATOM      7  O   UNL     1       2.856   5.087  19.127  0.00  0.00    +0.000 OA
BRANCH   7   8
ATOM      8  C   UNL     1       4.109   4.761  18.491  0.00  0.00    +0.000 C 
ATOM      9  C   UNL     1       5.289   5.342  19.284  0.00  0.00    +0.000 C 
BRANCH   8  10
ATOM     10  C   UNL     1       4.220   3.225  18.656  0.00  0.00    +0.000 C 
ATOM     11  O   UNL     1       3.452   2.409  18.162  0.00  0.00    +0.000 OA
BRANCH  10  12
ATOM     12  O   UNL     1       5.273   2.837  19.422  0.00  0.00    +0.000 OA
ATOM     13  H   UNL     1       5.917   3.578  19.474  0.00  0.00    +0.000 HD
ENDBRANCH  10  12
ENDBRANCH   8  10
BRANCH   8  14
ATOM     14  C   UNL     1       4.201   5.065  16.978  0.00  0.00    +0.000 C 
BRANCH  14  16
ATOM     15  C   UNL     1       5.573   4.360  14.991  0.00  0.00    +0.000 C 
ATOM     16  C   UNL     1       5.612   4.966  16.386  0.00  0.00    +0.000 C 
ENDBRANCH  14  16
ENDBRANCH   8  14
ENDBRANCH   7   8
ENDBRANCH   1   7
BRANCH   4  17
ATOM     17  C   UNL     1       0.892  10.291  20.221  0.00  0.00    +0.000 C 
BRANCH  17  18
ATOM     18  C   UNL     1      -0.025  10.875  19.156  0.00  0.00    +0.000 C 
ATOM     19  O   UNL     1       0.326  11.875  18.537  0.00  0.00    +0.000 OA
ATOM     20  N   UNL     1      -1.219  10.180  18.988  0.00  0.00    +0.000 N 
ATOM     21  H   UNL     1      -1.458   9.502  19.702  0.00  0.00    +0.000 HD
BRANCH  20  22
ATOM     22  C   UNL     1      -2.220  10.466  18.033  0.00  0.00    +0.000 A 
ATOM     23  C   UNL     1      -2.121  10.070  16.698  0.00  0.00    +0.000 A 
ATOM     24  C   UNL     1      -3.115  10.394  15.769  0.00  0.00    +0.000 A 
ATOM     25  C   UNL     1      -2.966   9.986  14.332  0.00  0.00    +0.000 C 
ATOM     26  C   UNL     1      -4.233  11.120  16.187  0.00  0.00    +0.000 A 
ATOM     27  C   UNL     1      -4.368  11.510  17.525  0.00  0.00    +0.000 A 
ATOM     28  C   UNL     1      -5.559  12.317  17.958  0.00  0.00    +0.000 C 
ATOM     29  C   UNL     1      -3.361  11.171  18.445  0.00  0.00    +0.000 A 
ENDBRANCH  20  22
ENDBRANCH  17  18
ENDBRANCH   4  17
TORSDOF 9
ENDMDL
MODEL 2
REMARK VINA RESULT:      -7.7      0.457      1.951
REMARK  Name = 
REMARK  13 active torsions:
REMARK  status: ('A' for Active; 'I' for Inactive)
REMARK    1  A    between atoms: C_1  and  C_2
REMARK    2  A    between atoms: C_2  and  C_3
REMARK    3  A    between atoms: C_3  and  C_4
REMARK    4  A    between atoms: C_4  and  C_5
REMARK    5  A    between atoms: C_4  and  O_6
REMARK    6  A    between atoms: C_4  and  C_25
REMARK    7  A    between atoms: O_6  and  C_7
REMARK    8  A    between atoms: C_10  and  C_11
REMARK    9  A    between atoms: C_11  and  C_12
REMARK   10  A    between atoms: N_14  and  C_15
REMARK   11  A    between atoms: C_17  and  C_18
REMARK   12  A    between atoms: C_20  and  C_21
REMARK   13  A    between atoms: C_25  and  O_27
REMARK                            x       y       z     vdW  Elec       q    Type
REMARK                         _______ _______ _______ _____ _____    ______ ____
ROOT
ATOM      1  C   UNL     1       2.304   5.965  19.062  0.00  0.00    +0.000 A 
ATOM      2  C   UNL     1       2.374   7.031  18.159  0.00  0.00    +0.000 A 
ATOM      3  C   UNL     1       2.007   8.321  18.542  0.00  0.00    +0.000 A 
ATOM      4  C   UNL     1       1.548   8.556  19.840  0.00  0.00    +0.000 A 
ATOM      5  C   UNL     1       1.508   7.495  20.751  0.00  0.00    +0.000 A 
ATOM      6  C   UNL     1       1.852   6.204  20.353  0.00  0.00    +0.000 A 
ENDROOT
BRANCH   1   7
ATOM      7  O   UNL     1       2.709   4.772  18.549  0.00  0.00    +0.000 OA
BRANCH   7   8
ATOM      8  C   UNL     1       4.089   4.453  18.275  0.00  0.00    +0.000 C 
ATOM      9  C   UNL     1       5.025   5.273  19.175  0.00  0.00    +0.000 C 
BRANCH   8  10
ATOM     10  C   UNL     1       4.235   2.989  18.756  0.00  0.00    +0.000 C 
ATOM     11  O   UNL     1       3.518   2.061  18.405  0.00  0.00    +0.000 OA
BRANCH  10  12
ATOM     12  O   UNL     1       5.256   2.806  19.633  0.00  0.00    +0.000 OA
ATOM     13  H   UNL     1       5.156   3.444  20.374  0.00  0.00    +0.000 HD
ENDBRANCH  10  12
ENDBRANCH   8  10
BRANCH   8  14
ATOM     14  C   UNL     1       4.510   4.490  16.787  0.00  0.00    +0.000 C 
BRANCH  14  16
ATOM     15  C   UNL     1       6.526   5.152  15.436  0.00  0.00    +0.000 C 
ATOM     16  C   UNL     1       5.466   5.631  16.418  0.00  0.00    +0.000 C 
ENDBRANCH  14  16
ENDBRANCH   8  14
ENDBRANCH   7   8
ENDBRANCH   1   7
BRANCH   4  17
ATOM     17  C   UNL     1       1.069   9.924  20.251  0.00  0.00    +0.000 C 
BRANCH  17  18
ATOM     18  C   UNL     1       0.185  10.586  19.204  0.00  0.00    +0.000 C 
ATOM     19  O   UNL     1       0.639  11.498  18.518  0.00  0.00    +0.000 OA
ATOM     20  N   UNL     1      -1.102  10.062  19.129  0.00  0.00    +0.000 N 
ATOM     21  H   UNL     1      -1.394   9.457  19.887  0.00  0.00    +0.000 HD
BRANCH  20  22
ATOM     22  C   UNL     1      -2.104  10.446  18.210  0.00  0.00    +0.000 A 
ATOM     23  C   UNL     1      -3.213  11.207  18.582  0.00  0.00    +0.000 A 
ATOM     24  C   UNL     1      -4.205  11.545  17.656  0.00  0.00    +0.000 A 
ATOM     25  C   UNL     1      -5.405  12.335  18.090  0.00  0.00    +0.000 C 
ATOM     26  C   UNL     1      -4.078  11.120  16.330  0.00  0.00    +0.000 A 
ATOM     27  C   UNL     1      -2.964  10.375  15.926  0.00  0.00    +0.000 A 
ATOM     28  C   UNL     1      -2.852   9.896  14.506  0.00  0.00    +0.000 C 
ATOM     29  C   UNL     1      -1.975  10.049  16.871  0.00  0.00    +0.000 A 
ENDBRANCH  20  22
ENDBRANCH  17  18
ENDBRANCH   4  17
TORSDOF 9
ENDMDL
MODEL 3
REMARK VINA RESULT:      -7.7      1.374      2.584
REMARK  Name = 
REMARK  13 active torsions:
REMARK  status: ('A' for Active; 'I' for Inactive)
REMARK    1  A    between atoms: C_1  and  C_2
REMARK    2  A    between atoms: C_2  and  C_3
REMARK    3  A    between atoms: C_3  and  C_4
REMARK    4  A    between atoms: C_4  and  C_5
REMARK    5  A    between atoms: C_4  and  O_6
REMARK    6  A    between atoms: C_4  and  C_25
REMARK    7  A    between atoms: O_6  and  C_7
REMARK    8  A    between atoms: C_10  and  C_11
REMARK    9  A    between atoms: C_11  and  C_12
REMARK   10  A    between atoms: N_14  and  C_15
REMARK   11  A    between atoms: C_17  and  C_18
REMARK   12  A    between atoms: C_20  and  C_21
REMARK   13  A    between atoms: C_25  and  O_27
REMARK                            x       y       z     vdW  Elec       q    Type
REMARK                         _______ _______ _______ _____ _____    ______ ____
ROOT
ATOM      1  C   UNL     1       2.808   6.522  18.296  0.00  0.00    +0.000 A 
ATOM      2  C   UNL     1       2.623   7.697  17.559  0.00  0.00    +0.000 A 
ATOM      3  C   UNL     1       2.044   8.825  18.142  0.00  0.00    +0.000 A 
ATOM      4  C   UNL     1       1.628   8.782  19.475  0.00  0.00    +0.000 A 
ATOM      5  C   UNL     1       1.844   7.617  20.219  0.00  0.00    +0.000 A 
ATOM      6  C   UNL     1       2.399   6.486  19.622  0.00  0.00    +0.000 A 
ENDROOT
BRANCH   1   7
ATOM      7  O   UNL     1       3.398   5.514  17.598  0.00  0.00    +0.000 OA
BRANCH   7   8
ATOM      8  C   UNL     1       4.777   5.127  17.775  0.00  0.00    +0.000 C 
ATOM      9  C   UNL     1       4.889   3.946  18.750  0.00  0.00    +0.000 C 
BRANCH   8  10
ATOM     10  C   UNL     1       5.183   4.559  16.393  0.00  0.00    +0.000 C 
ATOM     11  O   UNL     1       5.177   5.192  15.346  0.00  0.00    +0.000 OA
BRANCH  10  12
ATOM     12  O   UNL     1       5.560   3.254  16.433  0.00  0.00    +0.000 OA
ATOM     13  H   UNL     1       4.934   2.728  15.885  0.00  0.00    +0.000 HD
ENDBRANCH  10  12
ENDBRANCH   8  10
BRANCH   8  14
ATOM     14  C   UNL     1       5.764   6.270  18.108  0.00  0.00    +0.000 C 
BRANCH  14  16
ATOM     15  C   UNL     1       7.962   5.873  19.266  0.00  0.00    +0.000 C 
ATOM     16  C   UNL     1       7.244   5.914  17.925  0.00  0.00    +0.000 C 
ENDBRANCH  14  16
ENDBRANCH   8  14
ENDBRANCH   7   8
ENDBRANCH   1   7
BRANCH   4  17
ATOM     17  C   UNL     1       0.927   9.960  20.101  0.00  0.00    +0.000 C 
BRANCH  17  18
ATOM     18  C   UNL     1      -0.007  10.677  19.138  0.00  0.00    +0.000 C 
ATOM     19  O   UNL     1       0.341  11.744  18.639  0.00  0.00    +0.000 OA
ATOM     20  N   UNL     1      -1.212  10.018  18.913  0.00  0.00    +0.000 N 
ATOM     21  H   UNL     1      -1.442   9.259  19.543  0.00  0.00    +0.000 HD
BRANCH  20  22
ATOM     22  C   UNL     1      -2.230  10.427  18.023  0.00  0.00    +0.000 A 
ATOM     23  C   UNL     1      -3.337  11.170  18.438  0.00  0.00    +0.000 A 
ATOM     24  C   UNL     1      -4.345  11.534  17.540  0.00  0.00    +0.000 A 
ATOM     25  C   UNL     1      -5.541  12.303  18.019  0.00  0.00    +0.000 C 
ATOM     26  C   UNL     1      -4.238  11.154  16.199  0.00  0.00    +0.000 A 
ATOM     27  C   UNL     1      -3.127  10.428  15.752  0.00  0.00    +0.000 A 
ATOM     28  C   UNL     1      -3.036   9.997  14.316  0.00  0.00    +0.000 C 
ATOM     29  C   UNL     1      -2.122  10.075  16.669  0.00  0.00    +0.000 A 
ENDBRANCH  20  22
ENDBRANCH  17  18
ENDBRANCH   4  17
TORSDOF 9
ENDMDL
MODEL 4
REMARK VINA RESULT:      -7.7      1.474      1.948
REMARK  Name = 
REMARK  13 active torsions:
REMARK  status: ('A' for Active; 'I' for Inactive)
REMARK    1  A    between atoms: C_1  and  C_2
REMARK    2  A    between atoms: C_2  and  C_3
REMARK    3  A    between atoms: C_3  and  C_4
REMARK    4  A    between atoms: C_4  and  C_5
REMARK    5  A    between atoms: C_4  and  O_6
REMARK    6  A    between atoms: C_4  and  C_25
REMARK    7  A    between atoms: O_6  and  C_7
REMARK    8  A    between atoms: C_10  and  C_11
REMARK    9  A    between atoms: C_11  and  C_12
REMARK   10  A    between atoms: N_14  and  C_15
REMARK   11  A    between atoms: C_17  and  C_18
REMARK   12  A    between atoms: C_20  and  C_21
REMARK   13  A    between atoms: C_25  and  O_27
REMARK                            x       y       z     vdW  Elec       q    Type
REMARK                         _______ _______ _______ _____ _____    ______ ____
ROOT
ATOM      1  C   UNL     1       2.714   6.887  18.395  0.00  0.00    +0.000 A 
ATOM      2  C   UNL     1       2.485   8.031  17.622  0.00  0.00    +0.000 A 
ATOM      3  C   UNL     1       1.888   9.163  18.178  0.00  0.00    +0.000 A 
ATOM      4  C   UNL     1       1.498   9.156  19.518  0.00  0.00    +0.000 A 
ATOM      5  C   UNL     1       1.757   8.023  20.298  0.00  0.00    +0.000 A 
ATOM      6  C   UNL     1       2.330   6.886  19.729  0.00  0.00    +0.000 A 
ENDROOT
BRANCH   1   7
ATOM      7  O   UNL     1       3.317   5.870  17.721  0.00  0.00    +0.000 OA
BRANCH   7   8
ATOM      8  C   UNL     1       4.743   5.656  17.719  0.00  0.00    +0.000 C 
ATOM      9  C   UNL     1       5.199   5.022  19.041  0.00  0.00    +0.000 C 
BRANCH   8  10
ATOM     10  C   UNL     1       4.953   4.560  16.645  0.00  0.00    +0.000 C 
ATOM     11  O   UNL     1       4.850   3.356  16.843  0.00  0.00    +0.000 OA
BRANCH  10  12
ATOM     12  O   UNL     1       5.274   5.054  15.421  0.00  0.00    +0.000 OA
ATOM     13  H   UNL     1       4.639   5.770  15.192  0.00  0.00    +0.000 HD
ENDBRANCH  10  12
ENDBRANCH   8  10
BRANCH   8  14
ATOM     14  C   UNL     1       5.611   6.868  17.309  0.00  0.00    +0.000 C 
BRANCH  14  16
ATOM     15  C   UNL     1       7.765   8.133  17.609  0.00  0.00    +0.000 C 
ATOM     16  C   UNL     1       7.082   6.780  17.736  0.00  0.00    +0.000 C 
ENDBRANCH  14  16
ENDBRANCH   8  14
ENDBRANCH   7   8
ENDBRANCH   1   7
BRANCH   4  17
ATOM     17  C   UNL     1       0.777  10.336  20.118  0.00  0.00    +0.000 C 
BRANCH  17  18
ATOM     18  C   UNL     1      -0.216  10.976  19.160  0.00  0.00    +0.000 C 
ATOM     19  O   UNL     1      -0.032  12.129  18.779  0.00  0.00    +0.000 OA
ATOM     20  N   UNL     1      -1.275  10.149  18.798  0.00  0.00    +0.000 N 
ATOM     21  H   UNL     1      -1.402   9.305  19.344  0.00  0.00    +0.000 HD
BRANCH  20  22
ATOM     22  C   UNL     1      -2.302  10.465  17.881  0.00  0.00    +0.000 A 
ATOM     23  C   UNL     1      -2.254  10.088  16.539  0.00  0.00    +0.000 A 
ATOM     24  C   UNL     1      -3.272  10.441  15.648  0.00  0.00    +0.000 A 
ATOM     25  C   UNL     1      -3.178  10.053  14.201  0.00  0.00    +0.000 C 
ATOM     26  C   UNL     1      -4.363  11.180  16.113  0.00  0.00    +0.000 A 
ATOM     27  C   UNL     1      -4.448  11.552  17.460  0.00  0.00    +0.000 A 
ATOM     28  C   UNL     1      -5.609  12.373  17.944  0.00  0.00    +0.000 C 
ATOM     29  C   UNL     1      -3.416  11.183  18.341  0.00  0.00    +0.000 A 
ENDBRANCH  20  22
ENDBRANCH  17  18
ENDBRANCH   4  17
TORSDOF 9
ENDMDL
MODEL 5
REMARK VINA RESULT:      -7.7      1.581      2.500
REMARK  Name = 
REMARK  13 active torsions:
REMARK  status: ('A' for Active; 'I' for Inactive)
REMARK    1  A    between atoms: C_1  and  C_2
REMARK    2  A    between atoms: C_2  and  C_3
REMARK    3  A    between atoms: C_3  and  C_4
REMARK    4  A    between atoms: C_4  and  C_5
REMARK    5  A    between atoms: C_4  and  O_6
REMARK    6  A    between atoms: C_4  and  C_25
REMARK    7  A    between atoms: O_6  and  C_7
REMARK    8  A    between atoms: C_10  and  C_11
REMARK    9  A    between atoms: C_11  and  C_12
REMARK   10  A    between atoms: N_14  and  C_15
REMARK   11  A    between atoms: C_17  and  C_18
REMARK   12  A    between atoms: C_20  and  C_21
REMARK   13  A    between atoms: C_25  and  O_27
REMARK                            x       y       z     vdW  Elec       q    Type
REMARK                         _______ _______ _______ _____ _____    ______ ____
ROOT
ATOM      1  C   UNL     1       2.960   6.297  18.991  0.00  0.00    +0.000 A 
ATOM      2  C   UNL     1       2.281   6.653  20.161  0.00  0.00    +0.000 A 
ATOM      3  C   UNL     1       1.673   7.903  20.284  0.00  0.00    +0.000 A 
ATOM      4  C   UNL     1       1.753   8.821  19.235  0.00  0.00    +0.000 A 
ATOM      5  C   UNL     1       2.405   8.451  18.054  0.00  0.00    +0.000 A 
ATOM      6  C   UNL     1       3.032   7.210  17.948  0.00  0.00    +0.000 A 
ENDROOT
BRANCH   1   7
ATOM      7  O   UNL     1       3.487   5.043  19.012  0.00  0.00    +0.000 OA
BRANCH   7   8
ATOM      8  C   UNL     1       2.798   3.884  18.496  0.00  0.00    +0.000 C 
ATOM      9  C   UNL     1       1.575   4.303  17.667  0.00  0.00    +0.000 C 
BRANCH   8  10
ATOM     10  C   UNL     1       3.797   3.281  17.477  0.00  0.00    +0.000 C 
ATOM     11  O   UNL     1       4.147   3.821  16.436  0.00  0.00    +0.000 OA
BRANCH  10  12
ATOM     12  O   UNL     1       4.271   2.061  17.840  0.00  0.00    +0.000 OA
ATOM     13  H   UNL     1       4.258   1.470  17.054  0.00  0.00    +0.000 HD
ENDBRANCH  10  12
ENDBRANCH   8  10
BRANCH   8  14
ATOM     14  C   UNL     1       2.470   2.777  19.524  0.00  0.00    +0.000 C 
BRANCH  14  16
ATOM     15  C   UNL     1       1.357   2.858  21.778  0.00  0.00    +0.000 C 
ATOM     16  C   UNL     1       1.147   2.970  20.276  0.00  0.00    +0.000 C 
ENDBRANCH  14  16
ENDBRANCH   8  14
ENDBRANCH   7   8
ENDBRANCH   1   7
BRANCH   4  17
ATOM     17  C   UNL     1       1.175  10.206  19.378  0.00  0.00    +0.000 C 
BRANCH  17  18
ATOM     18  C   UNL     1      -0.323  10.255  19.121  0.00  0.00    +0.000 C 
ATOM     19  O   UNL     1      -1.103  10.024  20.042  0.00  0.00    +0.000 OA
ATOM     20  N   UNL     1      -0.669  10.571  17.811  0.00  0.00    +0.000 N 
ATOM     21  H   UNL     1       0.073  10.535  17.121  0.00  0.00    +0.000 HD
BRANCH  20  22
ATOM     22  C   UNL     1      -1.980  10.742  17.314  0.00  0.00    +0.000 A 
ATOM     23  C   UNL     1      -2.358  10.332  16.035  0.00  0.00    +0.000 A 
ATOM     24  C   UNL     1      -3.657  10.542  15.559  0.00  0.00    +0.000 A 
ATOM     25  C   UNL     1      -4.028  10.124  14.166  0.00  0.00    +0.000 C 
ATOM     26  C   UNL     1      -4.596  11.167  16.384  0.00  0.00    +0.000 A 
ATOM     27  C   UNL     1      -4.248  11.567  17.680  0.00  0.00    +0.000 A 
ATOM     28  C   UNL     1      -5.256  12.266  18.549  0.00  0.00    +0.000 C 
ATOM     29  C   UNL     1      -2.940  11.343  18.142  0.00  0.00    +0.000 A 
ENDBRANCH  20  22
ENDBRANCH  17  18
ENDBRANCH   4  17
TORSDOF 9
ENDMDL
MODEL 6
REMARK VINA RESULT:      -7.7      1.316      2.873
REMARK  Name = 
REMARK  13 active torsions:
REMARK  status: ('A' for Active; 'I' for Inactive)
REMARK    1  A    between atoms: C_1  and  C_2
REMARK    2  A    between atoms: C_2  and  C_3
REMARK    3  A    between atoms: C_3  and  C_4
REMARK    4  A    between atoms: C_4  and  C_5
REMARK    5  A    between atoms: C_4  and  O_6
REMARK    6  A    between atoms: C_4  and  C_25
REMARK    7  A    between atoms: O_6  and  C_7
REMARK    8  A    between atoms: C_10  and  C_11
REMARK    9  A    between atoms: C_11  and  C_12
REMARK   10  A    between atoms: N_14  and  C_15
REMARK   11  A    between atoms: C_17  and  C_18
REMARK   12  A    between atoms: C_20  and  C_21
REMARK   13  A    between atoms: C_25  and  O_27
REMARK                            x       y       z     vdW  Elec       q    Type
REMARK                         _______ _______ _______ _____ _____    ______ ____
ROOT
ATOM      1  C   UNL     1       2.699   6.953  18.759  0.00  0.00    +0.000 A 
ATOM      2  C   UNL     1       2.182   6.938  20.059  0.00  0.00    +0.000 A 
ATOM      3  C   UNL     1       1.469   8.028  20.560  0.00  0.00    +0.000 A 
ATOM      4  C   UNL     1       1.279   9.159  19.763  0.00  0.00    +0.000 A 
ATOM      5  C   UNL     1       1.769   9.159  18.453  0.00  0.00    +0.000 A 
ATOM      6  C   UNL     1       2.503   8.077  17.968  0.00  0.00    +0.000 A 
ENDROOT
BRANCH   1   7
ATOM      7  O   UNL     1       3.356   5.815  18.407  0.00  0.00    +0.000 OA
BRANCH   7   8
ATOM      8  C   UNL     1       2.965   4.501  18.857  0.00  0.00    +0.000 C 
ATOM      9  C   UNL     1       1.921   3.891  17.911  0.00  0.00    +0.000 C 
BRANCH   8  10
ATOM     10  C   UNL     1       4.242   3.647  18.665  0.00  0.00    +0.000 C 
ATOM     11  O   UNL     1       4.957   3.241  19.572  0.00  0.00    +0.000 OA
BRANCH  10  12
ATOM     12  O   UNL     1       4.521   3.374  17.363  0.00  0.00    +0.000 OA
ATOM     13  H   UNL     1       5.230   3.984  17.057  0.00  0.00    +0.000 HD
ENDBRANCH  10  12
ENDBRANCH   8  10
BRANCH   8  14
ATOM     14  C   UNL     1       2.559   4.388  20.345  0.00  0.00    +0.000 C 
BRANCH  14  16
ATOM     15  C   UNL     1       1.610   2.493  21.700  0.00  0.00    +0.000 C 
ATOM     16  C   UNL     1       1.326   3.515  20.610  0.00  0.00    +0.000 C 
ENDBRANCH  14  16
ENDBRANCH   8  14
ENDBRANCH   7   8
ENDBRANCH   1   7
BRANCH   4  17
ATOM     17  C   UNL     1       0.584  10.379  20.310  0.00  0.00    +0.000 C 
BRANCH  17  18
ATOM     18  C   UNL     1      -0.356  11.029  19.306  0.00  0.00    +0.000 C 
ATOM     19  O   UNL     1      -0.143  12.179  18.934  0.00  0.00    +0.000 OA
ATOM     20  N   UNL     1      -1.406  10.213  18.896  0.00  0.00    +0.000 N 
ATOM     21  H   UNL     1      -1.568   9.370  19.435  0.00  0.00    +0.000 HD
BRANCH  20  22
ATOM     22  C   UNL     1      -2.385  10.539  17.931  0.00  0.00    +0.000 A 
ATOM     23  C   UNL     1      -3.555  11.229  18.252  0.00  0.00    +0.000 A 
ATOM     24  C   UNL     1      -4.521  11.511  17.281  0.00  0.00    +0.000 A 
ATOM     25  C   UNL     1      -5.786  12.224  17.659  0.00  0.00    +0.000 C 
ATOM     26  C   UNL     1      -4.306  11.101  15.962  0.00  0.00    +0.000 A 
ATOM     27  C   UNL     1      -3.131  10.426  15.609  0.00  0.00    +0.000 A 
ATOM     28  C   UNL     1      -2.924   9.962  14.196  0.00  0.00    +0.000 C 
ATOM     29  C   UNL     1      -2.170  10.156  16.599  0.00  0.00    +0.000 A 
ENDBRANCH  20  22
ENDBRANCH  17  18
ENDBRANCH   4  17
TORSDOF 9
ENDMDL
MODEL 7
REMARK VINA RESULT:      -7.5      1.040      1.628
REMARK  Name = 
REMARK  13 active torsions:
REMARK  status: ('A' for Active; 'I' for Inactive)
REMARK    1  A    between atoms: C_1  and  C_2
REMARK    2  A    between atoms: C_2  and  C_3
REMARK    3  A    between atoms: C_3  and  C_4
REMARK    4  A    between atoms: C_4  and  C_5
REMARK    5  A    between atoms: C_4  and  O_6
REMARK    6  A    between atoms: C_4  and  C_25
REMARK    7  A    between atoms: O_6  and  C_7
REMARK    8  A    between atoms: C_10  and  C_11
REMARK    9  A    between atoms: C_11  and  C_12
REMARK   10  A    between atoms: N_14  and  C_15
REMARK   11  A    between atoms: C_17  and  C_18
REMARK   12  A    between atoms: C_20  and  C_21
REMARK   13  A    between atoms: C_25  and  O_27
REMARK                            x       y       z     vdW  Elec       q    Type
REMARK                         _______ _______ _______ _____ _____    ______ ____
ROOT
ATOM      1  C   UNL     1       2.467   6.550  19.636  0.00  0.00    +0.000 A 
ATOM      2  C   UNL     1       1.850   6.838  20.858  0.00  0.00    +0.000 A 
ATOM      3  C   UNL     1       1.226   8.067  21.074  0.00  0.00    +0.000 A 
ATOM      4  C   UNL     1       1.227   9.033  20.065  0.00  0.00    +0.000 A 
ATOM      5  C   UNL     1       1.817   8.732  18.833  0.00  0.00    +0.000 A 
ATOM      6  C   UNL     1       2.461   7.511  18.634  0.00  0.00    +0.000 A 
ENDROOT
BRANCH   1   7
ATOM      7  O   UNL     1       3.019   5.308  19.568  0.00  0.00    +0.000 OA
BRANCH   7   8
ATOM      8  C   UNL     1       3.710   4.809  18.405  0.00  0.00    +0.000 C 
ATOM      9  C   UNL     1       4.561   5.915  17.763  0.00  0.00    +0.000 C 
BRANCH   8  10
ATOM     10  C   UNL     1       4.725   3.793  18.983  0.00  0.00    +0.000 C 
ATOM     11  O   UNL     1       4.452   2.907  19.782  0.00  0.00    +0.000 OA
BRANCH  10  12
ATOM     12  O   UNL     1       5.991   3.967  18.520  0.00  0.00    +0.000 OA
ATOM     13  H   UNL     1       5.951   4.176  17.560  0.00  0.00    +0.000 HD
ENDBRANCH  10  12
ENDBRANCH   8  10
BRANCH   8  14
ATOM     14  C   UNL     1       2.842   4.052  17.373  0.00  0.00    +0.000 C 
BRANCH  14  16
ATOM     15  C   UNL     1       1.110   2.648  18.537  0.00  0.00    +0.000 C 
ATOM     16  C   UNL     1       1.361   3.925  17.749  0.00  0.00    +0.000 C 
ENDBRANCH  14  16
ENDBRANCH   8  14
ENDBRANCH   7   8
ENDBRANCH   1   7
BRANCH   4  17
ATOM     17  C   UNL     1       0.632  10.397  20.304  0.00  0.00    +0.000 C 
BRANCH  17  18
ATOM     18  C   UNL     1      -0.188  10.903  19.127  0.00  0.00    +0.000 C 
ATOM     19  O   UNL     1       0.276  11.775  18.397  0.00  0.00    +0.000 OA
ATOM     20  N   UNL     1      -1.432  10.295  18.994  0.00  0.00    +0.000 N 
ATOM     21  H   UNL     1      -1.759   9.744  19.780  0.00  0.00    +0.000 HD
BRANCH  20  22
ATOM     22  C   UNL     1      -2.367  10.529  17.961  0.00  0.00    +0.000 A 
ATOM     23  C   UNL     1      -2.171  10.080  16.654  0.00  0.00    +0.000 A 
ATOM     24  C   UNL     1      -3.101  10.353  15.645  0.00  0.00    +0.000 A 
ATOM     25  C   UNL     1      -2.849   9.889  14.241  0.00  0.00    +0.000 C 
ATOM     26  C   UNL     1      -4.252  11.083  15.954  0.00  0.00    +0.000 A 
ATOM     27  C   UNL     1      -4.484  11.526  17.262  0.00  0.00    +0.000 A 
ATOM     28  C   UNL     1      -5.709  12.337  17.577  0.00  0.00    +0.000 C 
ATOM     29  C   UNL     1      -3.540  11.237  18.263  0.00  0.00    +0.000 A 
ENDBRANCH  20  22
ENDBRANCH  17  18
ENDBRANCH   4  17
TORSDOF 9
ENDMDL
MODEL 8
REMARK VINA RESULT:      -7.5      3.531      5.432
REMARK  Name = 
REMARK  13 active torsions:
REMARK  status: ('A' for Active; 'I' for Inactive)
REMARK    1  A    between atoms: C_1  and  C_2
REMARK    2  A    between atoms: C_2  and  C_3
REMARK    3  A    between atoms: C_3  and  C_4
REMARK    4  A    between atoms: C_4  and  C_5
REMARK    5  A    between atoms: C_4  and  O_6
REMARK    6  A    between atoms: C_4  and  C_25
REMARK    7  A    between atoms: O_6  and  C_7
REMARK    8  A    between atoms: C_10  and  C_11
REMARK    9  A    between atoms: C_11  and  C_12
REMARK   10  A    between atoms: N_14  and  C_15
REMARK   11  A    between atoms: C_17  and  C_18
REMARK   12  A    between atoms: C_20  and  C_21
REMARK   13  A    between atoms: C_25  and  O_27
REMARK                            x       y       z     vdW  Elec       q    Type
REMARK                         _______ _______ _______ _____ _____    ______ ____
ROOT
ATOM      1  C   UNL     1       2.772   7.050  18.897  0.00  0.00    +0.000 A 
ATOM      2  C   UNL     1       2.683   7.898  17.788  0.00  0.00    +0.000 A 
ATOM      3  C   UNL     1       1.912   9.061  17.835  0.00  0.00    +0.000 A 
ATOM      4  C   UNL     1       1.206   9.380  18.996  0.00  0.00    +0.000 A 
ATOM      5  C   UNL     1       1.322   8.547  20.115  0.00  0.00    +0.000 A 
ATOM      6  C   UNL     1       2.073   7.374  20.052  0.00  0.00    +0.000 A 
ENDROOT
BRANCH   1   7
ATOM      7  O   UNL     1       3.571   5.966  18.707  0.00  0.00    +0.000 OA
BRANCH   7   8
ATOM      8  C   UNL     1       3.098   4.606  18.795  0.00  0.00    +0.000 C 
ATOM      9  C   UNL     1       1.859   4.403  17.911  0.00  0.00    +0.000 C 
BRANCH   8  10
ATOM     10  C   UNL     1       4.221   3.777  18.124  0.00  0.00    +0.000 C 
ATOM     11  O   UNL     1       4.216   3.406  16.958  0.00  0.00    +0.000 OA
BRANCH  10  12
ATOM     12  O   UNL     1       5.249   3.480  18.961  0.00  0.00    +0.000 OA
ATOM     13  H   UNL     1       4.908   3.444  19.882  0.00  0.00    +0.000 HD
ENDBRANCH  10  12
ENDBRANCH   8  10
BRANCH   8  14
ATOM     14  C   UNL     1       2.908   4.045  20.224  0.00  0.00    +0.000 C 
BRANCH  14  16
ATOM     15  C   UNL     1       1.358   2.654  21.633  0.00  0.00    +0.000 C 
ATOM     16  C   UNL     1       1.451   3.790  20.626  0.00  0.00    +0.000 C 
ENDBRANCH  14  16
ENDBRANCH   8  14
ENDBRANCH   7   8
ENDBRANCH   1   7
BRANCH   4  17
ATOM     17  C   UNL     1       0.303  10.585  19.042  0.00  0.00    +0.000 C 
BRANCH  17  18
ATOM     18  C   UNL     1       1.038  11.866  19.408  0.00  0.00    +0.000 C 
ATOM     19  O   UNL     1       1.300  12.098  20.585  0.00  0.00    +0.000 OA
ATOM     20  N   UNL     1       1.352  12.675  18.320  0.00  0.00    +0.000 N 
ATOM     21  H   UNL     1       0.898  12.455  17.441  0.00  0.00    +0.000 HD
BRANCH  20  22
ATOM     22  C   UNL     1       2.081  13.884  18.365  0.00  0.00    +0.000 A 
ATOM     23  C   UNL     1       1.478  15.116  18.621  0.00  0.00    +0.000 A 
ATOM     24  C   UNL     1       2.221  16.301  18.630  0.00  0.00    +0.000 A 
ATOM     25  C   UNL     1       1.541  17.617  18.873  0.00  0.00    +0.000 C 
ATOM     26  C   UNL     1       3.596  16.248  18.385  0.00  0.00    +0.000 A 
ATOM     27  C   UNL     1       4.230  15.023  18.147  0.00  0.00    +0.000 A 
ATOM     28  C   UNL     1       5.703  14.980  17.854  0.00  0.00    +0.000 C 
ATOM     29  C   UNL     1       3.466  13.842  18.148  0.00  0.00    +0.000 A 
ENDBRANCH  20  22
ENDBRANCH  17  18
ENDBRANCH   4  17
TORSDOF 9
ENDMDL
MODEL 9
REMARK VINA RESULT:      -7.4      1.252      2.289
REMARK  Name = 
REMARK  13 active torsions:
REMARK  status: ('A' for Active; 'I' for Inactive)
REMARK    1  A    between atoms: C_1  and  C_2
REMARK    2  A    between atoms: C_2  and  C_3
REMARK    3  A    between atoms: C_3  and  C_4
REMARK    4  A    between atoms: C_4  and  C_5
REMARK    5  A    between atoms: C_4  and  O_6
REMARK    6  A    between atoms: C_4  and  C_25
REMARK    7  A    between atoms: O_6  and  C_7
REMARK    8  A    between atoms: C_10  and  C_11
REMARK    9  A    between atoms: C_11  and  C_12
REMARK   10  A    between atoms: N_14  and  C_15
REMARK   11  A    between atoms: C_17  and  C_18
REMARK   12  A    between atoms: C_20  and  C_21
REMARK   13  A    between atoms: C_25  and  O_27
REMARK                            x       y       z     vdW  Elec       q    Type
REMARK                         _______ _______ _______ _____ _____    ______ ____
ROOT
ATOM      1  C   UNL     1       2.882   6.747  18.661  0.00  0.00    +0.000 A 
ATOM      2  C   UNL     1       2.433   6.782  19.986  0.00  0.00    +0.000 A 
ATOM      3  C   UNL     1       1.712   7.874  20.469  0.00  0.00    +0.000 A 
ATOM      4  C   UNL     1       1.445   8.957  19.630  0.00  0.00    +0.000 A 
ATOM      5  C   UNL     1       1.868   8.907  18.297  0.00  0.00    +0.000 A 
ATOM      6  C   UNL     1       2.610   7.824  17.828  0.00  0.00    +0.000 A 
ENDROOT
BRANCH   1   7
ATOM      7  O   UNL     1       3.557   5.613  18.331  0.00  0.00    +0.000 OA
BRANCH   7   8
ATOM      8  C   UNL     1       3.014   4.288  18.505  0.00  0.00    +0.000 C 
ATOM      9  C   UNL     1       2.341   3.802  17.213  0.00  0.00    +0.000 C 
BRANCH   8  10
ATOM     10  C   UNL     1       4.266   3.393  18.678  0.00  0.00    +0.000 C 
ATOM     11  O   UNL     1       5.243   3.678  19.358  0.00  0.00    +0.000 OA
BRANCH  10  12
ATOM     12  O   UNL     1       4.196   2.224  17.988  0.00  0.00    +0.000 OA
ATOM     13  H   UNL     1       4.730   1.546  18.460  0.00  0.00    +0.000 HD
ENDBRANCH  10  12
ENDBRANCH   8  10
BRANCH   8  14
ATOM     14  C   UNL     1       2.126   4.077  19.754  0.00  0.00    +0.000 C 
BRANCH  14  16
ATOM     15  C   UNL     1       1.388   2.607  21.656  0.00  0.00    +0.000 C 
ATOM     16  C   UNL     1       2.330   2.736  20.469  0.00  0.00    +0.000 C 
ENDBRANCH  14  16
ENDBRANCH   8  14
ENDBRANCH   7   8
ENDBRANCH   1   7
BRANCH   4  17
ATOM     17  C   UNL     1       0.740  10.182  20.153  0.00  0.00    +0.000 C 
BRANCH  17  18
ATOM     18  C   UNL     1      -0.183  10.821  19.126  0.00  0.00    +0.000 C 
ATOM     19  O   UNL     1       0.094  11.927  18.669  0.00  0.00    +0.000 OA
ATOM     20  N   UNL     1      -1.293  10.050  18.797  0.00  0.00    +0.000 N 
ATOM     21  H   UNL     1      -1.494   9.259  19.398  0.00  0.00    +0.000 HD
BRANCH  20  22
ATOM     22  C   UNL     1      -2.275  10.372  17.833  0.00  0.00    +0.000 A 
ATOM     23  C   UNL     1      -2.175   9.980  16.498  0.00  0.00    +0.000 A 
ATOM     24  C   UNL     1      -3.148  10.339  15.561  0.00  0.00    +0.000 A 
ATOM     25  C   UNL     1      -2.998   9.934  14.123  0.00  0.00    +0.000 C 
ATOM     26  C   UNL     1      -4.246  11.100  15.971  0.00  0.00    +0.000 A 
ATOM     27  C   UNL     1      -4.382  11.488  17.310  0.00  0.00    +0.000 A 
ATOM     28  C   UNL     1      -5.550  12.332  17.735  0.00  0.00    +0.000 C 
ATOM     29  C   UNL     1      -3.396  11.112  18.238  0.00  0.00    +0.000 A 
ENDBRANCH  20  22
ENDBRANCH  17  18
ENDBRANCH   4  17
TORSDOF 9
ENDMDL
