MODEL 1
REMARK VINA RESULT:      -6.6      0.000      0.000
REMARK  Name = 
REMARK  7 active torsions:
REMARK  status: ('A' for Active; 'I' for Inactive)
REMARK    1  A    between atoms: C_1  and  C_2
REMARK    2  A    between atoms: C_2  and  C_3
REMARK    3  A    between atoms: C_2  and  C_4
REMARK    4  A    between atoms: C_2  and  C_5
REMARK    5  A    between atoms: C_10  and  C_11
REMARK    6  A    between atoms: C_17  and  C_18
REMARK    7  A    between atoms: C_20  and  N_21
REMARK                            x       y       z     vdW  Elec       q    Type
REMARK                         _______ _______ _______ _____ _____    ______ ____
ROOT
ATOM      1  C   UNL     1       5.374   5.772  17.593  0.00  0.00    +0.000 A 
ATOM      2  N   UNL     1       5.656   6.182  16.302  0.00  0.00    +0.000 N 
ATOM      3  N   UNL     1       4.793   7.089  15.807  0.00  0.00    +0.000 NA
ATOM      4  C   UNL     1       3.942   7.249  16.808  0.00  0.00    +0.000 A 
ATOM      5  C   UNL     1       4.184   6.410  17.904  0.00  0.00    +0.000 A 
ATOM      6  C   UNL     1       3.291   6.456  19.090  0.00  0.00    +0.000 C 
ATOM      7  C   UNL     1       2.420   7.686  19.030  0.00  0.00    +0.000 C 
ATOM      8  C   UNL     1       2.284   8.468  17.929  0.00  0.00    +0.000 C 
ATOM      9  O   UNL     1       2.978   8.187  16.742  0.00  0.00    +0.000 OA
ATOM     10  H   UNL     1       6.445   5.919  15.720  0.00  0.00    +0.000 HD
ENDROOT
BRANCH   6  11
ATOM     11  C   UNL     1       2.450   5.181  19.098  0.00  0.00    +0.000 A 
ATOM     12  C   UNL     1       2.103   4.606  20.332  0.00  0.00    +0.000 A 
ATOM     13  C   UNL     1       1.311   3.467  20.351  0.00  0.00    +0.000 A 
ATOM     14  N   UNL     1       0.844   2.860  19.242  0.00  0.00    +0.000 NA
ATOM     15  C   UNL     1       1.166   3.426  18.063  0.00  0.00    +0.000 A 
ATOM     16  C   UNL     1       1.938   4.572  17.941  0.00  0.00    +0.000 A 
ENDBRANCH   6  11
BRANCH   1  18
ATOM     17  C   UNL     1       7.446   4.431  17.469  0.00  0.00    +0.000 C 
ATOM     18  C   UNL     1       6.317   4.905  18.406  0.00  0.00    +0.000 C 
ATOM     19  C   UNL     1       5.598   3.682  19.000  0.00  0.00    +0.000 C 
ATOM     20  C   UNL     1       6.945   5.679  19.578  0.00  0.00    +0.000 C 
ENDBRANCH   1  18
BRANCH   8  21
ATOM     21  N   UNL     1       1.491   9.592  17.847  0.00  0.00    +0.000 N 
ATOM     22  H   UNL     1       1.284  10.063  18.724  0.00  0.00    +0.000 HD
ATOM     23  H   UNL     1       0.672   9.439  17.265  0.00  0.00    +0.000 HD
ENDBRANCH   8  21
BRANCH   7  24
ATOM     24  C   UNL     1       1.686   8.057  20.308  0.00  0.00    +0.000 C 
ATOM     25  N   UNL     1       1.077   8.365  21.367  0.00  0.00    +0.000 NA
ENDBRANCH   7  24
TORSDOF 4
ENDMDL
MODEL 2
REMARK VINA RESULT:      -6.5      0.103      1.002
REMARK  Name = 
REMARK  7 active torsions:
REMARK  status: ('A' for Active; 'I' for Inactive)
REMARK    1  A    between atoms: C_1  and  C_2
REMARK    2  A    between atoms: C_2  and  C_3
REMARK    3  A    between atoms: C_2  and  C_4
REMARK    4  A    between atoms: C_2  and  C_5
REMARK    5  A    between atoms: C_10  and  C_11
REMARK    6  A    between atoms: C_17  and  C_18
REMARK    7  A    between atoms: C_20  and  N_21
REMARK                            x       y       z     vdW  Elec       q    Type
REMARK                         _______ _______ _______ _____ _____    ______ ____
ROOT
ATOM      1  C   UNL     1       5.344   5.778  17.593  0.00  0.00    +0.000 A 
ATOM      2  N   UNL     1       5.628   6.182  16.300  0.00  0.00    +0.000 N 
ATOM      3  N   UNL     1       4.770   7.095  15.804  0.00  0.00    +0.000 NA
ATOM      4  C   UNL     1       3.922   7.264  16.805  0.00  0.00    +0.000 A 
ATOM      5  C   UNL     1       4.160   6.426  17.904  0.00  0.00    +0.000 A 
ATOM      6  C   UNL     1       3.269   6.482  19.091  0.00  0.00    +0.000 C 
ATOM      7  C   UNL     1       2.407   7.718  19.029  0.00  0.00    +0.000 C 
ATOM      8  C   UNL     1       2.275   8.498  17.925  0.00  0.00    +0.000 C 
ATOM      9  O   UNL     1       2.965   8.208  16.739  0.00  0.00    +0.000 OA
ATOM     10  H   UNL     1       6.413   5.912  15.717  0.00  0.00    +0.000 HD
ENDROOT
BRANCH   6  11
ATOM     11  C   UNL     1       2.419   5.213  19.104  0.00  0.00    +0.000 A 
ATOM     12  C   UNL     1       2.094   4.604  17.882  0.00  0.00    +0.000 A 
ATOM     13  C   UNL     1       1.350   3.432  17.884  0.00  0.00    +0.000 A 
ATOM     14  N   UNL     1       0.908   2.827  19.004  0.00  0.00    +0.000 NA
ATOM     15  C   UNL     1       1.238   3.408  20.174  0.00  0.00    +0.000 A 
ATOM     16  C   UNL     1       1.990   4.569  20.276  0.00  0.00    +0.000 A 
ENDBRANCH   6  11
BRANCH   1  18
ATOM     17  C   UNL     1       7.408   4.424  17.471  0.00  0.00    +0.000 C 
ATOM     18  C   UNL     1       6.283   4.908  18.407  0.00  0.00    +0.000 C 
ATOM     19  C   UNL     1       5.556   3.690  19.004  0.00  0.00    +0.000 C 
ATOM     20  C   UNL     1       6.916   5.680  19.577  0.00  0.00    +0.000 C 
ENDBRANCH   1  18
BRANCH   8  21
ATOM     21  N   UNL     1       1.490   9.627  17.841  0.00  0.00    +0.000 N 
ATOM     22  H   UNL     1       1.520  10.259  18.638  0.00  0.00    +0.000 HD
ATOM     23  H   UNL     1       0.547   9.414  17.528  0.00  0.00    +0.000 HD
ENDBRANCH   8  21
BRANCH   7  24
ATOM     24  C   UNL     1       1.678   8.099  20.306  0.00  0.00    +0.000 C 
ATOM     25  N   UNL     1       1.072   8.414  21.366  0.00  0.00    +0.000 NA
ENDBRANCH   7  24
TORSDOF 4
ENDMDL
MODEL 3
REMARK VINA RESULT:      -6.4      1.812      4.735
REMARK  Name = 
REMARK  7 active torsions:
REMARK  status: ('A' for Active; 'I' for Inactive)
REMARK    1  A    between atoms: C_1  and  C_2
REMARK    2  A    between atoms: C_2  and  C_3
REMARK    3  A    between atoms: C_2  and  C_4
REMARK    4  A    between atoms: C_2  and  C_5
REMARK    5  A    between atoms: C_10  and  C_11
REMARK    6  A    between atoms: C_17  and  C_18
REMARK    7  A    between atoms: C_20  and  N_21
REMARK                            x       y       z     vdW  Elec       q    Type
REMARK                         _______ _______ _______ _____ _____    ______ ____
ROOT
ATOM      1  C   UNL     1       2.425   3.393  19.469  0.00  0.00    +0.000 A 
ATOM      2  N   UNL     1       2.133   2.998  20.763  0.00  0.00    +0.000 N 
ATOM      3  N   UNL     1       1.955   4.015  21.627  0.00  0.00    +0.000 NA
ATOM      4  C   UNL     1       2.147   5.077  20.861  0.00  0.00    +0.000 A 
ATOM      5  C   UNL     1       2.524   4.772  19.546  0.00  0.00    +0.000 A 
ATOM      6  C   UNL     1       2.804   5.865  18.578  0.00  0.00    +0.000 C 
ATOM      7  C   UNL     1       2.301   7.177  19.126  0.00  0.00    +0.000 C 
ATOM      8  C   UNL     1       1.911   7.365  20.413  0.00  0.00    +0.000 C 
ATOM      9  O   UNL     1       1.934   6.316  21.344  0.00  0.00    +0.000 OA
ATOM     10  H   UNL     1       1.994   2.055  21.114  0.00  0.00    +0.000 HD
ENDROOT
BRANCH   6  11
ATOM     11  C   UNL     1       4.312   5.906  18.336  0.00  0.00    +0.000 A 
ATOM     12  C   UNL     1       4.792   6.500  17.158  0.00  0.00    +0.000 A 
ATOM     13  C   UNL     1       6.161   6.573  16.944  0.00  0.00    +0.000 A 
ATOM     14  N   UNL     1       7.081   6.102  17.807  0.00  0.00    +0.000 NA
ATOM     15  C   UNL     1       6.615   5.549  18.945  0.00  0.00    +0.000 A 
ATOM     16  C   UNL     1       5.267   5.444  19.256  0.00  0.00    +0.000 A 
ENDBRANCH   6  11
BRANCH   1  18
ATOM     17  C   UNL     1       1.173   1.599  18.321  0.00  0.00    +0.000 C 
ATOM     18  C   UNL     1       2.475   2.423  18.304  0.00  0.00    +0.000 C 
ATOM     19  C   UNL     1       3.682   1.474  18.405  0.00  0.00    +0.000 C 
ATOM     20  C   UNL     1       2.579   3.150  16.953  0.00  0.00    +0.000 C 
ENDBRANCH   1  18
BRANCH   8  21
ATOM     21  N   UNL     1       1.455   8.554  20.938  0.00  0.00    +0.000 N 
ATOM     22  H   UNL     1       2.141   9.299  21.032  0.00  0.00    +0.000 HD
ATOM     23  H   UNL     1       0.894   8.412  21.773  0.00  0.00    +0.000 HD
ENDBRANCH   8  21
BRANCH   7  24
ATOM     24  C   UNL     1       2.213   8.331  18.141  0.00  0.00    +0.000 C 
ATOM     25  N   UNL     1       2.141   9.288  17.324  0.00  0.00    +0.000 NA
ENDBRANCH   7  24
TORSDOF 4
ENDMDL
MODEL 4
REMARK VINA RESULT:      -6.4      1.813      4.611
REMARK  Name = 
REMARK  7 active torsions:
REMARK  status: ('A' for Active; 'I' for Inactive)
REMARK    1  A    between atoms: C_1  and  C_2
REMARK    2  A    between atoms: C_2  and  C_3
REMARK    3  A    between atoms: C_2  and  C_4
REMARK    4  A    between atoms: C_2  and  C_5
REMARK    5  A    between atoms: C_10  and  C_11
REMARK    6  A    between atoms: C_17  and  C_18
REMARK    7  A    between atoms: C_20  and  N_21
REMARK                            x       y       z     vdW  Elec       q    Type
REMARK                         _______ _______ _______ _____ _____    ______ ____
ROOT
ATOM      1  C   UNL     1       2.438   3.433  19.466  0.00  0.00    +0.000 A 
ATOM      2  N   UNL     1       2.174   3.033  20.765  0.00  0.00    +0.000 N 
ATOM      3  N   UNL     1       2.001   4.048  21.633  0.00  0.00    +0.000 NA
ATOM      4  C   UNL     1       2.167   5.112  20.864  0.00  0.00    +0.000 A 
ATOM      5  C   UNL     1       2.524   4.813  19.542  0.00  0.00    +0.000 A 
ATOM      6  C   UNL     1       2.775   5.908  18.570  0.00  0.00    +0.000 C 
ATOM      7  C   UNL     1       2.268   7.215  19.128  0.00  0.00    +0.000 C 
ATOM      8  C   UNL     1       1.899   7.398  20.422  0.00  0.00    +0.000 C 
ATOM      9  O   UNL     1       1.951   6.349  21.352  0.00  0.00    +0.000 OA
ATOM     10  H   UNL     1       2.052   2.089  21.117  0.00  0.00    +0.000 HD
ENDROOT
BRANCH   6  11
ATOM     11  C   UNL     1       4.277   5.966  18.301  0.00  0.00    +0.000 A 
ATOM     12  C   UNL     1       5.157   5.437  19.258  0.00  0.00    +0.000 A 
ATOM     13  C   UNL     1       6.522   5.454  19.008  0.00  0.00    +0.000 A 
ATOM     14  N   UNL     1       7.072   5.957  17.885  0.00  0.00    +0.000 NA
ATOM     15  C   UNL     1       6.221   6.448  16.963  0.00  0.00    +0.000 A 
ATOM     16  C   UNL     1       4.842   6.461  17.115  0.00  0.00    +0.000 A 
ENDBRANCH   6  11
BRANCH   1  18
ATOM     17  C   UNL     1       1.158   1.667  18.304  0.00  0.00    +0.000 C 
ATOM     18  C   UNL     1       2.477   2.463  18.300  0.00  0.00    +0.000 C 
ATOM     19  C   UNL     1       3.663   1.489  18.408  0.00  0.00    +0.000 C 
ATOM     20  C   UNL     1       2.607   3.190  16.950  0.00  0.00    +0.000 C 
ENDBRANCH   1  18
BRANCH   8  21
ATOM     21  N   UNL     1       1.440   8.582  20.957  0.00  0.00    +0.000 N 
ATOM     22  H   UNL     1       0.872   9.163  20.345  0.00  0.00    +0.000 HD
ATOM     23  H   UNL     1       2.174   9.094  21.437  0.00  0.00    +0.000 HD
ENDBRANCH   8  21
BRANCH   7  24
ATOM     24  C   UNL     1       2.149   8.369  18.146  0.00  0.00    +0.000 C 
ATOM     25  N   UNL     1       2.052   9.325  17.331  0.00  0.00    +0.000 NA
ENDBRANCH   7  24
TORSDOF 4
ENDMDL
MODEL 5
REMARK VINA RESULT:      -5.9      5.781      9.413
REMARK  Name = 
REMARK  7 active torsions:
REMARK  status: ('A' for Active; 'I' for Inactive)
REMARK    1  A    between atoms: C_1  and  C_2
REMARK    2  A    between atoms: C_2  and  C_3
REMARK    3  A    between atoms: C_2  and  C_4
REMARK    4  A    between atoms: C_2  and  C_5
REMARK    5  A    between atoms: C_10  and  C_11
REMARK    6  A    between atoms: C_17  and  C_18
REMARK    7  A    between atoms: C_20  and  N_21
REMARK                            x       y       z     vdW  Elec       q    Type
REMARK                         _______ _______ _______ _____ _____    ______ ____
ROOT
ATOM      1  C   UNL     1      -2.571  12.401  21.408  0.00  0.00    +0.000 A 
ATOM      2  N   UNL     1      -3.846  12.794  21.040  0.00  0.00    +0.000 N 
ATOM      3  N   UNL     1      -4.134  12.593  19.739  0.00  0.00    +0.000 NA
ATOM      4  C   UNL     1      -3.012  12.068  19.276  0.00  0.00    +0.000 A 
ATOM      5  C   UNL     1      -1.979  12.000  20.222  0.00  0.00    +0.000 A 
ATOM      6  C   UNL     1      -0.650  11.460  19.836  0.00  0.00    +0.000 C 
ATOM      7  C   UNL     1      -0.748  10.754  18.507  0.00  0.00    +0.000 C 
ATOM      8  C   UNL     1      -1.816  10.844  17.674  0.00  0.00    +0.000 C 
ATOM      9  O   UNL     1      -2.942  11.610  18.012  0.00  0.00    +0.000 OA
ATOM     10  H   UNL     1      -4.583  13.162  21.632  0.00  0.00    +0.000 HD
ENDROOT
BRANCH   6  11
ATOM     11  C   UNL     1       0.333  12.628  19.773  0.00  0.00    +0.000 A 
ATOM     12  C   UNL     1       1.461  12.610  20.610  0.00  0.00    +0.000 A 
ATOM     13  C   UNL     1       2.377  13.649  20.536  0.00  0.00    +0.000 A 
ATOM     14  N   UNL     1       2.256  14.698  19.699  0.00  0.00    +0.000 NA
ATOM     15  C   UNL     1       1.181  14.700  18.886  0.00  0.00    +0.000 A 
ATOM     16  C   UNL     1       0.219  13.701  18.875  0.00  0.00    +0.000 A 
ENDBRANCH   6  11
BRANCH   1  18
ATOM     17  C   UNL     1      -3.358  12.429  23.750  0.00  0.00    +0.000 C 
ATOM     18  C   UNL     1      -2.108  12.361  22.852  0.00  0.00    +0.000 C 
ATOM     19  C   UNL     1      -1.175  13.539  23.183  0.00  0.00    +0.000 C 
ATOM     20  C   UNL     1      -1.341  11.067  23.176  0.00  0.00    +0.000 C 
ENDBRANCH   1  18
BRANCH   8  21
ATOM     21  N   UNL     1      -1.927  10.215  16.454  0.00  0.00    +0.000 N 
ATOM     22  H   UNL     1      -2.469  10.701  15.743  0.00  0.00    +0.000 HD
ATOM     23  H   UNL     1      -2.172   9.234  16.551  0.00  0.00    +0.000 HD
ENDBRANCH   8  21
BRANCH   7  24
ATOM     24  C   UNL     1       0.430   9.874  18.121  0.00  0.00    +0.000 C 
ATOM     25  N   UNL     1       1.406   9.144  17.801  0.00  0.00    +0.000 NA
ENDBRANCH   7  24
TORSDOF 4
ENDMDL
MODEL 6
REMARK VINA RESULT:      -5.8      5.764      9.470
REMARK  Name = 
REMARK  7 active torsions:
REMARK  status: ('A' for Active; 'I' for Inactive)
REMARK    1  A    between atoms: C_1  and  C_2
REMARK    2  A    between atoms: C_2  and  C_3
REMARK    3  A    between atoms: C_2  and  C_4
REMARK    4  A    between atoms: C_2  and  C_5
REMARK    5  A    between atoms: C_10  and  C_11
REMARK    6  A    between atoms: C_17  and  C_18
REMARK    7  A    between atoms: C_20  and  N_21
REMARK                            x       y       z     vdW  Elec       q    Type
REMARK                         _______ _______ _______ _____ _____    ______ ____
ROOT
ATOM      1  C   UNL     1      -2.551  12.417  21.399  0.00  0.00    +0.000 A 
ATOM      2  N   UNL     1      -3.824  12.815  21.027  0.00  0.00    +0.000 N 
ATOM      3  N   UNL     1      -4.111  12.608  19.727  0.00  0.00    +0.000 NA
ATOM      4  C   UNL     1      -2.991  12.075  19.268  0.00  0.00    +0.000 A 
ATOM      5  C   UNL     1      -1.960  12.007  20.216  0.00  0.00    +0.000 A 
ATOM      6  C   UNL     1      -0.632  11.459  19.835  0.00  0.00    +0.000 C 
ATOM      7  C   UNL     1      -0.732  10.746  18.510  0.00  0.00    +0.000 C 
ATOM      8  C   UNL     1      -1.799  10.837  17.675  0.00  0.00    +0.000 C 
ATOM      9  O   UNL     1      -2.922  11.610  18.006  0.00  0.00    +0.000 OA
ATOM     10  H   UNL     1      -4.560  13.189  21.616  0.00  0.00    +0.000 HD
ENDROOT
BRANCH   6  11
ATOM     11  C   UNL     1       0.356  12.622  19.767  0.00  0.00    +0.000 A 
ATOM     12  C   UNL     1       0.030  13.742  18.986  0.00  0.00    +0.000 A 
ATOM     13  C   UNL     1       0.905  14.818  18.944  0.00  0.00    +0.000 A 
ATOM     14  N   UNL     1       2.074  14.860  19.613  0.00  0.00    +0.000 NA
ATOM     15  C   UNL     1       2.373  13.789  20.374  0.00  0.00    +0.000 A 
ATOM     16  C   UNL     1       1.556  12.674  20.493  0.00  0.00    +0.000 A 
ENDBRANCH   6  11
BRANCH   1  18
ATOM     17  C   UNL     1      -3.339  12.491  23.740  0.00  0.00    +0.000 C 
ATOM     18  C   UNL     1      -2.090  12.383  22.844  0.00  0.00    +0.000 C 
ATOM     19  C   UNL     1      -1.130  13.543  23.163  0.00  0.00    +0.000 C 
ATOM     20  C   UNL     1      -1.355  11.076  23.183  0.00  0.00    +0.000 C 
ENDBRANCH   1  18
BRANCH   8  21
ATOM     21  N   UNL     1      -1.911  10.202  16.458  0.00  0.00    +0.000 N 
ATOM     22  H   UNL     1      -2.424   9.323  16.453  0.00  0.00    +0.000 HD
ATOM     23  H   UNL     1      -1.022  10.154  15.968  0.00  0.00    +0.000 HD
ENDBRANCH   8  21
BRANCH   7  24
ATOM     24  C   UNL     1       0.442   9.858  18.131  0.00  0.00    +0.000 C 
ATOM     25  N   UNL     1       1.415   9.122  17.816  0.00  0.00    +0.000 NA
ENDBRANCH   7  24
TORSDOF 4
ENDMDL
MODEL 7
REMARK VINA RESULT:      -5.7      8.959     10.779
REMARK  Name = 
REMARK  7 active torsions:
REMARK  status: ('A' for Active; 'I' for Inactive)
REMARK    1  A    between atoms: C_1  and  C_2
REMARK    2  A    between atoms: C_2  and  C_3
REMARK    3  A    between atoms: C_2  and  C_4
REMARK    4  A    between atoms: C_2  and  C_5
REMARK    5  A    between atoms: C_10  and  C_11
REMARK    6  A    between atoms: C_17  and  C_18
REMARK    7  A    between atoms: C_20  and  N_21
REMARK                            x       y       z     vdW  Elec       q    Type
REMARK                         _______ _______ _______ _____ _____    ______ ____
ROOT
ATOM      1  C   UNL     1       9.135  12.483  21.334  0.00  0.00    +0.000 A 
ATOM      2  N   UNL     1       9.247  11.104  21.336  0.00  0.00    +0.000 N 
ATOM      3  N   UNL     1       9.874  10.597  20.257  0.00  0.00    +0.000 NA
ATOM      4  C   UNL     1      10.157  11.682  19.556  0.00  0.00    +0.000 A 
ATOM      5  C   UNL     1       9.658  12.868  20.111  0.00  0.00    +0.000 A 
ATOM      6  C   UNL     1       9.872  14.164  19.417  0.00  0.00    +0.000 C 
ATOM      7  C   UNL     1      10.915  14.003  18.339  0.00  0.00    +0.000 C 
ATOM      8  C   UNL     1      11.373  12.804  17.896  0.00  0.00    +0.000 C 
ATOM      9  O   UNL     1      10.906  11.598  18.440  0.00  0.00    +0.000 OA
ATOM     10  H   UNL     1       8.960  10.453  22.060  0.00  0.00    +0.000 HD
ENDROOT
BRANCH   6  11
ATOM     11  C   UNL     1       8.535  14.613  18.831  0.00  0.00    +0.000 A 
ATOM     12  C   UNL     1       7.852  13.748  17.961  0.00  0.00    +0.000 A 
ATOM     13  C   UNL     1       6.621  14.132  17.450  0.00  0.00    +0.000 A 
ATOM     14  N   UNL     1       6.023  15.305  17.736  0.00  0.00    +0.000 NA
ATOM     15  C   UNL     1       6.675  16.123  18.586  0.00  0.00    +0.000 A 
ATOM     16  C   UNL     1       7.901  15.822  19.160  0.00  0.00    +0.000 A 
ENDBRANCH   6  11
BRANCH   1  18
ATOM     17  C   UNL     1       8.583  12.310  23.736  0.00  0.00    +0.000 C 
ATOM     18  C   UNL     1       8.637  13.270  22.532  0.00  0.00    +0.000 C 
ATOM     19  C   UNL     1       7.237  13.860  22.284  0.00  0.00    +0.000 C 
ATOM     20  C   UNL     1       9.571  14.441  22.880  0.00  0.00    +0.000 C 
ENDBRANCH   1  18
BRANCH   8  21
ATOM     21  N   UNL     1      12.319  12.631  16.910  0.00  0.00    +0.000 N 
ATOM     22  H   UNL     1      13.262  12.409  17.223  0.00  0.00    +0.000 HD
ATOM     23  H   UNL     1      12.287  13.371  16.215  0.00  0.00    +0.000 HD
ENDBRANCH   8  21
BRANCH   7  24
ATOM     24  C   UNL     1      11.486  15.285  17.754  0.00  0.00    +0.000 C 
ATOM     25  N   UNL     1      11.960  16.348  17.270  0.00  0.00    +0.000 NA
ENDBRANCH   7  24
TORSDOF 4
ENDMDL
MODEL 8
REMARK VINA RESULT:      -5.7      8.972     10.782
REMARK  Name = 
REMARK  7 active torsions:
REMARK  status: ('A' for Active; 'I' for Inactive)
REMARK    1  A    between atoms: C_1  and  C_2
REMARK    2  A    between atoms: C_2  and  C_3
REMARK    3  A    between atoms: C_2  and  C_4
REMARK    4  A    between atoms: C_2  and  C_5
REMARK    5  A    between atoms: C_10  and  C_11
REMARK    6  A    between atoms: C_17  and  C_18
REMARK    7  A    between atoms: C_20  and  N_21
REMARK                            x       y       z     vdW  Elec       q    Type
REMARK                         _______ _______ _______ _____ _____    ______ ____
ROOT
ATOM      1  C   UNL     1       9.004  12.526  21.538  0.00  0.00    +0.000 A 
ATOM      2  N   UNL     1       9.087  11.145  21.563  0.00  0.00    +0.000 N 
ATOM      3  N   UNL     1       9.687  10.606  20.484  0.00  0.00    +0.000 NA
ATOM      4  C   UNL     1       9.983  11.673  19.760  0.00  0.00    +0.000 A 
ATOM      5  C   UNL     1       9.517  12.879  20.301  0.00  0.00    +0.000 A 
ATOM      6  C   UNL     1       9.748  14.158  19.582  0.00  0.00    +0.000 C 
ATOM      7  C   UNL     1      10.772  13.957  18.492  0.00  0.00    +0.000 C 
ATOM      8  C   UNL     1      11.198  12.741  18.064  0.00  0.00    +0.000 C 
ATOM      9  O   UNL     1      10.713  11.554  18.635  0.00  0.00    +0.000 OA
ATOM     10  H   UNL     1       8.798  10.513  22.303  0.00  0.00    +0.000 HD
ENDROOT
BRANCH   6  11
ATOM     11  C   UNL     1       8.412  14.625  19.008  0.00  0.00    +0.000 A 
ATOM     12  C   UNL     1       7.895  15.864  19.419  0.00  0.00    +0.000 A 
ATOM     13  C   UNL     1       6.699  16.314  18.878  0.00  0.00    +0.000 A 
ATOM     14  N   UNL     1       5.982  15.626  17.967  0.00  0.00    +0.000 NA
ATOM     15  C   UNL     1       6.493  14.445  17.564  0.00  0.00    +0.000 A 
ATOM     16  C   UNL     1       7.688  13.920  18.034  0.00  0.00    +0.000 A 
ENDBRANCH   6  11
BRANCH   1  18
ATOM     17  C   UNL     1       7.089  13.787  22.461  0.00  0.00    +0.000 C 
ATOM     18  C   UNL     1       8.541  13.343  22.729  0.00  0.00    +0.000 C 
ATOM     19  C   UNL     1       9.423  14.585  22.946  0.00  0.00    +0.000 C 
ATOM     20  C   UNL     1       8.572  12.529  24.034  0.00  0.00    +0.000 C 
ENDBRANCH   1  18
BRANCH   8  21
ATOM     21  N   UNL     1      12.126  12.530  17.068  0.00  0.00    +0.000 N 
ATOM     22  H   UNL     1      13.100  12.505  17.356  0.00  0.00    +0.000 HD
ATOM     23  H   UNL     1      11.958  13.121  16.259  0.00  0.00    +0.000 HD
ENDBRANCH   8  21
BRANCH   7  24
ATOM     24  C   UNL     1      11.361  15.216  17.877  0.00  0.00    +0.000 C 
ATOM     25  N   UNL     1      11.849  16.260  17.367  0.00  0.00    +0.000 NA
ENDBRANCH   7  24
TORSDOF 4
ENDMDL
MODEL 9
REMARK VINA RESULT:      -5.7      1.850      5.078
REMARK  Name = 
REMARK  7 active torsions:
REMARK  status: ('A' for Active; 'I' for Inactive)
REMARK    1  A    between atoms: C_1  and  C_2
REMARK    2  A    between atoms: C_2  and  C_3
REMARK    3  A    between atoms: C_2  and  C_4
REMARK    4  A    between atoms: C_2  and  C_5
REMARK    5  A    between atoms: C_10  and  C_11
REMARK    6  A    between atoms: C_17  and  C_18
REMARK    7  A    between atoms: C_20  and  N_21
REMARK                            x       y       z     vdW  Elec       q    Type
REMARK                         _______ _______ _______ _____ _____    ______ ____
ROOT
ATOM      1  C   UNL     1       2.277   3.447  19.062  0.00  0.00    +0.000 A 
ATOM      2  N   UNL     1       1.830   2.488  18.168  0.00  0.00    +0.000 N 
ATOM      3  N   UNL     1       2.526   2.438  17.016  0.00  0.00    +0.000 NA
ATOM      4  C   UNL     1       3.427   3.392  17.185  0.00  0.00    +0.000 A 
ATOM      5  C   UNL     1       3.281   4.112  18.379  0.00  0.00    +0.000 A 
ATOM      6  C   UNL     1       4.203   5.234  18.690  0.00  0.00    +0.000 C 
ATOM      7  C   UNL     1       5.391   5.196  17.762  0.00  0.00    +0.000 C 
ATOM      8  C   UNL     1       5.460   4.426  16.645  0.00  0.00    +0.000 C 
ATOM      9  O   UNL     1       4.405   3.576  16.278  0.00  0.00    +0.000 OA
ATOM     10  H   UNL     1       1.090   1.807  18.299  0.00  0.00    +0.000 HD
ENDROOT
BRANCH   6  11
ATOM     11  C   UNL     1       3.425   6.540  18.541  0.00  0.00    +0.000 A 
ATOM     12  C   UNL     1       2.635   6.984  19.614  0.00  0.00    +0.000 A 
ATOM     13  C   UNL     1       1.951   8.186  19.501  0.00  0.00    +0.000 A 
ATOM     14  N   UNL     1       1.992   8.973  18.408  0.00  0.00    +0.000 NA
ATOM     15  C   UNL     1       2.766   8.550  17.389  0.00  0.00    +0.000 A 
ATOM     16  C   UNL     1       3.499   7.372  17.413  0.00  0.00    +0.000 A 
ENDBRANCH   6  11
BRANCH   1  18
ATOM     17  C   UNL     1       0.626   4.586  20.506  0.00  0.00    +0.000 C 
ATOM     18  C   UNL     1       1.763   3.546  20.486  0.00  0.00    +0.000 C 
ATOM     19  C   UNL     1       2.871   3.980  21.462  0.00  0.00    +0.000 C 
ATOM     20  C   UNL     1       1.209   2.204  20.993  0.00  0.00    +0.000 C 
ENDBRANCH   1  18
BRANCH   8  21
ATOM     21  N   UNL     1       6.529   4.378  15.778  0.00  0.00    +0.000 N 
ATOM     22  H   UNL     1       6.583   5.121  15.086  0.00  0.00    +0.000 HD
ATOM     23  H   UNL     1       6.662   3.450  15.387  0.00  0.00    +0.000 HD
ENDBRANCH   8  21
BRANCH   7  24
ATOM     24  C   UNL     1       6.578   6.065  18.145  0.00  0.00    +0.000 C 
ATOM     25  N   UNL     1       7.561   6.785  18.464  0.00  0.00    +0.000 NA
ENDBRANCH   7  24
TORSDOF 4
ENDMDL
