MODEL 1
REMARK VINA RESULT:      -4.4      0.000      0.000
REMARK  Name = 
REMARK  10 active torsions:
REMARK  status: ('A' for Active; 'I' for Inactive)
REMARK    1  A    between atoms: N_1  and  C_2
REMARK    2  A    between atoms: C_2  and  C_3
REMARK    3  A    between atoms: C_3  and  C_4
REMARK    4  A    between atoms: C_4  and  C_5
REMARK    5  A    between atoms: C_5  and  C_6
REMARK    6  A    between atoms: C_6  and  N_7
REMARK    7  A    between atoms: N_7  and  C_8
REMARK    8  A    between atoms: C_8  and  C_9
REMARK    9  A    between atoms: C_9  and  C_10
REMARK   10  A    between atoms: C_10  and  N_11
REMARK                            x       y       z     vdW  Elec       q    Type
REMARK                         _______ _______ _______ _____ _____    ______ ____
ROOT
ATOM      1  C   UNL     1       3.729   2.778  18.230  0.00  0.00    +0.000 C 
ENDROOT
BRANCH   1   2
ATOM      2  N   UNL     1       4.954   3.548  18.033  0.00  0.00    +0.000 NA
ATOM      3  H   UNL     1       5.739   2.914  17.875  0.00  0.00    +0.000 HD
BRANCH   2   4
ATOM      4  C   UNL     1       4.814   4.451  16.892  0.00  0.00    +0.000 C 
BRANCH   4   5
ATOM      5  C   UNL     1       5.715   3.991  15.747  0.00  0.00    +0.000 C 
BRANCH   5   6
ATOM      6  C   UNL     1       7.083   4.662  15.850  0.00  0.00    +0.000 C 
BRANCH   6   7
ATOM      7  N   UNL     1       7.777   4.218  17.053  0.00  0.00    +0.000 NA
ATOM      8  H   UNL     1       7.101   3.845  17.719  0.00  0.00    +0.000 HD
ATOM      9  H   UNL     1       8.212   5.021  17.508  0.00  0.00    +0.000 HD
ENDBRANCH   6   7
ENDBRANCH   5   6
ENDBRANCH   4   5
ENDBRANCH   2   4
ENDBRANCH   1   2
BRANCH   1  10
ATOM     10  C   UNL     1       2.519   3.707  18.179  0.00  0.00    +0.000 C 
BRANCH  10  11
ATOM     11  C   UNL     1       1.389   3.159  19.050  0.00  0.00    +0.000 C 
BRANCH  11  12
ATOM     12  C   UNL     1       1.097   4.090  20.225  0.00  0.00    +0.000 C 
BRANCH  12  13
ATOM     13  C   UNL     1       2.050   3.814  21.385  0.00  0.00    +0.000 C 
BRANCH  13  14
ATOM     14  N   UNL     1       1.720   2.541  22.012  0.00  0.00    +0.000 NA
ATOM     15  H   UNL     1       0.803   2.609  22.452  0.00  0.00    +0.000 HD
ATOM     16  H   UNL     1       2.382   2.348  22.763  0.00  0.00    +0.000 HD
ENDBRANCH  13  14
ENDBRANCH  12  13
ENDBRANCH  11  12
ENDBRANCH  10  11
ENDBRANCH   1  10
TORSDOF 10
ENDMDL
MODEL 2
REMARK VINA RESULT:      -4.4      1.543      1.698
REMARK  Name = 
REMARK  10 active torsions:
REMARK  status: ('A' for Active; 'I' for Inactive)
REMARK    1  A    between atoms: N_1  and  C_2
REMARK    2  A    between atoms: C_2  and  C_3
REMARK    3  A    between atoms: C_3  and  C_4
REMARK    4  A    between atoms: C_4  and  C_5
REMARK    5  A    between atoms: C_5  and  C_6
REMARK    6  A    between atoms: C_6  and  N_7
REMARK    7  A    between atoms: N_7  and  C_8
REMARK    8  A    between atoms: C_8  and  C_9
REMARK    9  A    between atoms: C_9  and  C_10
REMARK   10  A    between atoms: C_10  and  N_11
REMARK                            x       y       z     vdW  Elec       q    Type
REMARK                         _______ _______ _______ _____ _____    ______ ____
ROOT
ATOM      1  C   UNL     1       4.248   2.386  19.882  0.00  0.00    +0.000 C 
ENDROOT
BRANCH   1   2
ATOM      2  N   UNL     1       5.387   3.101  19.314  0.00  0.00    +0.000 NA
ATOM      3  H   UNL     1       5.895   2.489  18.673  0.00  0.00    +0.000 HD
BRANCH   2   4
ATOM      4  C   UNL     1       4.937   4.295  18.600  0.00  0.00    +0.000 C 
BRANCH   4   5
ATOM      5  C   UNL     1       5.688   4.427  17.276  0.00  0.00    +0.000 C 
BRANCH   5   6
ATOM      6  C   UNL     1       7.053   5.072  17.505  0.00  0.00    +0.000 C 
BRANCH   6   7
ATOM      7  N   UNL     1       8.062   4.049  17.755  0.00  0.00    +0.000 NA
ATOM      8  H   UNL     1       7.617   3.222  18.155  0.00  0.00    +0.000 HD
ATOM      9  H   UNL     1       8.719   4.388  18.459  0.00  0.00    +0.000 HD
ENDBRANCH   6   7
ENDBRANCH   5   6
ENDBRANCH   4   5
ENDBRANCH   2   4
ENDBRANCH   1   2
BRANCH   1  10
ATOM     10  C   UNL     1       3.076   2.416  18.905  0.00  0.00    +0.000 C 
BRANCH  10  11
ATOM     11  C   UNL     1       1.754   2.242  19.653  0.00  0.00    +0.000 C 
BRANCH  11  12
ATOM     12  C   UNL     1       1.710   3.113  20.907  0.00  0.00    +0.000 C 
BRANCH  12  13
ATOM     13  C   UNL     1       1.280   4.536  20.565  0.00  0.00    +0.000 C 
BRANCH  13  14
ATOM     14  N   UNL     1       2.316   5.481  20.962  0.00  0.00    +0.000 NA
ATOM     15  H   UNL     1       3.050   5.496  20.255  0.00  0.00    +0.000 HD
ATOM     16  H   UNL     1       2.757   5.162  21.824  0.00  0.00    +0.000 HD
ENDBRANCH  13  14
ENDBRANCH  12  13
ENDBRANCH  11  12
ENDBRANCH  10  11
ENDBRANCH   1  10
TORSDOF 10
ENDMDL
MODEL 3
REMARK VINA RESULT:      -4.4      2.119      2.681
REMARK  Name = 
REMARK  10 active torsions:
REMARK  status: ('A' for Active; 'I' for Inactive)
REMARK    1  A    between atoms: N_1  and  C_2
REMARK    2  A    between atoms: C_2  and  C_3
REMARK    3  A    between atoms: C_3  and  C_4
REMARK    4  A    between atoms: C_4  and  C_5
REMARK    5  A    between atoms: C_5  and  C_6
REMARK    6  A    between atoms: C_6  and  N_7
REMARK    7  A    between atoms: N_7  and  C_8
REMARK    8  A    between atoms: C_8  and  C_9
REMARK    9  A    between atoms: C_9  and  C_10
REMARK   10  A    between atoms: C_10  and  N_11
REMARK                            x       y       z     vdW  Elec       q    Type
REMARK                         _______ _______ _______ _____ _____    ______ ____
ROOT
ATOM      1  C   UNL     1       4.100   5.355  17.328  0.00  0.00    +0.000 C 
ENDROOT
BRANCH   1   2
ATOM      2  N   UNL     1       5.294   4.989  18.086  0.00  0.00    +0.000 NA
ATOM      3  H   UNL     1       5.084   4.203  18.703  0.00  0.00    +0.000 HD
BRANCH   2   4
ATOM      4  C   UNL     1       6.384   4.626  17.181  0.00  0.00    +0.000 C 
BRANCH   4   5
ATOM      5  C   UNL     1       7.727   4.767  17.896  0.00  0.00    +0.000 C 
BRANCH   5   6
ATOM      6  C   UNL     1       7.675   5.924  18.892  0.00  0.00    +0.000 C 
BRANCH   6   7
ATOM      7  N   UNL     1       7.845   5.431  20.253  0.00  0.00    +0.000 NA
ATOM      8  H   UNL     1       8.338   6.130  20.810  0.00  0.00    +0.000 HD
ATOM      9  H   UNL     1       8.441   4.603  20.242  0.00  0.00    +0.000 HD
ENDBRANCH   6   7
ENDBRANCH   5   6
ENDBRANCH   4   5
ENDBRANCH   2   4
ENDBRANCH   1   2
BRANCH   1  10
ATOM     10  C   UNL     1       2.890   4.599  17.870  0.00  0.00    +0.000 C 
BRANCH  10  11
ATOM     11  C   UNL     1       3.090   3.092  17.713  0.00  0.00    +0.000 C 
BRANCH  11  12
ATOM     12  C   UNL     1       2.623   2.341  18.959  0.00  0.00    +0.000 C 
BRANCH  12  13
ATOM     13  C   UNL     1       3.603   2.540  20.112  0.00  0.00    +0.000 C 
BRANCH  13  14
ATOM     14  N   UNL     1       4.966   2.295  19.657  0.00  0.00    +0.000 NA
ATOM     15  H   UNL     1       5.114   2.764  18.765  0.00  0.00    +0.000 HD
ATOM     16  H   UNL     1       5.094   1.300  19.481  0.00  0.00    +0.000 HD
ENDBRANCH  13  14
ENDBRANCH  12  13
ENDBRANCH  11  12
ENDBRANCH  10  11
ENDBRANCH   1  10
TORSDOF 10
ENDMDL
MODEL 4
REMARK VINA RESULT:      -4.3      1.647      1.778
REMARK  Name = 
REMARK  10 active torsions:
REMARK  status: ('A' for Active; 'I' for Inactive)
REMARK    1  A    between atoms: N_1  and  C_2
REMARK    2  A    between atoms: C_2  and  C_3
REMARK    3  A    between atoms: C_3  and  C_4
REMARK    4  A    between atoms: C_4  and  C_5
REMARK    5  A    between atoms: C_5  and  C_6
REMARK    6  A    between atoms: C_6  and  N_7
REMARK    7  A    between atoms: N_7  and  C_8
REMARK    8  A    between atoms: C_8  and  C_9
REMARK    9  A    between atoms: C_9  and  C_10
REMARK   10  A    between atoms: C_10  and  N_11
REMARK                            x       y       z     vdW  Elec       q    Type
REMARK                         _______ _______ _______ _____ _____    ______ ____
ROOT
ATOM      1  C   UNL     1       4.250   3.659  18.757  0.00  0.00    +0.000 C 
ENDROOT
BRANCH   1   2
ATOM      2  N   UNL     1       5.654   3.802  19.136  0.00  0.00    +0.000 NA
ATOM      3  H   UNL     1       6.241   3.269  18.492  0.00  0.00    +0.000 HD
BRANCH   2   4
ATOM      4  C   UNL     1       6.050   5.209  19.112  0.00  0.00    +0.000 C 
BRANCH   4   5
ATOM      5  C   UNL     1       7.413   5.358  18.438  0.00  0.00    +0.000 C 
BRANCH   5   6
ATOM      6  C   UNL     1       7.399   4.687  17.066  0.00  0.00    +0.000 C 
BRANCH   6   7
ATOM      7  N   UNL     1       7.400   5.691  16.009  0.00  0.00    +0.000 NA
ATOM      8  H   UNL     1       6.450   5.818  15.658  0.00  0.00    +0.000 HD
ATOM      9  H   UNL     1       7.952   5.352  15.221  0.00  0.00    +0.000 HD
ENDBRANCH   6   7
ENDBRANCH   5   6
ENDBRANCH   4   5
ENDBRANCH   2   4
ENDBRANCH   1   2
BRANCH   1  10
ATOM     10  C   UNL     1       3.424   4.767  19.403  0.00  0.00    +0.000 C 
BRANCH  10  11
ATOM     11  C   UNL     1       1.931   4.490  19.227  0.00  0.00    +0.000 C 
BRANCH  11  12
ATOM     12  C   UNL     1       1.241   4.307  20.577  0.00  0.00    +0.000 C 
BRANCH  12  13
ATOM     13  C   UNL     1       1.372   2.865  21.062  0.00  0.00    +0.000 C 
BRANCH  13  14
ATOM     14  N   UNL     1       2.355   2.785  22.134  0.00  0.00    +0.000 NA
ATOM     15  H   UNL     1       2.135   1.993  22.736  0.00  0.00    +0.000 HD
ATOM     16  H   UNL     1       2.289   3.616  22.721  0.00  0.00    +0.000 HD
ENDBRANCH  13  14
ENDBRANCH  12  13
ENDBRANCH  11  12
ENDBRANCH  10  11
ENDBRANCH   1  10
TORSDOF 10
ENDMDL
MODEL 5
REMARK VINA RESULT:      -4.3      1.689      2.103
REMARK  Name = 
REMARK  10 active torsions:
REMARK  status: ('A' for Active; 'I' for Inactive)
REMARK    1  A    between atoms: N_1  and  C_2
REMARK    2  A    between atoms: C_2  and  C_3
REMARK    3  A    between atoms: C_3  and  C_4
REMARK    4  A    between atoms: C_4  and  C_5
REMARK    5  A    between atoms: C_5  and  C_6
REMARK    6  A    between atoms: C_6  and  N_7
REMARK    7  A    between atoms: N_7  and  C_8
REMARK    8  A    between atoms: C_8  and  C_9
REMARK    9  A    between atoms: C_9  and  C_10
REMARK   10  A    between atoms: C_10  and  N_11
REMARK                            x       y       z     vdW  Elec       q    Type
REMARK                         _______ _______ _______ _____ _____    ______ ____
ROOT
ATOM      1  C   UNL     1       4.284   3.864  18.877  0.00  0.00    +0.000 C 
ENDROOT
BRANCH   1   2
ATOM      2  N   UNL     1       5.743   3.897  18.850  0.00  0.00    +0.000 NA
ATOM      3  H   UNL     1       6.076   3.685  17.908  0.00  0.00    +0.000 HD
BRANCH   2   4
ATOM      4  C   UNL     1       6.234   5.212  19.260  0.00  0.00    +0.000 C 
BRANCH   4   5
ATOM      5  C   UNL     1       7.108   5.811  18.160  0.00  0.00    +0.000 C 
BRANCH   5   6
ATOM      6  C   UNL     1       7.450   4.747  17.119  0.00  0.00    +0.000 C 
BRANCH   6   7
ATOM      7  N   UNL     1       7.416   5.319  15.778  0.00  0.00    +0.000 NA
ATOM      8  H   UNL     1       7.538   6.330  15.835  0.00  0.00    +0.000 HD
ATOM      9  H   UNL     1       6.495   5.165  15.368  0.00  0.00    +0.000 HD
ENDBRANCH   6   7
ENDBRANCH   5   6
ENDBRANCH   4   5
ENDBRANCH   2   4
ENDBRANCH   1   2
BRANCH   1  10
ATOM     10  C   UNL     1       3.736   3.947  17.455  0.00  0.00    +0.000 C 
BRANCH  10  11
ATOM     11  C   UNL     1       2.430   3.162  17.340  0.00  0.00    +0.000 C 
BRANCH  11  12
ATOM     12  C   UNL     1       1.358   3.734  18.265  0.00  0.00    +0.000 C 
BRANCH  12  13
ATOM     13  C   UNL     1       0.787   2.648  19.172  0.00  0.00    +0.000 C 
BRANCH  13  14
ATOM     14  N   UNL     1       0.758   3.113  20.553  0.00  0.00    +0.000 NA
ATOM     15  H   UNL     1       1.176   2.406  21.157  0.00  0.00    +0.000 HD
ATOM     16  H   UNL     1      -0.209   3.212  20.859  0.00  0.00    +0.000 HD
ENDBRANCH  13  14
ENDBRANCH  12  13
ENDBRANCH  11  12
ENDBRANCH  10  11
ENDBRANCH   1  10
TORSDOF 10
ENDMDL
MODEL 6
REMARK VINA RESULT:      -4.3      2.276      4.887
REMARK  Name = 
REMARK  10 active torsions:
REMARK  status: ('A' for Active; 'I' for Inactive)
REMARK    1  A    between atoms: N_1  and  C_2
REMARK    2  A    between atoms: C_2  and  C_3
REMARK    3  A    between atoms: C_3  and  C_4
REMARK    4  A    between atoms: C_4  and  C_5
REMARK    5  A    between atoms: C_5  and  C_6
REMARK    6  A    between atoms: C_6  and  N_7
REMARK    7  A    between atoms: N_7  and  C_8
REMARK    8  A    between atoms: C_8  and  C_9
REMARK    9  A    between atoms: C_9  and  C_10
REMARK   10  A    between atoms: C_10  and  N_11
REMARK                            x       y       z     vdW  Elec       q    Type
REMARK                         _______ _______ _______ _____ _____    ______ ____
ROOT
ATOM      1  C   UNL     1       4.678   4.673  16.356  0.00  0.00    +0.000 C 
ENDROOT
BRANCH   1   2
ATOM      2  N   UNL     1       3.910   4.649  17.598  0.00  0.00    +0.000 NA
ATOM      3  H   UNL     1       3.543   5.581  17.795  0.00  0.00    +0.000 HD
BRANCH   2   4
ATOM      4  C   UNL     1       2.805   3.697  17.499  0.00  0.00    +0.000 C 
BRANCH   4   5
ATOM      5  C   UNL     1       3.267   2.311  17.947  0.00  0.00    +0.000 C 
BRANCH   5   6
ATOM      6  C   UNL     1       3.663   2.338  19.421  0.00  0.00    +0.000 C 
BRANCH   6   7
ATOM      7  N   UNL     1       5.092   2.592  19.559  0.00  0.00    +0.000 NA
ATOM      8  H   UNL     1       5.381   3.295  18.878  0.00  0.00    +0.000 HD
ATOM      9  H   UNL     1       5.611   1.743  19.328  0.00  0.00    +0.000 HD
ENDBRANCH   6   7
ENDBRANCH   5   6
ENDBRANCH   4   5
ENDBRANCH   2   4
ENDBRANCH   1   2
BRANCH   1  10
ATOM     10  C   UNL     1       5.623   5.871  16.354  0.00  0.00    +0.000 C 
BRANCH  10  11
ATOM     11  C   UNL     1       7.074   5.406  16.242  0.00  0.00    +0.000 C 
BRANCH  11  12
ATOM     12  C   UNL     1       7.520   4.679  17.508  0.00  0.00    +0.000 C 
BRANCH  12  13
ATOM     13  C   UNL     1       7.513   5.623  18.707  0.00  0.00    +0.000 C 
BRANCH  13  14
ATOM     14  N   UNL     1       6.499   5.206  19.667  0.00  0.00    +0.000 NA
ATOM     15  H   UNL     1       6.948   4.733  20.450  0.00  0.00    +0.000 HD
ATOM     16  H   UNL     1       5.882   4.518  19.235  0.00  0.00    +0.000 HD
ENDBRANCH  13  14
ENDBRANCH  12  13
ENDBRANCH  11  12
ENDBRANCH  10  11
ENDBRANCH   1  10
TORSDOF 10
ENDMDL
MODEL 7
REMARK VINA RESULT:      -4.2      2.410      2.767
REMARK  Name = 
REMARK  10 active torsions:
REMARK  status: ('A' for Active; 'I' for Inactive)
REMARK    1  A    between atoms: N_1  and  C_2
REMARK    2  A    between atoms: C_2  and  C_3
REMARK    3  A    between atoms: C_3  and  C_4
REMARK    4  A    between atoms: C_4  and  C_5
REMARK    5  A    between atoms: C_5  and  C_6
REMARK    6  A    between atoms: C_6  and  N_7
REMARK    7  A    between atoms: N_7  and  C_8
REMARK    8  A    between atoms: C_8  and  C_9
REMARK    9  A    between atoms: C_9  and  C_10
REMARK   10  A    between atoms: C_10  and  N_11
REMARK                            x       y       z     vdW  Elec       q    Type
REMARK                         _______ _______ _______ _____ _____    ______ ____
ROOT
ATOM      1  C   UNL     1       3.736   5.538  17.991  0.00  0.00    +0.000 C 
ENDROOT
BRANCH   1   2
ATOM      2  N   UNL     1       4.447   4.358  17.506  0.00  0.00    +0.000 NA
ATOM      3  H   UNL     1       4.543   4.406  16.490  0.00  0.00    +0.000 HD
BRANCH   2   4
ATOM      4  C   UNL     1       5.769   4.268  18.122  0.00  0.00    +0.000 C 
BRANCH   4   5
ATOM      5  C   UNL     1       6.042   5.515  18.961  0.00  0.00    +0.000 C 
BRANCH   5   6
ATOM      6  C   UNL     1       7.545   5.761  19.069  0.00  0.00    +0.000 C 
BRANCH   6   7
ATOM      7  N   UNL     1       8.020   5.424  20.406  0.00  0.00    +0.000 NA
ATOM      8  H   UNL     1       8.401   6.259  20.852  0.00  0.00    +0.000 HD
ATOM      9  H   UNL     1       8.794   4.762  20.333  0.00  0.00    +0.000 HD
ENDBRANCH   6   7
ENDBRANCH   5   6
ENDBRANCH   4   5
ENDBRANCH   2   4
ENDBRANCH   1   2
BRANCH   1  10
ATOM     10  C   UNL     1       2.429   5.118  18.658  0.00  0.00    +0.000 C 
BRANCH  10  11
ATOM     11  C   UNL     1       1.666   4.139  17.767  0.00  0.00    +0.000 C 
BRANCH  11  12
ATOM     12  C   UNL     1       1.018   3.030  18.593  0.00  0.00    +0.000 C 
BRANCH  12  13
ATOM     13  C   UNL     1       2.068   2.040  19.090  0.00  0.00    +0.000 C 
BRANCH  13  14
ATOM     14  N   UNL     1       2.944   1.648  17.994  0.00  0.00    +0.000 NA
ATOM     15  H   UNL     1       3.166   0.656  18.077  0.00  0.00    +0.000 HD
ATOM     16  H   UNL     1       3.830   2.146  18.070  0.00  0.00    +0.000 HD
ENDBRANCH  13  14
ENDBRANCH  12  13
ENDBRANCH  11  12
ENDBRANCH  10  11
ENDBRANCH   1  10
TORSDOF 10
ENDMDL
MODEL 8
REMARK VINA RESULT:      -4.2      1.609      1.815
REMARK  Name = 
REMARK  10 active torsions:
REMARK  status: ('A' for Active; 'I' for Inactive)
REMARK    1  A    between atoms: N_1  and  C_2
REMARK    2  A    between atoms: C_2  and  C_3
REMARK    3  A    between atoms: C_3  and  C_4
REMARK    4  A    between atoms: C_4  and  C_5
REMARK    5  A    between atoms: C_5  and  C_6
REMARK    6  A    between atoms: C_6  and  N_7
REMARK    7  A    between atoms: N_7  and  C_8
REMARK    8  A    between atoms: C_8  and  C_9
REMARK    9  A    between atoms: C_9  and  C_10
REMARK   10  A    between atoms: C_10  and  N_11
REMARK                            x       y       z     vdW  Elec       q    Type
REMARK                         _______ _______ _______ _____ _____    ______ ____
ROOT
ATOM      1  C   UNL     1       4.149   2.393  19.643  0.00  0.00    +0.000 C 
ENDROOT
BRANCH   1   2
ATOM      2  N   UNL     1       5.386   3.106  19.336  0.00  0.00    +0.000 NA
ATOM      3  H   UNL     1       5.975   2.530  18.732  0.00  0.00    +0.000 HD
BRANCH   2   4
ATOM      4  C   UNL     1       5.094   4.376  18.673  0.00  0.00    +0.000 C 
BRANCH   4   5
ATOM      5  C   UNL     1       6.395   5.118  18.369  0.00  0.00    +0.000 C 
BRANCH   5   6
ATOM      6  C   UNL     1       7.047   4.548  17.111  0.00  0.00    +0.000 C 
BRANCH   6   7
ATOM      7  N   UNL     1       6.092   3.735  16.369  0.00  0.00    +0.000 NA
ATOM      8  H   UNL     1       5.968   2.838  16.840  0.00  0.00    +0.000 HD
ATOM      9  H   UNL     1       6.474   3.521  15.447  0.00  0.00    +0.000 HD
ENDBRANCH   6   7
ENDBRANCH   5   6
ENDBRANCH   4   5
ENDBRANCH   2   4
ENDBRANCH   1   2
BRANCH   1  10
ATOM     10  C   UNL     1       3.235   2.390  18.421  0.00  0.00    +0.000 C 
BRANCH  10  11
ATOM     11  C   UNL     1       1.776   2.555  18.845  0.00  0.00    +0.000 C 
BRANCH  11  12
ATOM     12  C   UNL     1       1.415   4.028  19.022  0.00  0.00    +0.000 C 
BRANCH  12  13
ATOM     13  C   UNL     1       1.212   4.364  20.496  0.00  0.00    +0.000 C 
BRANCH  13  14
ATOM     14  N   UNL     1       2.288   5.226  20.966  0.00  0.00    +0.000 NA
ATOM     15  H   UNL     1       2.497   5.925  20.254  0.00  0.00    +0.000 HD
ATOM     16  H   UNL     1       3.139   4.677  21.085  0.00  0.00    +0.000 HD
ENDBRANCH  13  14
ENDBRANCH  12  13
ENDBRANCH  11  12
ENDBRANCH  10  11
ENDBRANCH   1  10
TORSDOF 10
ENDMDL
MODEL 9
REMARK VINA RESULT:      -4.2      2.121      5.027
REMARK  Name = 
REMARK  10 active torsions:
REMARK  status: ('A' for Active; 'I' for Inactive)
REMARK    1  A    between atoms: N_1  and  C_2
REMARK    2  A    between atoms: C_2  and  C_3
REMARK    3  A    between atoms: C_3  and  C_4
REMARK    4  A    between atoms: C_4  and  C_5
REMARK    5  A    between atoms: C_5  and  C_6
REMARK    6  A    between atoms: C_6  and  N_7
REMARK    7  A    between atoms: N_7  and  C_8
REMARK    8  A    between atoms: C_8  and  C_9
REMARK    9  A    between atoms: C_9  and  C_10
REMARK   10  A    between atoms: C_10  and  N_11
REMARK                            x       y       z     vdW  Elec       q    Type
REMARK                         _______ _______ _______ _____ _____    ______ ____
ROOT
ATOM      1  C   UNL     1       3.123   5.754  17.933  0.00  0.00    +0.000 C 
ENDROOT
BRANCH   1   2
ATOM      2  N   UNL     1       3.699   4.682  18.740  0.00  0.00    +0.000 NA
ATOM      3  H   UNL     1       4.696   4.855  18.883  0.00  0.00    +0.000 HD
BRANCH   2   4
ATOM      4  C   UNL     1       3.024   4.595  20.034  0.00  0.00    +0.000 C 
BRANCH   4   5
ATOM      5  C   UNL     1       2.913   3.135  20.469  0.00  0.00    +0.000 C 
BRANCH   5   6
ATOM      6  C   UNL     1       3.633   2.230  19.472  0.00  0.00    +0.000 C 
BRANCH   6   7
ATOM      7  N   UNL     1       4.988   1.949  19.929  0.00  0.00    +0.000 NA
ATOM      8  H   UNL     1       5.009   1.044  20.400  0.00  0.00    +0.000 HD
ATOM      9  H   UNL     1       5.261   2.640  20.628  0.00  0.00    +0.000 HD
ENDBRANCH   6   7
ENDBRANCH   5   6
ENDBRANCH   4   5
ENDBRANCH   2   4
ENDBRANCH   1   2
BRANCH   1  10
ATOM     10  C   UNL     1       4.221   6.713  17.483  0.00  0.00    +0.000 C 
BRANCH  10  11
ATOM     11  C   UNL     1       5.291   5.964  16.689  0.00  0.00    +0.000 C 
BRANCH  11  12
ATOM     12  C   UNL     1       6.687   6.247  17.241  0.00  0.00    +0.000 C 
BRANCH  12  13
ATOM     13  C   UNL     1       7.410   4.946  17.578  0.00  0.00    +0.000 C 
BRANCH  13  14
ATOM     14  N   UNL     1       6.598   4.141  18.481  0.00  0.00    +0.000 NA
ATOM     15  H   UNL     1       6.458   4.649  19.353  0.00  0.00    +0.000 HD
ATOM     16  H   UNL     1       7.101   3.289  18.725  0.00  0.00    +0.000 HD
ENDBRANCH  13  14
ENDBRANCH  12  13
ENDBRANCH  11  12
ENDBRANCH  10  11
ENDBRANCH   1  10
TORSDOF 10
ENDMDL
