MODEL 1
REMARK VINA RESULT:      -8.4      0.000      0.000
REMARK  Name = 
REMARK  14 active torsions:
REMARK  status: ('A' for Active; 'I' for Inactive)
REMARK    1  A    between atoms: C_1  and  C_2
REMARK    2  A    between atoms: C_2  and  C_3
REMARK    3  A    between atoms: C_3  and  C_4
REMARK    4  A    between atoms: C_4  and  C_5
REMARK    5  A    between atoms: C_5  and  C_6
REMARK    6  A    between atoms: C_6  and  N_7
REMARK    7  A    between atoms: N_7  and  C_11
REMARK    8  A    between atoms: C_8  and  C_9
REMARK    9  A    between atoms: C_11  and  C_12
REMARK   10  A    between atoms: C_11  and  C_21
REMARK   11  A    between atoms: C_12  and  N_13
REMARK   12  A    between atoms: N_13  and  C_14
REMARK   13  A    between atoms: C_14  and  C_15
REMARK   14  A    between atoms: C_26  and  O_27
REMARK                            x       y       z     vdW  Elec       q    Type
REMARK                         _______ _______ _______ _____ _____    ______ ____
ROOT
ATOM      1  C   UNL     1       4.383   5.387  17.834  0.00  0.00    +0.000 C 
ENDROOT
BRANCH   1   2
ATOM      2  C   UNL     1       3.166   6.195  18.285  0.00  0.00    +0.000 A 
ATOM      3  C   UNL     1       2.560   5.887  19.513  0.00  0.00    +0.000 A 
ATOM      4  C   UNL     1       1.837   6.860  20.203  0.00  0.00    +0.000 A 
ATOM      5  C   UNL     1       1.703   8.141  19.668  0.00  0.00    +0.000 A 
ATOM      6  C   UNL     1       1.295   9.212  20.458  0.00  0.00    +0.000 A 
ATOM      7  C   UNL     1       1.240  10.478  19.894  0.00  0.00    +0.000 A 
ATOM      8  C   UNL     1       1.376  10.671  18.527  0.00  0.00    +0.000 A 
ATOM      9  C   UNL     1       1.794   9.606  17.736  0.00  0.00    +0.000 A 
ATOM     10  C   UNL     1       2.070   8.361  18.323  0.00  0.00    +0.000 A 
ATOM     11  C   UNL     1       2.811   7.389  17.640  0.00  0.00    +0.000 A 
BRANCH   7  12
ATOM     12  O   UNL     1       1.178  11.560  20.721  0.00  0.00    +0.000 OA
ATOM     13  H   UNL     1       0.459  11.352  21.347  0.00  0.00    +0.000 HD
ENDBRANCH   7  12
ENDBRANCH   1   2
BRANCH   1  14
ATOM     14  N   UNL     1       5.365   6.182  17.032  0.00  0.00    +0.000 N 
ATOM     15  C   UNL     1       5.911   5.629  15.862  0.00  0.00    +0.000 C 
ATOM     16  C   UNL     1       5.104   4.633  15.068  0.00  0.00    +0.000 C 
ATOM     17  O   UNL     1       7.013   5.947  15.413  0.00  0.00    +0.000 OA
BRANCH  14  18
ATOM     18  C   UNL     1       6.182   7.192  17.751  0.00  0.00    +0.000 C 
BRANCH  18  19
ATOM     19  C   UNL     1       7.619   6.793  18.097  0.00  0.00    +0.000 C 
BRANCH  19  20
ATOM     20  C   UNL     1       8.451   7.951  18.662  0.00  0.00    +0.000 C 
BRANCH  20  21
ATOM     21  C   UNL     1       8.138   9.205  17.842  0.00  0.00    +0.000 C 
BRANCH  21  23
ATOM     22  C   UNL     1       9.335  10.408  19.668  0.00  0.00    +0.000 C 
ATOM     23  C   UNL     1       9.025  10.398  18.177  0.00  0.00    +0.000 C 
ENDBRANCH  21  23
ENDBRANCH  20  21
ENDBRANCH  19  20
ENDBRANCH  18  19
ENDBRANCH  14  18
ENDBRANCH   1  14
BRANCH   1  24
ATOM     24  C   UNL     1       4.978   4.665  19.117  0.00  0.00    +0.000 C 
BRANCH  24  25
ATOM     25  N   UNL     1       5.414   3.260  19.037  0.00  0.00    +0.000 NA
ATOM     26  H   UNL     1       6.429   3.204  19.144  0.00  0.00    +0.000 HD
BRANCH  25  27
ATOM     27  C   UNL     1       4.776   2.377  20.005  0.00  0.00    +0.000 C 
BRANCH  27  28
ATOM     28  C   UNL     1       3.271   2.518  19.945  0.00  0.00    +0.000 A 
ATOM     29  C   UNL     1       2.534   2.866  21.086  0.00  0.00    +0.000 A 
ATOM     30  C   UNL     1       1.144   2.995  21.023  0.00  0.00    +0.000 A 
ATOM     31  C   UNL     1       0.475   2.778  19.819  0.00  0.00    +0.000 A 
ATOM     32  C   UNL     1       1.193   2.430  18.677  0.00  0.00    +0.000 A 
ATOM     33  C   UNL     1       2.583   2.303  18.739  0.00  0.00    +0.000 A 
ENDBRANCH  27  28
ENDBRANCH  25  27
ENDBRANCH  24  25
ENDBRANCH   1  24
TORSDOF 12
ENDMDL
MODEL 2
REMARK VINA RESULT:      -8.1      2.056      5.863
REMARK  Name = 
REMARK  14 active torsions:
REMARK  status: ('A' for Active; 'I' for Inactive)
REMARK    1  A    between atoms: C_1  and  C_2
REMARK    2  A    between atoms: C_2  and  C_3
REMARK    3  A    between atoms: C_3  and  C_4
REMARK    4  A    between atoms: C_4  and  C_5
REMARK    5  A    between atoms: C_5  and  C_6
REMARK    6  A    between atoms: C_6  and  N_7
REMARK    7  A    between atoms: N_7  and  C_11
REMARK    8  A    between atoms: C_8  and  C_9
REMARK    9  A    between atoms: C_11  and  C_12
REMARK   10  A    between atoms: C_11  and  C_21
REMARK   11  A    between atoms: C_12  and  N_13
REMARK   12  A    between atoms: N_13  and  C_14
REMARK   13  A    between atoms: C_14  and  C_15
REMARK   14  A    between atoms: C_26  and  O_27
REMARK                            x       y       z     vdW  Elec       q    Type
REMARK                         _______ _______ _______ _____ _____    ______ ____
ROOT
ATOM      1  C   UNL     1       4.386   4.282  17.795  0.00  0.00    +0.000 C 
ENDROOT
BRANCH   1   2
ATOM      2  C   UNL     1       4.054   5.731  18.151  0.00  0.00    +0.000 A 
ATOM      3  C   UNL     1       4.133   6.715  17.153  0.00  0.00    +0.000 A 
ATOM      4  C   UNL     1       3.372   7.880  17.255  0.00  0.00    +0.000 A 
ATOM      5  C   UNL     1       2.542   8.078  18.358  0.00  0.00    +0.000 A 
ATOM      6  C   UNL     1       1.534   9.039  18.336  0.00  0.00    +0.000 A 
ATOM      7  C   UNL     1       0.693   9.152  19.433  0.00  0.00    +0.000 A 
ATOM      8  C   UNL     1       0.956   8.488  20.622  0.00  0.00    +0.000 A 
ATOM      9  C   UNL     1       1.954   7.519  20.644  0.00  0.00    +0.000 A 
ATOM     10  C   UNL     1       2.678   7.230  19.477  0.00  0.00    +0.000 A 
ATOM     11  C   UNL     1       3.427   6.052  19.365  0.00  0.00    +0.000 A 
BRANCH   7  12
ATOM     12  O   UNL     1      -0.480   9.831  19.290  0.00  0.00    +0.000 OA
ATOM     13  H   UNL     1      -0.296  10.721  19.647  0.00  0.00    +0.000 HD
ENDBRANCH   7  12
ENDBRANCH   1   2
BRANCH   1  14
ATOM     14  N   UNL     1       3.350   3.302  18.246  0.00  0.00    +0.000 N 
ATOM     15  C   UNL     1       3.738   2.186  19.005  0.00  0.00    +0.000 C 
ATOM     16  C   UNL     1       4.951   2.282  19.897  0.00  0.00    +0.000 C 
ATOM     17  O   UNL     1       3.112   1.125  19.019  0.00  0.00    +0.000 OA
BRANCH  14  18
ATOM     18  C   UNL     1       2.123   3.169  17.421  0.00  0.00    +0.000 C 
BRANCH  18  19
ATOM     19  C   UNL     1       0.825   3.706  18.030  0.00  0.00    +0.000 C 
BRANCH  19  20
ATOM     20  C   UNL     1       0.509   3.109  19.407  0.00  0.00    +0.000 C 
BRANCH  20  21
ATOM     21  C   UNL     1       0.772   4.186  20.463  0.00  0.00    +0.000 C 
BRANCH  21  23
ATOM     22  C   UNL     1       1.610   2.341  21.915  0.00  0.00    +0.000 C 
ATOM     23  C   UNL     1       1.819   3.790  21.498  0.00  0.00    +0.000 C 
ENDBRANCH  21  23
ENDBRANCH  20  21
ENDBRANCH  19  20
ENDBRANCH  18  19
ENDBRANCH  14  18
ENDBRANCH   1  14
BRANCH   1  24
ATOM     24  C   UNL     1       4.733   4.241  16.246  0.00  0.00    +0.000 C 
BRANCH  24  25
ATOM     25  N   UNL     1       5.945   3.546  15.779  0.00  0.00    +0.000 NA
ATOM     26  H   UNL     1       5.726   2.974  14.961  0.00  0.00    +0.000 HD
BRANCH  25  27
ATOM     27  C   UNL     1       7.061   4.429  15.466  0.00  0.00    +0.000 C 
BRANCH  27  28
ATOM     28  C   UNL     1       7.402   5.301  16.655  0.00  0.00    +0.000 A 
ATOM     29  C   UNL     1       7.739   4.733  17.892  0.00  0.00    +0.000 A 
ATOM     30  C   UNL     1       8.054   5.545  18.984  0.00  0.00    +0.000 A 
ATOM     31  C   UNL     1       8.035   6.933  18.854  0.00  0.00    +0.000 A 
ATOM     32  C   UNL     1       7.699   7.512  17.632  0.00  0.00    +0.000 A 
ATOM     33  C   UNL     1       7.387   6.701  16.538  0.00  0.00    +0.000 A 
ENDBRANCH  27  28
ENDBRANCH  25  27
ENDBRANCH  24  25
ENDBRANCH   1  24
TORSDOF 12
ENDMDL
MODEL 3
REMARK VINA RESULT:      -7.7      1.294      2.326
REMARK  Name = 
REMARK  14 active torsions:
REMARK  status: ('A' for Active; 'I' for Inactive)
REMARK    1  A    between atoms: C_1  and  C_2
REMARK    2  A    between atoms: C_2  and  C_3
REMARK    3  A    between atoms: C_3  and  C_4
REMARK    4  A    between atoms: C_4  and  C_5
REMARK    5  A    between atoms: C_5  and  C_6
REMARK    6  A    between atoms: C_6  and  N_7
REMARK    7  A    between atoms: N_7  and  C_11
REMARK    8  A    between atoms: C_8  and  C_9
REMARK    9  A    between atoms: C_11  and  C_12
REMARK   10  A    between atoms: C_11  and  C_21
REMARK   11  A    between atoms: C_12  and  N_13
REMARK   12  A    between atoms: N_13  and  C_14
REMARK   13  A    between atoms: C_14  and  C_15
REMARK   14  A    between atoms: C_26  and  O_27
REMARK                            x       y       z     vdW  Elec       q    Type
REMARK                         _______ _______ _______ _____ _____    ______ ____
ROOT
ATOM      1  C   UNL     1       3.676   5.483  17.175  0.00  0.00    +0.000 C 
ENDROOT
BRANCH   1   2
ATOM      2  C   UNL     1       3.362   6.732  17.999  0.00  0.00    +0.000 A 
ATOM      3  C   UNL     1       3.410   7.990  17.376  0.00  0.00    +0.000 A 
ATOM      4  C   UNL     1       2.659   9.052  17.880  0.00  0.00    +0.000 A 
ATOM      5  C   UNL     1       1.867   8.871  19.013  0.00  0.00    +0.000 A 
ATOM      6  C   UNL     1       0.862   9.778  19.341  0.00  0.00    +0.000 A 
ATOM      7  C   UNL     1       0.059   9.519  20.442  0.00  0.00    +0.000 A 
ATOM      8  C   UNL     1       0.358   8.503  21.337  0.00  0.00    +0.000 A 
ATOM      9  C   UNL     1       1.353   7.588  21.007  0.00  0.00    +0.000 A 
ATOM     10  C   UNL     1       2.036   7.703  19.787  0.00  0.00    +0.000 A 
ATOM     11  C   UNL     1       2.777   6.632  19.270  0.00  0.00    +0.000 A 
BRANCH   7  12
ATOM     12  O   UNL     1      -1.116  10.199  20.568  0.00  0.00    +0.000 OA
ATOM     13  H   UNL     1      -0.851  11.108  20.805  0.00  0.00    +0.000 HD
ENDBRANCH   7  12
ENDBRANCH   1   2
BRANCH   1  14
ATOM     14  N   UNL     1       5.109   5.061  17.251  0.00  0.00    +0.000 N 
ATOM     15  C   UNL     1       5.767   4.636  16.085  0.00  0.00    +0.000 C 
ATOM     16  C   UNL     1       5.339   5.190  14.749  0.00  0.00    +0.000 C 
ATOM     17  O   UNL     1       6.720   3.854  16.092  0.00  0.00    +0.000 OA
BRANCH  14  18
ATOM     18  C   UNL     1       5.601   4.520  18.543  0.00  0.00    +0.000 C 
BRANCH  18  19
ATOM     19  C   UNL     1       6.444   5.463  19.406  0.00  0.00    +0.000 C 
BRANCH  19  20
ATOM     20  C   UNL     1       7.817   5.777  18.796  0.00  0.00    +0.000 C 
BRANCH  20  21
ATOM     21  C   UNL     1       7.702   7.092  18.021  0.00  0.00    +0.000 C 
BRANCH  21  23
ATOM     22  C   UNL     1       8.208   9.530  17.884  0.00  0.00    +0.000 C 
ATOM     23  C   UNL     1       8.508   8.235  18.627  0.00  0.00    +0.000 C 
ENDBRANCH  21  23
ENDBRANCH  20  21
ENDBRANCH  19  20
ENDBRANCH  18  19
ENDBRANCH  14  18
ENDBRANCH   1  14
BRANCH   1  24
ATOM     24  C   UNL     1       2.617   4.369  17.577  0.00  0.00    +0.000 C 
BRANCH  24  25
ATOM     25  N   UNL     1       2.594   3.082  16.863  0.00  0.00    +0.000 NA
ATOM     26  H   UNL     1       3.486   2.931  16.387  0.00  0.00    +0.000 HD
BRANCH  25  27
ATOM     27  C   UNL     1       2.296   1.932  17.707  0.00  0.00    +0.000 C 
BRANCH  27  28
ATOM     28  C   UNL     1       2.222   2.342  19.161  0.00  0.00    +0.000 A 
ATOM     29  C   UNL     1       3.346   2.246  19.994  0.00  0.00    +0.000 A 
ATOM     30  C   UNL     1       3.270   2.629  21.337  0.00  0.00    +0.000 A 
ATOM     31  C   UNL     1       2.072   3.110  21.861  0.00  0.00    +0.000 A 
ATOM     32  C   UNL     1       0.946   3.209  21.046  0.00  0.00    +0.000 A 
ATOM     33  C   UNL     1       1.021   2.830  19.703  0.00  0.00    +0.000 A 
ENDBRANCH  27  28
ENDBRANCH  25  27
ENDBRANCH  24  25
ENDBRANCH   1  24
TORSDOF 12
ENDMDL
MODEL 4
REMARK VINA RESULT:      -7.7      2.013      4.406
REMARK  Name = 
REMARK  14 active torsions:
REMARK  status: ('A' for Active; 'I' for Inactive)
REMARK    1  A    between atoms: C_1  and  C_2
REMARK    2  A    between atoms: C_2  and  C_3
REMARK    3  A    between atoms: C_3  and  C_4
REMARK    4  A    between atoms: C_4  and  C_5
REMARK    5  A    between atoms: C_5  and  C_6
REMARK    6  A    between atoms: C_6  and  N_7
REMARK    7  A    between atoms: N_7  and  C_11
REMARK    8  A    between atoms: C_8  and  C_9
REMARK    9  A    between atoms: C_11  and  C_12
REMARK   10  A    between atoms: C_11  and  C_21
REMARK   11  A    between atoms: C_12  and  N_13
REMARK   12  A    between atoms: N_13  and  C_14
REMARK   13  A    between atoms: C_14  and  C_15
REMARK   14  A    between atoms: C_26  and  O_27
REMARK                            x       y       z     vdW  Elec       q    Type
REMARK                         _______ _______ _______ _____ _____    ______ ____
ROOT
ATOM      1  C   UNL     1       4.450   4.929  17.106  0.00  0.00    +0.000 C 
ENDROOT
BRANCH   1   2
ATOM      2  C   UNL     1       4.037   6.208  17.836  0.00  0.00    +0.000 A 
ATOM      3  C   UNL     1       4.034   7.423  17.134  0.00  0.00    +0.000 A 
ATOM      4  C   UNL     1       3.206   8.468  17.545  0.00  0.00    +0.000 A 
ATOM      5  C   UNL     1       2.389   8.314  18.664  0.00  0.00    +0.000 A 
ATOM      6  C   UNL     1       1.324   9.179  18.902  0.00  0.00    +0.000 A 
ATOM      7  C   UNL     1       0.501   8.943  19.994  0.00  0.00    +0.000 A 
ATOM      8  C   UNL     1       0.829   8.006  20.963  0.00  0.00    +0.000 A 
ATOM      9  C   UNL     1       1.886   7.133  20.723  0.00  0.00    +0.000 A 
ATOM     10  C   UNL     1       2.601   7.210  19.518  0.00  0.00    +0.000 A 
ATOM     11  C   UNL     1       3.418   6.155  19.094  0.00  0.00    +0.000 A 
BRANCH   7  12
ATOM     12  O   UNL     1      -0.714   9.558  20.041  0.00  0.00    +0.000 OA
ATOM     13  H   UNL     1      -0.591  10.388  19.541  0.00  0.00    +0.000 HD
ENDBRANCH   7  12
ENDBRANCH   1   2
BRANCH   1  14
ATOM     14  N   UNL     1       5.699   5.078  16.297  0.00  0.00    +0.000 N 
ATOM     15  C   UNL     1       6.837   5.658  16.882  0.00  0.00    +0.000 C 
ATOM     16  C   UNL     1       7.057   5.521  18.368  0.00  0.00    +0.000 C 
ATOM     17  O   UNL     1       7.705   6.248  16.236  0.00  0.00    +0.000 OA
BRANCH  14  18
ATOM     18  C   UNL     1       5.555   5.203  14.825  0.00  0.00    +0.000 C 
BRANCH  18  19
ATOM     19  C   UNL     1       5.190   3.929  14.060  0.00  0.00    +0.000 C 
BRANCH  19  20
ATOM     20  C   UNL     1       5.989   3.750  12.763  0.00  0.00    +0.000 C 
BRANCH  20  21
ATOM     21  C   UNL     1       5.146   2.915  11.796  0.00  0.00    +0.000 C 
BRANCH  21  23
ATOM     22  C   UNL     1       7.344   1.951  11.122  0.00  0.00    +0.000 C 
ATOM     23  C   UNL     1       5.856   1.670  11.277  0.00  0.00    +0.000 C 
ENDBRANCH  21  23
ENDBRANCH  20  21
ENDBRANCH  19  20
ENDBRANCH  18  19
ENDBRANCH  14  18
ENDBRANCH   1  14
BRANCH   1  24
ATOM     24  C   UNL     1       4.468   3.755  18.176  0.00  0.00    +0.000 C 
BRANCH  24  25
ATOM     25  N   UNL     1       4.389   2.353  17.734  0.00  0.00    +0.000 NA
ATOM     26  H   UNL     1       5.151   1.813  18.149  0.00  0.00    +0.000 HD
BRANCH  25  27
ATOM     27  C   UNL     1       3.119   1.701  18.028  0.00  0.00    +0.000 C 
BRANCH  27  28
ATOM     28  C   UNL     1       2.448   2.351  19.219  0.00  0.00    +0.000 A 
ATOM     29  C   UNL     1       1.253   3.068  19.069  0.00  0.00    +0.000 A 
ATOM     30  C   UNL     1       0.638   3.664  20.174  0.00  0.00    +0.000 A 
ATOM     31  C   UNL     1       1.212   3.552  21.439  0.00  0.00    +0.000 A 
ATOM     32  C   UNL     1       2.401   2.844  21.603  0.00  0.00    +0.000 A 
ATOM     33  C   UNL     1       3.015   2.245  20.500  0.00  0.00    +0.000 A 
ENDBRANCH  27  28
ENDBRANCH  25  27
ENDBRANCH  24  25
ENDBRANCH   1  24
TORSDOF 12
ENDMDL
MODEL 5
REMARK VINA RESULT:      -7.6      2.361      5.735
REMARK  Name = 
REMARK  14 active torsions:
REMARK  status: ('A' for Active; 'I' for Inactive)
REMARK    1  A    between atoms: C_1  and  C_2
REMARK    2  A    between atoms: C_2  and  C_3
REMARK    3  A    between atoms: C_3  and  C_4
REMARK    4  A    between atoms: C_4  and  C_5
REMARK    5  A    between atoms: C_5  and  C_6
REMARK    6  A    between atoms: C_6  and  N_7
REMARK    7  A    between atoms: N_7  and  C_11
REMARK    8  A    between atoms: C_8  and  C_9
REMARK    9  A    between atoms: C_11  and  C_12
REMARK   10  A    between atoms: C_11  and  C_21
REMARK   11  A    between atoms: C_12  and  N_13
REMARK   12  A    between atoms: N_13  and  C_14
REMARK   13  A    between atoms: C_14  and  C_15
REMARK   14  A    between atoms: C_26  and  O_27
REMARK                            x       y       z     vdW  Elec       q    Type
REMARK                         _______ _______ _______ _____ _____    ______ ____
ROOT
ATOM      1  C   UNL     1       4.082   6.394  17.933  0.00  0.00    +0.000 C 
ENDROOT
BRANCH   1   2
ATOM      2  C   UNL     1       2.854   7.122  18.479  0.00  0.00    +0.000 A 
ATOM      3  C   UNL     1       2.299   6.704  19.699  0.00  0.00    +0.000 A 
ATOM      4  C   UNL     1       1.567   7.598  20.480  0.00  0.00    +0.000 A 
ATOM      5  C   UNL     1       1.371   8.908  20.044  0.00  0.00    +0.000 A 
ATOM      6  C   UNL     1       0.953   9.904  20.923  0.00  0.00    +0.000 A 
ATOM      7  C   UNL     1       0.837  11.205  20.455  0.00  0.00    +0.000 A 
ATOM      8  C   UNL     1       0.921  11.501  19.103  0.00  0.00    +0.000 A 
ATOM      9  C   UNL     1       1.350  10.512  18.224  0.00  0.00    +0.000 A 
ATOM     10  C   UNL     1       1.686   9.239  18.709  0.00  0.00    +0.000 A 
ATOM     11  C   UNL     1       2.437   8.346  17.934  0.00  0.00    +0.000 A 
BRANCH   7  12
ATOM     12  O   UNL     1       0.766  12.221  21.361  0.00  0.00    +0.000 OA
ATOM     13  H   UNL     1       0.765  13.035  20.821  0.00  0.00    +0.000 HD
ENDBRANCH   7  12
ENDBRANCH   1   2
BRANCH   1  14
ATOM     14  N   UNL     1       4.063   4.918  18.181  0.00  0.00    +0.000 N 
ATOM     15  C   UNL     1       5.181   4.301  18.765  0.00  0.00    +0.000 C 
ATOM     16  C   UNL     1       6.056   5.091  19.706  0.00  0.00    +0.000 C 
ATOM     17  O   UNL     1       5.473   3.117  18.584  0.00  0.00    +0.000 OA
BRANCH  14  18
ATOM     18  C   UNL     1       3.209   4.083  17.299  0.00  0.00    +0.000 C 
BRANCH  18  19
ATOM     19  C   UNL     1       1.833   3.694  17.845  0.00  0.00    +0.000 C 
BRANCH  19  20
ATOM     20  C   UNL     1       1.765   2.244  18.341  0.00  0.00    +0.000 C 
BRANCH  20  21
ATOM     21  C   UNL     1       1.410   2.268  19.830  0.00  0.00    +0.000 C 
BRANCH  21  23
ATOM     22  C   UNL     1       2.187   3.748  21.680  0.00  0.00    +0.000 C 
ATOM     23  C   UNL     1       2.583   2.620  20.736  0.00  0.00    +0.000 C 
ENDBRANCH  21  23
ENDBRANCH  20  21
ENDBRANCH  19  20
ENDBRANCH  18  19
ENDBRANCH  14  18
ENDBRANCH   1  14
BRANCH   1  24
ATOM     24  C   UNL     1       4.256   6.826  16.415  0.00  0.00    +0.000 C 
BRANCH  24  25
ATOM     25  N   UNL     1       5.595   6.847  15.802  0.00  0.00    +0.000 NA
ATOM     26  H   UNL     1       6.159   7.588  16.223  0.00  0.00    +0.000 HD
BRANCH  25  27
ATOM     27  C   UNL     1       6.315   5.583  15.889  0.00  0.00    +0.000 C 
BRANCH  27  28
ATOM     28  C   UNL     1       6.449   4.950  14.522  0.00  0.00    +0.000 A 
ATOM     29  C   UNL     1       5.510   4.013  14.067  0.00  0.00    +0.000 A 
ATOM     30  C   UNL     1       5.640   3.434  12.802  0.00  0.00    +0.000 A 
ATOM     31  C   UNL     1       6.709   3.783  11.978  0.00  0.00    +0.000 A 
ATOM     32  C   UNL     1       7.651   4.711  12.417  0.00  0.00    +0.000 A 
ATOM     33  C   UNL     1       7.521   5.293  13.681  0.00  0.00    +0.000 A 
ENDBRANCH  27  28
ENDBRANCH  25  27
ENDBRANCH  24  25
ENDBRANCH   1  24
TORSDOF 12
ENDMDL
MODEL 6
REMARK VINA RESULT:      -7.6      1.158      1.922
REMARK  Name = 
REMARK  14 active torsions:
REMARK  status: ('A' for Active; 'I' for Inactive)
REMARK    1  A    between atoms: C_1  and  C_2
REMARK    2  A    between atoms: C_2  and  C_3
REMARK    3  A    between atoms: C_3  and  C_4
REMARK    4  A    between atoms: C_4  and  C_5
REMARK    5  A    between atoms: C_5  and  C_6
REMARK    6  A    between atoms: C_6  and  N_7
REMARK    7  A    between atoms: N_7  and  C_11
REMARK    8  A    between atoms: C_8  and  C_9
REMARK    9  A    between atoms: C_11  and  C_12
REMARK   10  A    between atoms: C_11  and  C_21
REMARK   11  A    between atoms: C_12  and  N_13
REMARK   12  A    between atoms: N_13  and  C_14
REMARK   13  A    between atoms: C_14  and  C_15
REMARK   14  A    between atoms: C_26  and  O_27
REMARK                            x       y       z     vdW  Elec       q    Type
REMARK                         _______ _______ _______ _____ _____    ______ ____
ROOT
ATOM      1  C   UNL     1       4.816   5.031  18.010  0.00  0.00    +0.000 C 
ENDROOT
BRANCH   1   2
ATOM      2  C   UNL     1       4.214   6.400  18.329  0.00  0.00    +0.000 A 
ATOM      3  C   UNL     1       4.210   7.392  17.336  0.00  0.00    +0.000 A 
ATOM      4  C   UNL     1       3.257   8.411  17.366  0.00  0.00    +0.000 A 
ATOM      5  C   UNL     1       2.315   8.456  18.393  0.00  0.00    +0.000 A 
ATOM      6  C   UNL     1       1.164   9.232  18.280  0.00  0.00    +0.000 A 
ATOM      7  C   UNL     1       0.226   9.192  19.301  0.00  0.00    +0.000 A 
ATOM      8  C   UNL     1       0.495   8.570  20.511  0.00  0.00    +0.000 A 
ATOM      9  C   UNL     1       1.638   7.784  20.624  0.00  0.00    +0.000 A 
ATOM     10  C   UNL     1       2.497   7.632  19.525  0.00  0.00    +0.000 A 
ATOM     11  C   UNL     1       3.441   6.599  19.483  0.00  0.00    +0.000 A 
BRANCH   7  12
ATOM     12  O   UNL     1      -1.029   9.664  19.054  0.00  0.00    +0.000 OA
ATOM     13  H   UNL     1      -0.889  10.479  18.535  0.00  0.00    +0.000 HD
ENDBRANCH   7  12
ENDBRANCH   1   2
BRANCH   1  14
ATOM     14  N   UNL     1       6.039   5.101  17.152  0.00  0.00    +0.000 N 
ATOM     15  C   UNL     1       6.030   4.495  15.885  0.00  0.00    +0.000 C 
ATOM     16  C   UNL     1       4.730   4.382  15.128  0.00  0.00    +0.000 C 
ATOM     17  O   UNL     1       7.046   4.081  15.324  0.00  0.00    +0.000 OA
BRANCH  14  18
ATOM     18  C   UNL     1       7.352   5.229  17.833  0.00  0.00    +0.000 C 
BRANCH  18  19
ATOM     19  C   UNL     1       7.715   6.616  18.370  0.00  0.00    +0.000 C 
BRANCH  19  20
ATOM     20  C   UNL     1       7.988   7.642  17.264  0.00  0.00    +0.000 C 
BRANCH  20  21
ATOM     21  C   UNL     1       7.738   9.039  17.839  0.00  0.00    +0.000 C 
BRANCH  21  23
ATOM     22  C   UNL     1       9.273  10.951  18.291  0.00  0.00    +0.000 C 
ATOM     23  C   UNL     1       8.866   9.549  18.727  0.00  0.00    +0.000 C 
ENDBRANCH  21  23
ENDBRANCH  20  21
ENDBRANCH  19  20
ENDBRANCH  18  19
ENDBRANCH  14  18
ENDBRANCH   1  14
BRANCH   1  24
ATOM     24  C   UNL     1       4.993   4.257  19.385  0.00  0.00    +0.000 C 
BRANCH  24  25
ATOM     25  N   UNL     1       5.299   2.817  19.387  0.00  0.00    +0.000 NA
ATOM     26  H   UNL     1       6.259   2.664  19.704  0.00  0.00    +0.000 HD
BRANCH  25  27
ATOM     27  C   UNL     1       4.391   2.010  20.191  0.00  0.00    +0.000 C 
BRANCH  27  28
ATOM     28  C   UNL     1       2.961   2.468  20.004  0.00  0.00    +0.000 A 
ATOM     29  C   UNL     1       2.210   2.052  18.895  0.00  0.00    +0.000 A 
ATOM     30  C   UNL     1       0.890   2.478  18.731  0.00  0.00    +0.000 A 
ATOM     31  C   UNL     1       0.305   3.326  19.670  0.00  0.00    +0.000 A 
ATOM     32  C   UNL     1       1.040   3.750  20.776  0.00  0.00    +0.000 A 
ATOM     33  C   UNL     1       2.359   3.322  20.943  0.00  0.00    +0.000 A 
ENDBRANCH  27  28
ENDBRANCH  25  27
ENDBRANCH  24  25
ENDBRANCH   1  24
TORSDOF 12
ENDMDL
MODEL 7
REMARK VINA RESULT:      -7.6      2.376      4.444
REMARK  Name = 
REMARK  14 active torsions:
REMARK  status: ('A' for Active; 'I' for Inactive)
REMARK    1  A    between atoms: C_1  and  C_2
REMARK    2  A    between atoms: C_2  and  C_3
REMARK    3  A    between atoms: C_3  and  C_4
REMARK    4  A    between atoms: C_4  and  C_5
REMARK    5  A    between atoms: C_5  and  C_6
REMARK    6  A    between atoms: C_6  and  N_7
REMARK    7  A    between atoms: N_7  and  C_11
REMARK    8  A    between atoms: C_8  and  C_9
REMARK    9  A    between atoms: C_11  and  C_12
REMARK   10  A    between atoms: C_11  and  C_21
REMARK   11  A    between atoms: C_12  and  N_13
REMARK   12  A    between atoms: N_13  and  C_14
REMARK   13  A    between atoms: C_14  and  C_15
REMARK   14  A    between atoms: C_26  and  O_27
REMARK                            x       y       z     vdW  Elec       q    Type
REMARK                         _______ _______ _______ _____ _____    ______ ____
ROOT
ATOM      1  C   UNL     1       4.433   4.551  16.652  0.00  0.00    +0.000 C 
ENDROOT
BRANCH   1   2
ATOM      2  C   UNL     1       4.151   5.831  17.440  0.00  0.00    +0.000 A 
ATOM      3  C   UNL     1       4.304   7.072  16.802  0.00  0.00    +0.000 A 
ATOM      4  C   UNL     1       3.590   8.184  17.251  0.00  0.00    +0.000 A 
ATOM      5  C   UNL     1       2.733   8.069  18.345  0.00  0.00    +0.000 A 
ATOM      6  C   UNL     1       1.768   9.038  18.607  0.00  0.00    +0.000 A 
ATOM      7  C   UNL     1       0.897   8.845  19.669  0.00  0.00    +0.000 A 
ATOM      8  C   UNL     1       1.091   7.829  20.594  0.00  0.00    +0.000 A 
ATOM      9  C   UNL     1       2.047   6.853  20.329  0.00  0.00    +0.000 A 
ATOM     10  C   UNL     1       2.796   6.907  19.144  0.00  0.00    +0.000 A 
ATOM     11  C   UNL     1       3.498   5.787  18.681  0.00  0.00    +0.000 A 
BRANCH   7  12
ATOM     12  O   UNL     1      -0.241   9.592  19.725  0.00  0.00    +0.000 OA
ATOM     13  H   UNL     1       0.071  10.516  19.765  0.00  0.00    +0.000 HD
ENDBRANCH   7  12
ENDBRANCH   1   2
BRANCH   1  14
ATOM     14  N   UNL     1       5.887   4.205  16.573  0.00  0.00    +0.000 N 
ATOM     15  C   UNL     1       6.715   4.444  17.682  0.00  0.00    +0.000 C 
ATOM     16  C   UNL     1       6.127   4.396  19.070  0.00  0.00    +0.000 C 
ATOM     17  O   UNL     1       7.926   4.652  17.591  0.00  0.00    +0.000 OA
BRANCH  14  18
ATOM     18  C   UNL     1       6.526   4.219  15.234  0.00  0.00    +0.000 C 
BRANCH  18  19
ATOM     19  C   UNL     1       5.586   4.215  14.025  0.00  0.00    +0.000 C 
BRANCH  19  20
ATOM     20  C   UNL     1       6.245   3.679  12.747  0.00  0.00    +0.000 C 
BRANCH  20  21
ATOM     21  C   UNL     1       5.180   2.930  11.942  0.00  0.00    +0.000 C 
BRANCH  21  23
ATOM     22  C   UNL     1       7.208   1.729  11.130  0.00  0.00    +0.000 C 
ATOM     23  C   UNL     1       5.693   1.661  11.273  0.00  0.00    +0.000 C 
ENDBRANCH  21  23
ENDBRANCH  20  21
ENDBRANCH  19  20
ENDBRANCH  18  19
ENDBRANCH  14  18
ENDBRANCH   1  14
BRANCH   1  24
ATOM     24  C   UNL     1       3.494   3.414  17.240  0.00  0.00    +0.000 C 
BRANCH  24  25
ATOM     25  N   UNL     1       3.966   2.020  17.289  0.00  0.00    +0.000 NA
ATOM     26  H   UNL     1       4.932   1.967  16.959  0.00  0.00    +0.000 HD
BRANCH  25  27
ATOM     27  C   UNL     1       3.869   1.398  18.603  0.00  0.00    +0.000 C 
BRANCH  27  28
ATOM     28  C   UNL     1       2.892   2.152  19.479  0.00  0.00    +0.000 A 
ATOM     29  C   UNL     1       3.291   2.676  20.717  0.00  0.00    +0.000 A 
ATOM     30  C   UNL     1       2.384   3.373  21.520  0.00  0.00    +0.000 A 
ATOM     31  C   UNL     1       1.068   3.552  21.096  0.00  0.00    +0.000 A 
ATOM     32  C   UNL     1       0.656   3.035  19.869  0.00  0.00    +0.000 A 
ATOM     33  C   UNL     1       1.564   2.341  19.065  0.00  0.00    +0.000 A 
ENDBRANCH  27  28
ENDBRANCH  25  27
ENDBRANCH  24  25
ENDBRANCH   1  24
TORSDOF 12
ENDMDL
MODEL 8
REMARK VINA RESULT:      -7.5      2.083      4.927
REMARK  Name = 
REMARK  14 active torsions:
REMARK  status: ('A' for Active; 'I' for Inactive)
REMARK    1  A    between atoms: C_1  and  C_2
REMARK    2  A    between atoms: C_2  and  C_3
REMARK    3  A    between atoms: C_3  and  C_4
REMARK    4  A    between atoms: C_4  and  C_5
REMARK    5  A    between atoms: C_5  and  C_6
REMARK    6  A    between atoms: C_6  and  N_7
REMARK    7  A    between atoms: N_7  and  C_11
REMARK    8  A    between atoms: C_8  and  C_9
REMARK    9  A    between atoms: C_11  and  C_12
REMARK   10  A    between atoms: C_11  and  C_21
REMARK   11  A    between atoms: C_12  and  N_13
REMARK   12  A    between atoms: N_13  and  C_14
REMARK   13  A    between atoms: C_14  and  C_15
REMARK   14  A    between atoms: C_26  and  O_27
REMARK                            x       y       z     vdW  Elec       q    Type
REMARK                         _______ _______ _______ _____ _____    ______ ____
ROOT
ATOM      1  C   UNL     1       5.216   6.444  17.548  0.00  0.00    +0.000 C 
ENDROOT
BRANCH   1   2
ATOM      2  C   UNL     1       4.604   5.135  18.046  0.00  0.00    +0.000 A 
ATOM      3  C   UNL     1       5.422   4.210  18.714  0.00  0.00    +0.000 A 
ATOM      4  C   UNL     1       4.865   3.303  19.616  0.00  0.00    +0.000 A 
ATOM      5  C   UNL     1       3.491   3.304  19.848  0.00  0.00    +0.000 A 
ATOM      6  C   UNL     1       2.949   2.668  20.962  0.00  0.00    +0.000 A 
ATOM      7  C   UNL     1       1.581   2.753  21.183  0.00  0.00    +0.000 A 
ATOM      8  C   UNL     1       0.721   3.269  20.225  0.00  0.00    +0.000 A 
ATOM      9  C   UNL     1       1.259   3.915  19.116  0.00  0.00    +0.000 A 
ATOM     10  C   UNL     1       2.651   4.034  18.979  0.00  0.00    +0.000 A 
ATOM     11  C   UNL     1       3.213   4.956  18.088  0.00  0.00    +0.000 A 
BRANCH   7  12
ATOM     12  O   UNL     1       1.098   2.440  22.418  0.00  0.00    +0.000 OA
ATOM     13  H   UNL     1       1.079   3.289  22.899  0.00  0.00    +0.000 HD
ENDBRANCH   7  12
ENDBRANCH   1   2
BRANCH   1  14
ATOM     14  N   UNL     1       6.392   6.249  16.644  0.00  0.00    +0.000 N 
ATOM     15  C   UNL     1       6.351   5.245  15.664  0.00  0.00    +0.000 C 
ATOM     16  C   UNL     1       5.024   4.839  15.073  0.00  0.00    +0.000 C 
ATOM     17  O   UNL     1       7.359   4.692  15.218  0.00  0.00    +0.000 OA
BRANCH  14  18
ATOM     18  C   UNL     1       7.728   6.643  17.158  0.00  0.00    +0.000 C 
BRANCH  18  19
ATOM     19  C   UNL     1       7.752   7.667  18.296  0.00  0.00    +0.000 C 
BRANCH  19  20
ATOM     20  C   UNL     1       8.164   9.072  17.838  0.00  0.00    +0.000 C 
BRANCH  20  21
ATOM     21  C   UNL     1       8.998   9.708  18.952  0.00  0.00    +0.000 C 
BRANCH  21  23
ATOM     22  C   UNL     1      10.401  11.410  17.788  0.00  0.00    +0.000 C 
ATOM     23  C   UNL     1       9.247  11.200  18.760  0.00  0.00    +0.000 C 
ENDBRANCH  21  23
ENDBRANCH  20  21
ENDBRANCH  19  20
ENDBRANCH  18  19
ENDBRANCH  14  18
ENDBRANCH   1  14
BRANCH   1  24
ATOM     24  C   UNL     1       4.036   7.324  16.950  0.00  0.00    +0.000 C 
BRANCH  24  25
ATOM     25  N   UNL     1       3.503   8.462  17.718  0.00  0.00    +0.000 NA
ATOM     26  H   UNL     1       3.945   9.330  17.407  0.00  0.00    +0.000 HD
BRANCH  25  27
ATOM     27  C   UNL     1       2.055   8.606  17.650  0.00  0.00    +0.000 C 
BRANCH  27  28
ATOM     28  C   UNL     1       1.468   8.762  19.036  0.00  0.00    +0.000 A 
ATOM     29  C   UNL     1       1.831   7.892  20.073  0.00  0.00    +0.000 A 
ATOM     30  C   UNL     1       1.287   8.044  21.351  0.00  0.00    +0.000 A 
ATOM     31  C   UNL     1       0.373   9.065  21.607  0.00  0.00    +0.000 A 
ATOM     32  C   UNL     1       0.001   9.937  20.584  0.00  0.00    +0.000 A 
ATOM     33  C   UNL     1       0.548   9.788  19.307  0.00  0.00    +0.000 A 
ENDBRANCH  27  28
ENDBRANCH  25  27
ENDBRANCH  24  25
ENDBRANCH   1  24
TORSDOF 12
ENDMDL
MODEL 9
REMARK VINA RESULT:      -7.5      2.467      6.677
REMARK  Name = 
REMARK  14 active torsions:
REMARK  status: ('A' for Active; 'I' for Inactive)
REMARK    1  A    between atoms: C_1  and  C_2
REMARK    2  A    between atoms: C_2  and  C_3
REMARK    3  A    between atoms: C_3  and  C_4
REMARK    4  A    between atoms: C_4  and  C_5
REMARK    5  A    between atoms: C_5  and  C_6
REMARK    6  A    between atoms: C_6  and  N_7
REMARK    7  A    between atoms: N_7  and  C_11
REMARK    8  A    between atoms: C_8  and  C_9
REMARK    9  A    between atoms: C_11  and  C_12
REMARK   10  A    between atoms: C_11  and  C_21
REMARK   11  A    between atoms: C_12  and  N_13
REMARK   12  A    between atoms: N_13  and  C_14
REMARK   13  A    between atoms: C_14  and  C_15
REMARK   14  A    between atoms: C_26  and  O_27
REMARK                            x       y       z     vdW  Elec       q    Type
REMARK                         _______ _______ _______ _____ _____    ______ ____
ROOT
ATOM      1  C   UNL     1       4.834   6.378  17.695  0.00  0.00    +0.000 C 
ENDROOT
BRANCH   1   2
ATOM      2  C   UNL     1       4.293   5.046  18.215  0.00  0.00    +0.000 A 
ATOM      3  C   UNL     1       5.165   4.166  18.875  0.00  0.00    +0.000 A 
ATOM      4  C   UNL     1       4.668   3.242  19.794  0.00  0.00    +0.000 A 
ATOM      5  C   UNL     1       3.299   3.180  20.051  0.00  0.00    +0.000 A 
ATOM      6  C   UNL     1       2.807   2.530  21.180  0.00  0.00    +0.000 A 
ATOM      7  C   UNL     1       1.442   2.553  21.425  0.00  0.00    +0.000 A 
ATOM      8  C   UNL     1       0.541   3.020  20.479  0.00  0.00    +0.000 A 
ATOM      9  C   UNL     1       1.029   3.680  19.355  0.00  0.00    +0.000 A 
ATOM     10  C   UNL     1       2.411   3.863  19.193  0.00  0.00    +0.000 A 
ATOM     11  C   UNL     1       2.913   4.803  18.284  0.00  0.00    +0.000 A 
BRANCH   7  12
ATOM     12  O   UNL     1       0.996   2.228  22.671  0.00  0.00    +0.000 OA
ATOM     13  H   UNL     1       1.491   1.420  22.908  0.00  0.00    +0.000 HD
ENDBRANCH   7  12
ENDBRANCH   1   2
BRANCH   1  14
ATOM     14  N   UNL     1       5.953   6.227  16.714  0.00  0.00    +0.000 N 
ATOM     15  C   UNL     1       7.245   6.646  17.070  0.00  0.00    +0.000 C 
ATOM     16  C   UNL     1       7.663   6.608  18.518  0.00  0.00    +0.000 C 
ATOM     17  O   UNL     1       8.089   7.010  16.249  0.00  0.00    +0.000 OA
BRANCH  14  18
ATOM     18  C   UNL     1       5.608   6.241  15.270  0.00  0.00    +0.000 C 
BRANCH  18  19
ATOM     19  C   UNL     1       5.304   4.887  14.623  0.00  0.00    +0.000 C 
BRANCH  19  20
ATOM     20  C   UNL     1       6.564   4.070  14.308  0.00  0.00    +0.000 C 
BRANCH  20  21
ATOM     21  C   UNL     1       6.577   3.780  12.805  0.00  0.00    +0.000 C 
BRANCH  21  23
ATOM     22  C   UNL     1       5.462   2.085  11.356  0.00  0.00    +0.000 C 
ATOM     23  C   UNL     1       5.240   3.289  12.261  0.00  0.00    +0.000 C 
ENDBRANCH  21  23
ENDBRANCH  20  21
ENDBRANCH  19  20
ENDBRANCH  18  19
ENDBRANCH  14  18
ENDBRANCH   1  14
BRANCH   1  24
ATOM     24  C   UNL     1       3.593   7.229  17.187  0.00  0.00    +0.000 C 
BRANCH  24  25
ATOM     25  N   UNL     1       3.083   8.347  18.000  0.00  0.00    +0.000 NA
ATOM     26  H   UNL     1       3.518   9.222  17.701  0.00  0.00    +0.000 HD
BRANCH  25  27
ATOM     27  C   UNL     1       1.634   8.494  17.977  0.00  0.00    +0.000 C 
BRANCH  27  28
ATOM     28  C   UNL     1       1.240   9.935  18.217  0.00  0.00    +0.000 A 
ATOM     29  C   UNL     1      -0.086  10.279  18.516  0.00  0.00    +0.000 A 
ATOM     30  C   UNL     1      -0.442  11.612  18.738  0.00  0.00    +0.000 A 
ATOM     31  C   UNL     1       0.523  12.616  18.664  0.00  0.00    +0.000 A 
ATOM     32  C   UNL     1       1.844  12.290  18.367  0.00  0.00    +0.000 A 
ATOM     33  C   UNL     1       2.201  10.957  18.147  0.00  0.00    +0.000 A 
ENDBRANCH  27  28
ENDBRANCH  25  27
ENDBRANCH  24  25
ENDBRANCH   1  24
TORSDOF 12
ENDMDL
