MODEL 1
REMARK VINA RESULT:      -8.4      0.000      0.000
REMARK  Name = 
REMARK  14 active torsions:
REMARK  status: ('A' for Active; 'I' for Inactive)
REMARK    1  A    between atoms: C_1  and  C_2
REMARK    2  A    between atoms: C_2  and  C_3
REMARK    3  A    between atoms: C_2  and  C_4
REMARK    4  A    between atoms: C_2  and  O_5
REMARK    5  A    between atoms: O_5  and  C_6
REMARK    6  A    between atoms: C_6  and  C_8
REMARK    7  A    between atoms: C_8  and  C_9
REMARK    8  A    between atoms: C_9  and  N_10
REMARK    9  A    between atoms: N_10  and  C_31
REMARK   10  A    between atoms: C_11  and  C_13
REMARK   11  A    between atoms: C_13  and  C_14
REMARK   12  A    between atoms: C_14  and  C_15
REMARK   13  A    between atoms: C_15  and  O_16
REMARK   14  A    between atoms: O_16  and  C_17
REMARK                            x       y       z     vdW  Elec       q    Type
REMARK                         _______ _______ _______ _____ _____    ______ ____
ROOT
ATOM      1  C   UNL     1       2.917   8.040  17.764  0.00  0.00    +0.000 C 
ENDROOT
BRANCH   1   3
ATOM      2  N   UNL     1       4.584   6.274  18.254  0.00  0.00    +0.000 N 
ATOM      3  C   UNL     1       3.409   6.926  18.674  0.00  0.00    +0.000 C 
ATOM      4  O   UNL     1       2.756   6.588  19.658  0.00  0.00    +0.000 OA
BRANCH   2   5
ATOM      5  C   UNL     1       5.427   6.817  17.141  0.00  0.00    +0.000 C 
ATOM      6  C   UNL     1       6.938   6.614  17.384  0.00  0.00    +0.000 C 
ATOM      7  C   UNL     1       7.456   5.235  16.990  0.00  0.00    +0.000 C 
ATOM      8  C   UNL     1       7.058   4.841  15.573  0.00  0.00    +0.000 C 
ATOM      9  C   UNL     1       5.581   5.045  15.256  0.00  0.00    +0.000 C 
ATOM     10  C   UNL     1       5.038   6.396  15.715  0.00  0.00    +0.000 C 
ENDBRANCH   2   5
BRANCH   2  11
ATOM     11  C   UNL     1       5.157   5.164  19.032  0.00  0.00    +0.000 C 
BRANCH  11  12
ATOM     12  C   UNL     1       5.052   3.703  18.606  0.00  0.00    +0.000 C 
BRANCH  12  13
ATOM     13  C   UNL     1       4.179   3.000  19.635  0.00  0.00    +0.000 C 
ATOM     14  O   UNL     1       4.584   2.128  20.394  0.00  0.00    +0.000 OA
BRANCH  13  15
ATOM     15  O   UNL     1       2.914   3.491  19.607  0.00  0.00    +0.000 OA
BRANCH  15  17
ATOM     16  C   UNL     1       2.590   1.858  17.791  0.00  0.00    +0.000 C 
ATOM     17  C   UNL     1       1.988   3.024  18.589  0.00  0.00    +0.000 C 
ATOM     18  C   UNL     1       1.527   4.165  17.673  0.00  0.00    +0.000 C 
ATOM     19  C   UNL     1       0.768   2.498  19.360  0.00  0.00    +0.000 C 
ENDBRANCH  15  17
ENDBRANCH  13  15
ENDBRANCH  12  13
ENDBRANCH  11  12
ENDBRANCH   2  11
ENDBRANCH   1   3
BRANCH   1  20
ATOM     20  C   UNL     1       1.439   8.390  17.846  0.00  0.00    +0.000 C 
BRANCH  20  21
ATOM     21  C   UNL     1       1.323   9.656  18.694  0.00  0.00    +0.000 C 
BRANCH  21  22
ATOM     22  O   UNL     1       1.552   9.357  20.062  0.00  0.00    +0.000 OA
BRANCH  22  23
ATOM     23  C   UNL     1       0.640   9.881  20.941  0.00  0.00    +0.000 A 
ATOM     24  C   UNL     1       0.395   9.437  22.246  0.00  0.00    +0.000 A 
ATOM     25  C   UNL     1      -0.559  10.077  23.044  0.00  0.00    +0.000 A 
ATOM     26  C   UNL     1      -1.297  11.148  22.541  0.00  0.00    +0.000 A 
ATOM     27  C   UNL     1      -1.069  11.577  21.218  0.00  0.00    +0.000 A 
ATOM     28  C   UNL     1      -0.091  10.953  20.434  0.00  0.00    +0.000 A 
ATOM     29  C   UNL     1      -1.884  12.717  20.668  0.00  0.00    +0.000 C 
ATOM     30  N   UNL     1      -3.123  12.779  21.398  0.00  0.00    +0.000 N 
ATOM     31  C   UNL     1      -4.178  13.723  21.088  0.00  0.00    +0.000 C 
ATOM     32  C   UNL     1      -4.890  13.816  22.445  0.00  0.00    +0.000 C 
ATOM     33  O   UNL     1      -5.910  14.441  22.687  0.00  0.00    +0.000 OA
ATOM     34  N   UNL     1      -4.166  13.071  23.338  0.00  0.00    +0.000 N 
ATOM     35  C   UNL     1      -3.128  12.474  22.724  0.00  0.00    +0.000 C 
ATOM     36  N   UNL     1      -2.290  11.734  23.357  0.00  0.00    +0.000 NA
ATOM     37  H   UNL     1      -4.387  12.962  24.312  0.00  0.00    +0.000 HD
ENDBRANCH  22  23
ENDBRANCH  21  22
ENDBRANCH  20  21
ENDBRANCH   1  20
TORSDOF 11
ENDMDL
MODEL 2
REMARK VINA RESULT:      -8.2      0.942      1.188
REMARK  Name = 
REMARK  14 active torsions:
REMARK  status: ('A' for Active; 'I' for Inactive)
REMARK    1  A    between atoms: C_1  and  C_2
REMARK    2  A    between atoms: C_2  and  C_3
REMARK    3  A    between atoms: C_2  and  C_4
REMARK    4  A    between atoms: C_2  and  O_5
REMARK    5  A    between atoms: O_5  and  C_6
REMARK    6  A    between atoms: C_6  and  C_8
REMARK    7  A    between atoms: C_8  and  C_9
REMARK    8  A    between atoms: C_9  and  N_10
REMARK    9  A    between atoms: N_10  and  C_31
REMARK   10  A    between atoms: C_11  and  C_13
REMARK   11  A    between atoms: C_13  and  C_14
REMARK   12  A    between atoms: C_14  and  C_15
REMARK   13  A    between atoms: C_15  and  O_16
REMARK   14  A    between atoms: O_16  and  C_17
REMARK                            x       y       z     vdW  Elec       q    Type
REMARK                         _______ _______ _______ _____ _____    ______ ____
ROOT
ATOM      1  C   UNL     1       2.877   8.354  18.055  0.00  0.00    +0.000 C 
ENDROOT
BRANCH   1   3
ATOM      2  N   UNL     1       4.052   6.177  17.917  0.00  0.00    +0.000 N 
ATOM      3  C   UNL     1       3.097   6.952  18.602  0.00  0.00    +0.000 C 
ATOM      4  O   UNL     1       2.412   6.528  19.528  0.00  0.00    +0.000 OA
BRANCH   2   5
ATOM      5  C   UNL     1       4.970   6.784  16.899  0.00  0.00    +0.000 C 
ATOM      6  C   UNL     1       6.403   6.990  17.436  0.00  0.00    +0.000 C 
ATOM      7  C   UNL     1       7.283   5.747  17.366  0.00  0.00    +0.000 C 
ATOM      8  C   UNL     1       7.290   5.109  15.982  0.00  0.00    +0.000 C 
ATOM      9  C   UNL     1       5.905   4.904  15.380  0.00  0.00    +0.000 C 
ATOM     10  C   UNL     1       4.993   6.121  15.512  0.00  0.00    +0.000 C 
ENDBRANCH   2   5
BRANCH   2  11
ATOM     11  C   UNL     1       4.348   4.796  18.329  0.00  0.00    +0.000 C 
BRANCH  11  12
ATOM     12  C   UNL     1       3.664   3.577  17.718  0.00  0.00    +0.000 C 
BRANCH  12  13
ATOM     13  C   UNL     1       3.443   2.579  18.844  0.00  0.00    +0.000 C 
ATOM     14  O   UNL     1       3.679   1.380  18.752  0.00  0.00    +0.000 OA
BRANCH  13  15
ATOM     15  O   UNL     1       2.980   3.204  19.956  0.00  0.00    +0.000 OA
BRANCH  15  17
ATOM     16  C   UNL     1       1.498   2.357  21.734  0.00  0.00    +0.000 C 
ATOM     17  C   UNL     1       1.593   3.022  20.353  0.00  0.00    +0.000 C 
ATOM     18  C   UNL     1       0.795   2.253  19.292  0.00  0.00    +0.000 C 
ATOM     19  C   UNL     1       1.012   4.440  20.463  0.00  0.00    +0.000 C 
ENDBRANCH  15  17
ENDBRANCH  13  15
ENDBRANCH  12  13
ENDBRANCH  11  12
ENDBRANCH   2  11
ENDBRANCH   1   3
BRANCH   1  20
ATOM     20  C   UNL     1       1.514   8.646  17.446  0.00  0.00    +0.000 C 
BRANCH  20  21
ATOM     21  C   UNL     1       0.893   9.784  18.256  0.00  0.00    +0.000 C 
BRANCH  21  22
ATOM     22  O   UNL     1       1.516   9.881  19.528  0.00  0.00    +0.000 OA
BRANCH  22  23
ATOM     23  C   UNL     1       0.684  10.196  20.570  0.00  0.00    +0.000 A 
ATOM     24  C   UNL     1       0.668   9.592  21.832  0.00  0.00    +0.000 A 
ATOM     25  C   UNL     1      -0.230  10.025  22.813  0.00  0.00    +0.000 A 
ATOM     26  C   UNL     1      -1.138  11.046  22.538  0.00  0.00    +0.000 A 
ATOM     27  C   UNL     1      -1.141  11.636  21.258  0.00  0.00    +0.000 A 
ATOM     28  C   UNL     1      -0.219  11.220  20.290  0.00  0.00    +0.000 A 
ATOM     29  C   UNL     1      -2.139  12.721  20.954  0.00  0.00    +0.000 C 
ATOM     30  N   UNL     1      -3.265  12.557  21.835  0.00  0.00    +0.000 N 
ATOM     31  C   UNL     1      -4.447  13.395  21.773  0.00  0.00    +0.000 C 
ATOM     32  C   UNL     1      -4.971  13.259  23.210  0.00  0.00    +0.000 C 
ATOM     33  O   UNL     1      -6.008  13.727  23.650  0.00  0.00    +0.000 OA
ATOM     34  N   UNL     1      -4.058  12.517  23.910  0.00  0.00    +0.000 N 
ATOM     35  C   UNL     1      -3.056  12.117  23.105  0.00  0.00    +0.000 C 
ATOM     36  N   UNL     1      -2.066  11.421  23.536  0.00  0.00    +0.000 NA
ATOM     37  H   UNL     1      -4.130  12.280  24.884  0.00  0.00    +0.000 HD
ENDBRANCH  22  23
ENDBRANCH  21  22
ENDBRANCH  20  21
ENDBRANCH   1  20
TORSDOF 11
ENDMDL
MODEL 3
REMARK VINA RESULT:      -8.2      1.416      2.025
REMARK  Name = 
REMARK  14 active torsions:
REMARK  status: ('A' for Active; 'I' for Inactive)
REMARK    1  A    between atoms: C_1  and  C_2
REMARK    2  A    between atoms: C_2  and  C_3
REMARK    3  A    between atoms: C_2  and  C_4
REMARK    4  A    between atoms: C_2  and  O_5
REMARK    5  A    between atoms: O_5  and  C_6
REMARK    6  A    between atoms: C_6  and  C_8
REMARK    7  A    between atoms: C_8  and  C_9
REMARK    8  A    between atoms: C_9  and  N_10
REMARK    9  A    between atoms: N_10  and  C_31
REMARK   10  A    between atoms: C_11  and  C_13
REMARK   11  A    between atoms: C_13  and  C_14
REMARK   12  A    between atoms: C_14  and  C_15
REMARK   13  A    between atoms: C_15  and  O_16
REMARK   14  A    between atoms: O_16  and  C_17
REMARK                            x       y       z     vdW  Elec       q    Type
REMARK                         _______ _______ _______ _____ _____    ______ ____
ROOT
ATOM      1  C   UNL     1       2.932   8.311  17.634  0.00  0.00    +0.000 C 
ENDROOT
BRANCH   1   3
ATOM      2  N   UNL     1       4.089   6.124  17.733  0.00  0.00    +0.000 N 
ATOM      3  C   UNL     1       3.032   6.913  18.222  0.00  0.00    +0.000 C 
ATOM      4  O   UNL     1       2.183   6.504  19.009  0.00  0.00    +0.000 OA
BRANCH   2   5
ATOM      5  C   UNL     1       5.187   6.712  16.897  0.00  0.00    +0.000 C 
ATOM      6  C   UNL     1       6.590   6.441  17.480  0.00  0.00    +0.000 C 
ATOM      7  C   UNL     1       7.164   5.075  17.121  0.00  0.00    +0.000 C 
ATOM      8  C   UNL     1       7.114   4.791  15.625  0.00  0.00    +0.000 C 
ATOM      9  C   UNL     1       5.762   5.067  14.979  0.00  0.00    +0.000 C 
ATOM     10  C   UNL     1       5.147   6.402  15.392  0.00  0.00    +0.000 C 
ENDBRANCH   2   5
BRANCH   2  11
ATOM     11  C   UNL     1       4.289   4.744  18.202  0.00  0.00    +0.000 C 
BRANCH  11  12
ATOM     12  C   UNL     1       3.559   3.544  17.608  0.00  0.00    +0.000 C 
BRANCH  12  13
ATOM     13  C   UNL     1       3.435   2.504  18.711  0.00  0.00    +0.000 C 
ATOM     14  O   UNL     1       3.413   1.295  18.513  0.00  0.00    +0.000 OA
BRANCH  13  15
ATOM     15  O   UNL     1       3.381   3.101  19.929  0.00  0.00    +0.000 OA
BRANCH  15  17
ATOM     16  C   UNL     1       1.997   2.144  21.729  0.00  0.00    +0.000 C 
ATOM     17  C   UNL     1       2.106   3.201  20.620  0.00  0.00    +0.000 C 
ATOM     18  C   UNL     1       0.924   3.130  19.644  0.00  0.00    +0.000 C 
ATOM     19  C   UNL     1       2.108   4.589  21.279  0.00  0.00    +0.000 C 
ENDBRANCH  15  17
ENDBRANCH  13  15
ENDBRANCH  12  13
ENDBRANCH  11  12
ENDBRANCH   2  11
ENDBRANCH   1   3
BRANCH   1  20
ATOM     20  C   UNL     1       1.550   8.946  17.606  0.00  0.00    +0.000 C 
BRANCH  20  21
ATOM     21  C   UNL     1       1.616  10.206  18.470  0.00  0.00    +0.000 C 
BRANCH  21  22
ATOM     22  O   UNL     1       0.922  10.003  19.692  0.00  0.00    +0.000 OA
BRANCH  22  23
ATOM     23  C   UNL     1      -0.172  10.803  19.889  0.00  0.00    +0.000 A 
ATOM     24  C   UNL     1      -1.028  11.299  18.899  0.00  0.00    +0.000 A 
ATOM     25  C   UNL     1      -2.123  12.097  19.244  0.00  0.00    +0.000 A 
ATOM     26  C   UNL     1      -2.361  12.432  20.576  0.00  0.00    +0.000 A 
ATOM     27  C   UNL     1      -1.483  11.955  21.571  0.00  0.00    +0.000 A 
ATOM     28  C   UNL     1      -0.407  11.131  21.223  0.00  0.00    +0.000 A 
ATOM     29  C   UNL     1      -1.727  12.338  23.006  0.00  0.00    +0.000 C 
ATOM     30  N   UNL     1      -2.470  13.571  23.024  0.00  0.00    +0.000 N 
ATOM     31  C   UNL     1      -2.824  14.264  24.247  0.00  0.00    +0.000 C 
ATOM     32  C   UNL     1      -4.059  15.050  23.786  0.00  0.00    +0.000 C 
ATOM     33  O   UNL     1      -4.691  15.859  24.445  0.00  0.00    +0.000 OA
ATOM     34  N   UNL     1      -4.326  14.672  22.497  0.00  0.00    +0.000 N 
ATOM     35  C   UNL     1      -3.401  13.799  22.058  0.00  0.00    +0.000 C 
ATOM     36  N   UNL     1      -3.445  13.284  20.882  0.00  0.00    +0.000 NA
ATOM     37  H   UNL     1      -5.091  15.012  21.941  0.00  0.00    +0.000 HD
ENDBRANCH  22  23
ENDBRANCH  21  22
ENDBRANCH  20  21
ENDBRANCH   1  20
TORSDOF 11
ENDMDL
MODEL 4
REMARK VINA RESULT:      -8.1      1.534      3.553
REMARK  Name = 
REMARK  14 active torsions:
REMARK  status: ('A' for Active; 'I' for Inactive)
REMARK    1  A    between atoms: C_1  and  C_2
REMARK    2  A    between atoms: C_2  and  C_3
REMARK    3  A    between atoms: C_2  and  C_4
REMARK    4  A    between atoms: C_2  and  O_5
REMARK    5  A    between atoms: O_5  and  C_6
REMARK    6  A    between atoms: C_6  and  C_8
REMARK    7  A    between atoms: C_8  and  C_9
REMARK    8  A    between atoms: C_9  and  N_10
REMARK    9  A    between atoms: N_10  and  C_31
REMARK   10  A    between atoms: C_11  and  C_13
REMARK   11  A    between atoms: C_13  and  C_14
REMARK   12  A    between atoms: C_14  and  C_15
REMARK   13  A    between atoms: C_15  and  O_16
REMARK   14  A    between atoms: O_16  and  C_17
REMARK                            x       y       z     vdW  Elec       q    Type
REMARK                         _______ _______ _______ _____ _____    ______ ____
ROOT
ATOM      1  C   UNL     1       1.907   7.556  18.220  0.00  0.00    +0.000 C 
ENDROOT
BRANCH   1   3
ATOM      2  N   UNL     1       3.341   5.652  18.895  0.00  0.00    +0.000 N 
ATOM      3  C   UNL     1       3.273   6.889  18.227  0.00  0.00    +0.000 C 
ATOM      4  O   UNL     1       4.249   7.458  17.743  0.00  0.00    +0.000 OA
BRANCH   2   5
ATOM      5  C   UNL     1       2.103   4.927  19.330  0.00  0.00    +0.000 C 
ATOM      6  C   UNL     1       1.464   4.104  18.192  0.00  0.00    +0.000 C 
ATOM      7  C   UNL     1       2.093   2.731  17.982  0.00  0.00    +0.000 C 
ATOM      8  C   UNL     1       2.188   1.924  19.272  0.00  0.00    +0.000 C 
ATOM      9  C   UNL     1       2.785   2.690  20.447  0.00  0.00    +0.000 C 
ATOM     10  C   UNL     1       2.211   4.094  20.618  0.00  0.00    +0.000 C 
ENDBRANCH   2   5
BRANCH   2  11
ATOM     11  C   UNL     1       4.607   4.910  18.994  0.00  0.00    +0.000 C 
BRANCH  11  12
ATOM     12  C   UNL     1       5.155   4.036  17.870  0.00  0.00    +0.000 C 
BRANCH  12  13
ATOM     13  C   UNL     1       6.414   4.713  17.351  0.00  0.00    +0.000 C 
ATOM     14  O   UNL     1       7.008   5.603  17.948  0.00  0.00    +0.000 OA
BRANCH  13  15
ATOM     15  O   UNL     1       6.793   4.176  16.163  0.00  0.00    +0.000 OA
BRANCH  15  17
ATOM     16  C   UNL     1       7.527   5.239  14.064  0.00  0.00    +0.000 C 
ATOM     17  C   UNL     1       6.338   4.788  14.925  0.00  0.00    +0.000 C 
ATOM     18  C   UNL     1       5.355   5.937  15.188  0.00  0.00    +0.000 C 
ATOM     19  C   UNL     1       5.594   3.676  14.172  0.00  0.00    +0.000 C 
ENDBRANCH  15  17
ENDBRANCH  13  15
ENDBRANCH  12  13
ENDBRANCH  11  12
ENDBRANCH   2  11
ENDBRANCH   1   3
BRANCH   1  20
ATOM     20  C   UNL     1       1.822   8.939  17.592  0.00  0.00    +0.000 C 
BRANCH  20  21
ATOM     21  C   UNL     1       1.186   9.866  18.628  0.00  0.00    +0.000 C 
BRANCH  21  22
ATOM     22  O   UNL     1       1.330   9.322  19.931  0.00  0.00    +0.000 OA
BRANCH  22  23
ATOM     23  C   UNL     1       0.485   9.833  20.880  0.00  0.00    +0.000 A 
ATOM     24  C   UNL     1       0.283   9.329  22.170  0.00  0.00    +0.000 A 
ATOM     25  C   UNL     1      -0.604   9.963  23.047  0.00  0.00    +0.000 A 
ATOM     26  C   UNL     1      -1.318  11.088  22.638  0.00  0.00    +0.000 A 
ATOM     27  C   UNL     1      -1.135  11.579  21.330  0.00  0.00    +0.000 A 
ATOM     28  C   UNL     1      -0.223  10.960  20.467  0.00  0.00    +0.000 A 
ATOM     29  C   UNL     1      -1.925  12.780  20.882  0.00  0.00    +0.000 C 
ATOM     30  N   UNL     1      -3.124  12.851  21.675  0.00  0.00    +0.000 N 
ATOM     31  C   UNL     1      -4.152  13.853  21.467  0.00  0.00    +0.000 C 
ATOM     32  C   UNL     1      -4.793  13.901  22.861  0.00  0.00    +0.000 C 
ATOM     33  O   UNL     1      -5.773  14.552  23.186  0.00  0.00    +0.000 OA
ATOM     34  N   UNL     1      -4.061  13.080  23.676  0.00  0.00    +0.000 N 
ATOM     35  C   UNL     1      -3.079  12.476  22.982  0.00  0.00    +0.000 C 
ATOM     36  N   UNL     1      -2.244  11.669  23.532  0.00  0.00    +0.000 NA
ATOM     37  H   UNL     1      -4.239  12.927  24.654  0.00  0.00    +0.000 HD
ENDBRANCH  22  23
ENDBRANCH  21  22
ENDBRANCH  20  21
ENDBRANCH   1  20
TORSDOF 11
ENDMDL
MODEL 5
REMARK VINA RESULT:      -7.9      1.056      1.385
REMARK  Name = 
REMARK  14 active torsions:
REMARK  status: ('A' for Active; 'I' for Inactive)
REMARK    1  A    between atoms: C_1  and  C_2
REMARK    2  A    between atoms: C_2  and  C_3
REMARK    3  A    between atoms: C_2  and  C_4
REMARK    4  A    between atoms: C_2  and  O_5
REMARK    5  A    between atoms: O_5  and  C_6
REMARK    6  A    between atoms: C_6  and  C_8
REMARK    7  A    between atoms: C_8  and  C_9
REMARK    8  A    between atoms: C_9  and  N_10
REMARK    9  A    between atoms: N_10  and  C_31
REMARK   10  A    between atoms: C_11  and  C_13
REMARK   11  A    between atoms: C_13  and  C_14
REMARK   12  A    between atoms: C_14  and  C_15
REMARK   13  A    between atoms: C_15  and  O_16
REMARK   14  A    between atoms: O_16  and  C_17
REMARK                            x       y       z     vdW  Elec       q    Type
REMARK                         _______ _______ _______ _____ _____    ______ ____
ROOT
ATOM      1  C   UNL     1       2.958   8.146  17.676  0.00  0.00    +0.000 C 
ENDROOT
BRANCH   1   3
ATOM      2  N   UNL     1       4.476   6.245  18.148  0.00  0.00    +0.000 N 
ATOM      3  C   UNL     1       3.348   6.977  18.566  0.00  0.00    +0.000 C 
ATOM      4  O   UNL     1       2.656   6.669  19.533  0.00  0.00    +0.000 OA
BRANCH   2   5
ATOM      5  C   UNL     1       5.376   6.747  17.059  0.00  0.00    +0.000 C 
ATOM      6  C   UNL     1       6.872   6.541  17.381  0.00  0.00    +0.000 C 
ATOM      7  C   UNL     1       7.396   5.147  17.057  0.00  0.00    +0.000 C 
ATOM      8  C   UNL     1       7.064   4.710  15.636  0.00  0.00    +0.000 C 
ATOM      9  C   UNL     1       5.605   4.914  15.242  0.00  0.00    +0.000 C 
ATOM     10  C   UNL     1       5.052   6.282  15.630  0.00  0.00    +0.000 C 
ENDBRANCH   2   5
BRANCH   2  11
ATOM     11  C   UNL     1       4.949   5.078  18.907  0.00  0.00    +0.000 C 
BRANCH  11  12
ATOM     12  C   UNL     1       4.705   3.638  18.465  0.00  0.00    +0.000 C 
BRANCH  12  13
ATOM     13  C   UNL     1       3.214   3.374  18.608  0.00  0.00    +0.000 C 
ATOM     14  O   UNL     1       2.433   3.329  17.664  0.00  0.00    +0.000 OA
BRANCH  13  15
ATOM     15  O   UNL     1       2.885   3.172  19.909  0.00  0.00    +0.000 OA
BRANCH  15  17
ATOM     16  C   UNL     1       0.735   2.110  19.338  0.00  0.00    +0.000 C 
ATOM     17  C   UNL     1       1.484   3.061  20.283  0.00  0.00    +0.000 C 
ATOM     18  C   UNL     1       0.807   4.435  20.364  0.00  0.00    +0.000 C 
ATOM     19  C   UNL     1       1.486   2.438  21.687  0.00  0.00    +0.000 C 
ENDBRANCH  15  17
ENDBRANCH  13  15
ENDBRANCH  12  13
ENDBRANCH  11  12
ENDBRANCH   2  11
ENDBRANCH   1   3
BRANCH   1  20
ATOM     20  C   UNL     1       1.562   8.717  17.868  0.00  0.00    +0.000 C 
BRANCH  20  21
ATOM     21  C   UNL     1       1.694   9.930  18.789  0.00  0.00    +0.000 C 
BRANCH  21  22
ATOM     22  O   UNL     1       0.544  10.756  18.686  0.00  0.00    +0.000 OA
BRANCH  22  23
ATOM     23  C   UNL     1      -0.106  11.012  19.865  0.00  0.00    +0.000 A 
ATOM     24  C   UNL     1       0.286  10.586  21.139  0.00  0.00    +0.000 A 
ATOM     25  C   UNL     1      -0.467  10.934  22.265  0.00  0.00    +0.000 A 
ATOM     26  C   UNL     1      -1.632  11.687  22.130  0.00  0.00    +0.000 A 
ATOM     27  C   UNL     1      -2.042  12.093  20.844  0.00  0.00    +0.000 A 
ATOM     28  C   UNL     1      -1.268  11.769  19.724  0.00  0.00    +0.000 A 
ATOM     29  C   UNL     1      -3.314  12.885  20.697  0.00  0.00    +0.000 C 
ATOM     30  N   UNL     1      -4.160  12.592  21.824  0.00  0.00    +0.000 N 
ATOM     31  C   UNL     1      -5.495  13.135  21.973  0.00  0.00    +0.000 C 
ATOM     32  C   UNL     1      -5.663  13.073  23.498  0.00  0.00    +0.000 C 
ATOM     33  O   UNL     1      -6.668  13.355  24.129  0.00  0.00    +0.000 OA
ATOM     34  N   UNL     1      -4.472  12.645  24.023  0.00  0.00    +0.000 N 
ATOM     35  C   UNL     1      -3.592  12.375  23.041  0.00  0.00    +0.000 C 
ATOM     36  N   UNL     1      -2.396  11.974  23.283  0.00  0.00    +0.000 NA
ATOM     37  H   UNL     1      -4.282  12.526  25.002  0.00  0.00    +0.000 HD
ENDBRANCH  22  23
ENDBRANCH  21  22
ENDBRANCH  20  21
ENDBRANCH   1  20
TORSDOF 11
ENDMDL
MODEL 6
REMARK VINA RESULT:      -7.8      2.607      4.632
REMARK  Name = 
REMARK  14 active torsions:
REMARK  status: ('A' for Active; 'I' for Inactive)
REMARK    1  A    between atoms: C_1  and  C_2
REMARK    2  A    between atoms: C_2  and  C_3
REMARK    3  A    between atoms: C_2  and  C_4
REMARK    4  A    between atoms: C_2  and  O_5
REMARK    5  A    between atoms: O_5  and  C_6
REMARK    6  A    between atoms: C_6  and  C_8
REMARK    7  A    between atoms: C_8  and  C_9
REMARK    8  A    between atoms: C_9  and  N_10
REMARK    9  A    between atoms: N_10  and  C_31
REMARK   10  A    between atoms: C_11  and  C_13
REMARK   11  A    between atoms: C_13  and  C_14
REMARK   12  A    between atoms: C_14  and  C_15
REMARK   13  A    between atoms: C_15  and  O_16
REMARK   14  A    between atoms: O_16  and  C_17
REMARK                            x       y       z     vdW  Elec       q    Type
REMARK                         _______ _______ _______ _____ _____    ______ ____
ROOT
ATOM      1  C   UNL     1       2.916   4.387  17.839  0.00  0.00    +0.000 C 
ENDROOT
BRANCH   1   3
ATOM      2  N   UNL     1       5.327   4.542  17.293  0.00  0.00    +0.000 N 
ATOM      3  C   UNL     1       4.158   3.761  17.226  0.00  0.00    +0.000 C 
ATOM      4  O   UNL     1       4.093   2.680  16.647  0.00  0.00    +0.000 OA
BRANCH   2   5
ATOM      5  C   UNL     1       5.399   5.776  18.141  0.00  0.00    +0.000 C 
ATOM      6  C   UNL     1       6.262   5.581  19.406  0.00  0.00    +0.000 C 
ATOM      7  C   UNL     1       7.759   5.755  19.174  0.00  0.00    +0.000 C 
ATOM      8  C   UNL     1       8.097   7.059  18.462  0.00  0.00    +0.000 C 
ATOM      9  C   UNL     1       7.257   7.328  17.218  0.00  0.00    +0.000 C 
ATOM     10  C   UNL     1       5.765   7.084  17.422  0.00  0.00    +0.000 C 
ENDBRANCH   2   5
BRANCH   2  11
ATOM     11  C   UNL     1       6.595   4.064  16.720  0.00  0.00    +0.000 C 
BRANCH  11  12
ATOM     12  C   UNL     1       7.130   4.527  15.368  0.00  0.00    +0.000 C 
BRANCH  12  13
ATOM     13  C   UNL     1       6.004   4.352  14.360  0.00  0.00    +0.000 C 
ATOM     14  O   UNL     1       5.068   5.132  14.237  0.00  0.00    +0.000 OA
BRANCH  13  15
ATOM     15  O   UNL     1       6.201   3.237  13.610  0.00  0.00    +0.000 OA
BRANCH  15  17
ATOM     16  C   UNL     1       6.963   2.112  11.554  0.00  0.00    +0.000 C 
ATOM     17  C   UNL     1       6.302   3.356  12.165  0.00  0.00    +0.000 C 
ATOM     18  C   UNL     1       7.020   4.647  11.750  0.00  0.00    +0.000 C 
ATOM     19  C   UNL     1       4.853   3.425  11.660  0.00  0.00    +0.000 C 
ENDBRANCH  15  17
ENDBRANCH  13  15
ENDBRANCH  12  13
ENDBRANCH  11  12
ENDBRANCH   2  11
ENDBRANCH   1   3
BRANCH   1  20
ATOM     20  C   UNL     1       2.585   3.994  19.270  0.00  0.00    +0.000 C 
BRANCH  20  21
ATOM     21  C   UNL     1       2.248   5.280  20.024  0.00  0.00    +0.000 C 
BRANCH  21  22
ATOM     22  O   UNL     1       2.848   6.398  19.387  0.00  0.00    +0.000 OA
BRANCH  22  23
ATOM     23  C   UNL     1       2.098   7.544  19.377  0.00  0.00    +0.000 A 
ATOM     24  C   UNL     1       2.036   8.487  18.346  0.00  0.00    +0.000 A 
ATOM     25  C   UNL     1       1.212   9.611  18.462  0.00  0.00    +0.000 A 
ATOM     26  C   UNL     1       0.463   9.821  19.619  0.00  0.00    +0.000 A 
ATOM     27  C   UNL     1       0.547   8.885  20.670  0.00  0.00    +0.000 A 
ATOM     28  C   UNL     1       1.348   7.745  20.535  0.00  0.00    +0.000 A 
ATOM     29  C   UNL     1      -0.244   9.125  21.928  0.00  0.00    +0.000 C 
ATOM     30  N   UNL     1      -0.488  10.539  22.044  0.00  0.00    +0.000 N 
ATOM     31  C   UNL     1      -1.170  11.134  23.177  0.00  0.00    +0.000 C 
ATOM     32  C   UNL     1      -1.716  12.420  22.541  0.00  0.00    +0.000 C 
ATOM     33  O   UNL     1      -2.312  13.316  23.116  0.00  0.00    +0.000 OA
ATOM     34  N   UNL     1      -1.413  12.376  21.206  0.00  0.00    +0.000 N 
ATOM     35  C   UNL     1      -0.704  11.270  20.917  0.00  0.00    +0.000 C 
ATOM     36  N   UNL     1      -0.316  10.994  19.724  0.00  0.00    +0.000 NA
ATOM     37  H   UNL     1      -1.662  13.080  20.534  0.00  0.00    +0.000 HD
ENDBRANCH  22  23
ENDBRANCH  21  22
ENDBRANCH  20  21
ENDBRANCH   1  20
TORSDOF 11
ENDMDL
MODEL 7
REMARK VINA RESULT:      -7.8      0.943      1.174
REMARK  Name = 
REMARK  14 active torsions:
REMARK  status: ('A' for Active; 'I' for Inactive)
REMARK    1  A    between atoms: C_1  and  C_2
REMARK    2  A    between atoms: C_2  and  C_3
REMARK    3  A    between atoms: C_2  and  C_4
REMARK    4  A    between atoms: C_2  and  O_5
REMARK    5  A    between atoms: O_5  and  C_6
REMARK    6  A    between atoms: C_6  and  C_8
REMARK    7  A    between atoms: C_8  and  C_9
REMARK    8  A    between atoms: C_9  and  N_10
REMARK    9  A    between atoms: N_10  and  C_31
REMARK   10  A    between atoms: C_11  and  C_13
REMARK   11  A    between atoms: C_13  and  C_14
REMARK   12  A    between atoms: C_14  and  C_15
REMARK   13  A    between atoms: C_15  and  O_16
REMARK   14  A    between atoms: O_16  and  C_17
REMARK                            x       y       z     vdW  Elec       q    Type
REMARK                         _______ _______ _______ _____ _____    ______ ____
ROOT
ATOM      1  C   UNL     1       3.029   7.926  17.584  0.00  0.00    +0.000 C 
ENDROOT
BRANCH   1   3
ATOM      2  N   UNL     1       4.599   6.197  18.411  0.00  0.00    +0.000 N 
ATOM      3  C   UNL     1       3.422   6.927  18.661  0.00  0.00    +0.000 C 
ATOM      4  O   UNL     1       2.694   6.735  19.631  0.00  0.00    +0.000 OA
BRANCH   2   5
ATOM      5  C   UNL     1       5.533   6.571  17.299  0.00  0.00    +0.000 C 
ATOM      6  C   UNL     1       7.018   6.413  17.690  0.00  0.00    +0.000 C 
ATOM      7  C   UNL     1       7.554   4.993  17.549  0.00  0.00    +0.000 C 
ATOM      8  C   UNL     1       7.268   4.389  16.179  0.00  0.00    +0.000 C 
ATOM      9  C   UNL     1       5.822   4.538  15.719  0.00  0.00    +0.000 C 
ATOM     10  C   UNL     1       5.255   5.940  15.925  0.00  0.00    +0.000 C 
ENDBRANCH   2   5
BRANCH   2  11
ATOM     11  C   UNL     1       5.082   5.183  19.361  0.00  0.00    +0.000 C 
BRANCH  11  12
ATOM     12  C   UNL     1       5.040   3.684  19.077  0.00  0.00    +0.000 C 
BRANCH  12  13
ATOM     13  C   UNL     1       3.710   3.167  19.602  0.00  0.00    +0.000 C 
ATOM     14  O   UNL     1       3.476   2.959  20.787  0.00  0.00    +0.000 OA
BRANCH  13  15
ATOM     15  O   UNL     1       2.825   2.998  18.586  0.00  0.00    +0.000 OA
BRANCH  15  17
ATOM     16  C   UNL     1       1.079   4.418  17.583  0.00  0.00    +0.000 C 
ATOM     17  C   UNL     1       1.462   3.481  18.738  0.00  0.00    +0.000 C 
ATOM     18  C   UNL     1       1.242   4.139  20.106  0.00  0.00    +0.000 C 
ATOM     19  C   UNL     1       0.576   2.229  18.654  0.00  0.00    +0.000 C 
ENDBRANCH  15  17
ENDBRANCH  13  15
ENDBRANCH  12  13
ENDBRANCH  11  12
ENDBRANCH   2  11
ENDBRANCH   1   3
BRANCH   1  20
ATOM     20  C   UNL     1       1.665   8.583  17.724  0.00  0.00    +0.000 C 
BRANCH  20  21
ATOM     21  C   UNL     1       1.887   9.948  18.376  0.00  0.00    +0.000 C 
BRANCH  21  22
ATOM     22  O   UNL     1       0.683  10.700  18.369  0.00  0.00    +0.000 OA
BRANCH  22  23
ATOM     23  C   UNL     1       0.095  10.883  19.593  0.00  0.00    +0.000 A 
ATOM     24  C   UNL     1       0.472  10.273  20.795  0.00  0.00    +0.000 A 
ATOM     25  C   UNL     1      -0.209  10.564  21.981  0.00  0.00    +0.000 A 
ATOM     26  C   UNL     1      -1.288  11.446  21.978  0.00  0.00    +0.000 A 
ATOM     27  C   UNL     1      -1.685  12.040  20.762  0.00  0.00    +0.000 A 
ATOM     28  C   UNL     1      -0.980  11.769  19.584  0.00  0.00    +0.000 A 
ATOM     29  C   UNL     1      -2.866  12.973  20.756  0.00  0.00    +0.000 C 
ATOM     30  N   UNL     1      -3.710  12.641  21.874  0.00  0.00    +0.000 N 
ATOM     31  C   UNL     1      -4.974  13.301  22.135  0.00  0.00    +0.000 C 
ATOM     32  C   UNL     1      -5.107  13.080  23.648  0.00  0.00    +0.000 C 
ATOM     33  O   UNL     1      -6.059  13.390  24.345  0.00  0.00    +0.000 OA
ATOM     34  N   UNL     1      -3.957  12.471  24.075  0.00  0.00    +0.000 N 
ATOM     35  C   UNL     1      -3.138  12.225  23.036  0.00  0.00    +0.000 C 
ATOM     36  N   UNL     1      -1.986  11.675  23.184  0.00  0.00    +0.000 NA
ATOM     37  H   UNL     1      -3.755  12.218  25.027  0.00  0.00    +0.000 HD
ENDBRANCH  22  23
ENDBRANCH  21  22
ENDBRANCH  20  21
ENDBRANCH   1  20
TORSDOF 11
ENDMDL
MODEL 8
REMARK VINA RESULT:      -7.7      2.386      4.624
REMARK  Name = 
REMARK  14 active torsions:
REMARK  status: ('A' for Active; 'I' for Inactive)
REMARK    1  A    between atoms: C_1  and  C_2
REMARK    2  A    between atoms: C_2  and  C_3
REMARK    3  A    between atoms: C_2  and  C_4
REMARK    4  A    between atoms: C_2  and  O_5
REMARK    5  A    between atoms: O_5  and  C_6
REMARK    6  A    between atoms: C_6  and  C_8
REMARK    7  A    between atoms: C_8  and  C_9
REMARK    8  A    between atoms: C_9  and  N_10
REMARK    9  A    between atoms: N_10  and  C_31
REMARK   10  A    between atoms: C_11  and  C_13
REMARK   11  A    between atoms: C_13  and  C_14
REMARK   12  A    between atoms: C_14  and  C_15
REMARK   13  A    between atoms: C_15  and  O_16
REMARK   14  A    between atoms: O_16  and  C_17
REMARK                            x       y       z     vdW  Elec       q    Type
REMARK                         _______ _______ _______ _____ _____    ______ ____
ROOT
ATOM      1  C   UNL     1       1.308   6.890  20.666  0.00  0.00    +0.000 C 
ENDROOT
BRANCH   1   3
ATOM      2  N   UNL     1       3.039   5.418  19.679  0.00  0.00    +0.000 N 
ATOM      3  C   UNL     1       2.422   6.682  19.652  0.00  0.00    +0.000 C 
ATOM      4  O   UNL     1       2.787   7.604  18.927  0.00  0.00    +0.000 OA
BRANCH   2   5
ATOM      5  C   UNL     1       2.461   4.279  20.465  0.00  0.00    +0.000 C 
ATOM      6  C   UNL     1       1.014   3.943  20.050  0.00  0.00    +0.000 C 
ATOM      7  C   UNL     1       0.908   3.040  18.825  0.00  0.00    +0.000 C 
ATOM      8  C   UNL     1       1.763   1.785  18.944  0.00  0.00    +0.000 C 
ATOM      9  C   UNL     1       3.200   2.045  19.381  0.00  0.00    +0.000 C 
ATOM     10  C   UNL     1       3.317   3.006  20.561  0.00  0.00    +0.000 C 
ENDBRANCH   2   5
BRANCH   2  11
ATOM     11  C   UNL     1       4.144   5.091  18.765  0.00  0.00    +0.000 C 
BRANCH  11  12
ATOM     12  C   UNL     1       4.030   5.187  17.247  0.00  0.00    +0.000 C 
BRANCH  12  13
ATOM     13  C   UNL     1       4.973   6.293  16.797  0.00  0.00    +0.000 C 
ATOM     14  O   UNL     1       5.006   6.743  15.658  0.00  0.00    +0.000 OA
BRANCH  13  15
ATOM     15  O   UNL     1       5.740   6.719  17.833  0.00  0.00    +0.000 OA
BRANCH  15  17
ATOM     16  C   UNL     1       7.771   5.953  19.000  0.00  0.00    +0.000 C 
ATOM     17  C   UNL     1       7.187   6.612  17.741  0.00  0.00    +0.000 C 
ATOM     18  C   UNL     1       7.841   7.969  17.451  0.00  0.00    +0.000 C 
ATOM     19  C   UNL     1       7.452   5.682  16.548  0.00  0.00    +0.000 C 
ENDBRANCH  15  17
ENDBRANCH  13  15
ENDBRANCH  12  13
ENDBRANCH  11  12
ENDBRANCH   2  11
ENDBRANCH   1   3
BRANCH   1  20
ATOM     20  C   UNL     1       1.386   8.145  21.522  0.00  0.00    +0.000 C 
BRANCH  20  21
ATOM     21  C   UNL     1       0.887   9.307  20.663  0.00  0.00    +0.000 C 
BRANCH  21  22
ATOM     22  O   UNL     1       0.722  10.472  21.457  0.00  0.00    +0.000 OA
BRANCH  22  23
ATOM     23  C   UNL     1      -0.454  11.150  21.272  0.00  0.00    +0.000 A 
ATOM     24  C   UNL     1      -1.168  11.856  22.247  0.00  0.00    +0.000 A 
ATOM     25  C   UNL     1      -2.354  12.519  21.915  0.00  0.00    +0.000 A 
ATOM     26  C   UNL     1      -2.853  12.465  20.615  0.00  0.00    +0.000 A 
ATOM     27  C   UNL     1      -2.148  11.732  19.639  0.00  0.00    +0.000 A 
ATOM     28  C   UNL     1      -0.946  11.096  19.969  0.00  0.00    +0.000 A 
ATOM     29  C   UNL     1      -2.702  11.654  18.241  0.00  0.00    +0.000 C 
ATOM     30  N   UNL     1      -4.124  11.864  18.308  0.00  0.00    +0.000 N 
ATOM     31  C   UNL     1      -4.990  11.792  17.147  0.00  0.00    +0.000 C 
ATOM     32  C   UNL     1      -6.158  12.677  17.603  0.00  0.00    +0.000 C 
ATOM     33  O   UNL     1      -7.197  12.877  16.994  0.00  0.00    +0.000 OA
ATOM     34  N   UNL     1      -5.819  13.207  18.820  0.00  0.00    +0.000 N 
ATOM     35  C   UNL     1      -4.625  12.737  19.224  0.00  0.00    +0.000 C 
ATOM     36  N   UNL     1      -4.081  13.102  20.329  0.00  0.00    +0.000 NA
ATOM     37  H   UNL     1      -6.388  13.840  19.353  0.00  0.00    +0.000 HD
ENDBRANCH  22  23
ENDBRANCH  21  22
ENDBRANCH  20  21
ENDBRANCH   1  20
TORSDOF 11
ENDMDL
MODEL 9
REMARK VINA RESULT:      -7.7      2.014      2.733
REMARK  Name = 
REMARK  14 active torsions:
REMARK  status: ('A' for Active; 'I' for Inactive)
REMARK    1  A    between atoms: C_1  and  C_2
REMARK    2  A    between atoms: C_2  and  C_3
REMARK    3  A    between atoms: C_2  and  C_4
REMARK    4  A    between atoms: C_2  and  O_5
REMARK    5  A    between atoms: O_5  and  C_6
REMARK    6  A    between atoms: C_6  and  C_8
REMARK    7  A    between atoms: C_8  and  C_9
REMARK    8  A    between atoms: C_9  and  N_10
REMARK    9  A    between atoms: N_10  and  C_31
REMARK   10  A    between atoms: C_11  and  C_13
REMARK   11  A    between atoms: C_13  and  C_14
REMARK   12  A    between atoms: C_14  and  C_15
REMARK   13  A    between atoms: C_15  and  O_16
REMARK   14  A    between atoms: O_16  and  C_17
REMARK                            x       y       z     vdW  Elec       q    Type
REMARK                         _______ _______ _______ _____ _____    ______ ____
ROOT
ATOM      1  C   UNL     1       2.949   8.214  17.833  0.00  0.00    +0.000 C 
ENDROOT
BRANCH   1   3
ATOM      2  N   UNL     1       4.479   6.326  18.316  0.00  0.00    +0.000 N 
ATOM      3  C   UNL     1       3.348   7.053  18.731  0.00  0.00    +0.000 C 
ATOM      4  O   UNL     1       2.658   6.747  19.700  0.00  0.00    +0.000 OA
BRANCH   2   5
ATOM      5  C   UNL     1       5.375   6.825  17.223  0.00  0.00    +0.000 C 
ATOM      6  C   UNL     1       6.872   6.625  17.542  0.00  0.00    +0.000 C 
ATOM      7  C   UNL     1       7.399   5.231  17.222  0.00  0.00    +0.000 C 
ATOM      8  C   UNL     1       7.065   4.787  15.803  0.00  0.00    +0.000 C 
ATOM      9  C   UNL     1       5.605   4.986  15.413  0.00  0.00    +0.000 C 
ATOM     10  C   UNL     1       5.049   6.354  15.796  0.00  0.00    +0.000 C 
ENDBRANCH   2   5
BRANCH   2  11
ATOM     11  C   UNL     1       4.960   5.166  19.081  0.00  0.00    +0.000 C 
BRANCH  11  12
ATOM     12  C   UNL     1       4.694   3.721  18.667  0.00  0.00    +0.000 C 
BRANCH  12  13
ATOM     13  C   UNL     1       3.263   3.659  18.157  0.00  0.00    +0.000 C 
ATOM     14  O   UNL     1       2.962   3.493  16.981  0.00  0.00    +0.000 OA
BRANCH  13  15
ATOM     15  O   UNL     1       2.382   3.787  19.182  0.00  0.00    +0.000 OA
BRANCH  15  17
ATOM     16  C   UNL     1       1.396   2.737  21.182  0.00  0.00    +0.000 C 
ATOM     17  C   UNL     1       1.690   2.609  19.680  0.00  0.00    +0.000 C 
ATOM     18  C   UNL     1       2.457   1.320  19.356  0.00  0.00    +0.000 C 
ATOM     19  C   UNL     1       0.350   2.577  18.930  0.00  0.00    +0.000 C 
ENDBRANCH  15  17
ENDBRANCH  13  15
ENDBRANCH  12  13
ENDBRANCH  11  12
ENDBRANCH   2  11
ENDBRANCH   1   3
BRANCH   1  20
ATOM     20  C   UNL     1       1.463   8.513  17.718  0.00  0.00    +0.000 C 
BRANCH  20  21
ATOM     21  C   UNL     1       1.126   9.545  18.794  0.00  0.00    +0.000 C 
BRANCH  21  22
ATOM     22  O   UNL     1       0.568  10.709  18.203  0.00  0.00    +0.000 OA
BRANCH  22  23
ATOM     23  C   UNL     1      -0.801  10.763  18.184  0.00  0.00    +0.000 A 
ATOM     24  C   UNL     1      -1.647  10.073  17.310  0.00  0.00    +0.000 A 
ATOM     25  C   UNL     1      -3.035  10.209  17.412  0.00  0.00    +0.000 A 
ATOM     26  C   UNL     1      -3.593  11.055  18.371  0.00  0.00    +0.000 A 
ATOM     27  C   UNL     1      -2.739  11.771  19.234  0.00  0.00    +0.000 A 
ATOM     28  C   UNL     1      -1.352  11.607  19.147  0.00  0.00    +0.000 A 
ATOM     29  C   UNL     1      -3.342  12.703  20.251  0.00  0.00    +0.000 C 
ATOM     30  N   UNL     1      -4.636  13.114  19.775  0.00  0.00    +0.000 N 
ATOM     31  C   UNL     1      -5.473  14.066  20.479  0.00  0.00    +0.000 C 
ATOM     32  C   UNL     1      -6.863  13.664  19.966  0.00  0.00    +0.000 C 
ATOM     33  O   UNL     1      -7.917  14.226  20.212  0.00  0.00    +0.000 OA
ATOM     34  N   UNL     1      -6.702  12.553  19.181  0.00  0.00    +0.000 N 
ATOM     35  C   UNL     1      -5.400  12.228  19.080  0.00  0.00    +0.000 C 
ATOM     36  N   UNL     1      -4.997  11.209  18.410  0.00  0.00    +0.000 NA
ATOM     37  H   UNL     1      -7.446  12.057  18.722  0.00  0.00    +0.000 HD
ENDBRANCH  22  23
ENDBRANCH  21  22
ENDBRANCH  20  21
ENDBRANCH   1  20
TORSDOF 11
ENDMDL
