MODEL 1
REMARK VINA RESULT:      -8.8      0.000      0.000
REMARK  Name = 
REMARK  7 active torsions:
REMARK  status: ('A' for Active; 'I' for Inactive)
REMARK    1  A    between atoms: C_1  and  N_2
REMARK    2  A    between atoms: N_2  and  N_3
REMARK    3  A    between atoms: N_4  and  C_5
REMARK    4  A    between atoms: N_13  and  C_14
REMARK    5  A    between atoms: C_23  and  O_25
REMARK    6  A    between atoms: O_25  and  C_26
REMARK    7  A    between atoms: C_29  and  N_30
REMARK                            x       y       z     vdW  Elec       q    Type
REMARK                         _______ _______ _______ _____ _____    ______ ____
ROOT
ATOM      1  C   UNL     1       1.376   8.891  19.851  0.00  0.00    +0.000 A 
ATOM      2  C   UNL     1       1.703   9.303  18.559  0.00  0.00    +0.000 A 
ATOM      3  C   UNL     1       1.341  10.579  18.109  0.00  0.00    +0.000 A 
ATOM      4  C   UNL     1       0.654  11.476  18.915  0.00  0.00    +0.000 A 
ATOM      5  N   UNL     1       0.334  12.667  18.406  0.00  0.00    +0.000 NA
ATOM      6  C   UNL     1      -0.338  13.499  19.206  0.00  0.00    +0.000 A 
ATOM      7  N   UNL     1      -0.700  13.251  20.466  0.00  0.00    +0.000 NA
ATOM      8  C   UNL     1      -0.362  12.053  20.979  0.00  0.00    +0.000 A 
ATOM      9  N   UNL     1      -0.708  11.781  22.335  0.00  0.00    +0.000 N 
ATOM     10  C   UNL     1       0.324  11.088  20.222  0.00  0.00    +0.000 A 
ATOM     11  C   UNL     1       0.675   9.787  20.668  0.00  0.00    +0.000 A 
ATOM     12  H   UNL     1       0.138  11.562  22.852  0.00  0.00    +0.000 HD
ENDROOT
BRANCH   9  13
ATOM     13  C   UNL     1      -1.603  12.579  23.090  0.00  0.00    +0.000 A 
ATOM     14  C   UNL     1      -1.200  13.831  23.582  0.00  0.00    +0.000 A 
ATOM     15  C   UNL     1      -2.042  14.598  24.389  0.00  0.00    +0.000 A 
ATOM     16  C   UNL     1      -3.312  14.125  24.707  0.00  0.00    +0.000 A 
ATOM     17  C   UNL     1      -3.735  12.899  24.197  0.00  0.00    +0.000 A 
ATOM     18 CL   UNL     1      -5.305  12.315  24.596  0.00  0.00    +0.000 Cl
ATOM     19  C   UNL     1      -2.896  12.131  23.383  0.00  0.00    +0.000 A 
ENDBRANCH   9  13
BRANCH   1  21
ATOM     20  N   UNL     1       1.854   6.751  19.505  0.00  0.00    +0.000 NA
ATOM     21  N   UNL     1       1.655   7.617  20.377  0.00  0.00    +0.000 NA
BRANCH  20  23
ATOM     22  C   UNL     1       1.334   4.607  20.653  0.00  0.00    +0.000 C 
ATOM     23  N   UNL     1       2.243   5.536  20.015  0.00  0.00    +0.000 N 
ATOM     24  C   UNL     1       3.546   5.104  19.776  0.00  0.00    +0.000 C 
ATOM     25  O   UNL     1       3.996   4.038  20.189  0.00  0.00    +0.000 OA
BRANCH  24  26
ATOM     26  O   UNL     1       4.267   5.997  18.982  0.00  0.00    +0.000 OA
BRANCH  26  27
ATOM     27  C   UNL     1       4.929   5.567  17.812  0.00  0.00    +0.000 A 
ATOM     28  C   UNL     1       6.229   6.063  17.674  0.00  0.00    +0.000 A 
ATOM     29  C   UNL     1       6.938   5.840  16.492  0.00  0.00    +0.000 A 
ATOM     30  C   UNL     1       6.341   5.107  15.459  0.00  0.00    +0.000 A 
ATOM     31  C   UNL     1       5.053   4.576  15.613  0.00  0.00    +0.000 A 
ATOM     32  C   UNL     1       4.347   4.806  16.797  0.00  0.00    +0.000 A 
BRANCH  30  33
ATOM     33  N   UNL     1       7.059   4.911  14.194  0.00  0.00    +0.000 N 
ATOM     34  O   UNL     1       8.085   5.580  14.006  0.00  0.00    +0.000 OA
ATOM     35  O   UNL     1       6.594   4.095  13.386  0.00  0.00    +0.000 OA
ENDBRANCH  30  33
ENDBRANCH  26  27
ENDBRANCH  24  26
ENDBRANCH  20  23
ENDBRANCH   1  21
TORSDOF 6
ENDMDL
MODEL 2
REMARK VINA RESULT:      -8.8      1.091      1.554
REMARK  Name = 
REMARK  7 active torsions:
REMARK  status: ('A' for Active; 'I' for Inactive)
REMARK    1  A    between atoms: C_1  and  N_2
REMARK    2  A    between atoms: N_2  and  N_3
REMARK    3  A    between atoms: N_4  and  C_5
REMARK    4  A    between atoms: N_13  and  C_14
REMARK    5  A    between atoms: C_23  and  O_25
REMARK    6  A    between atoms: O_25  and  C_26
REMARK    7  A    between atoms: C_29  and  N_30
REMARK                            x       y       z     vdW  Elec       q    Type
REMARK                         _______ _______ _______ _____ _____    ______ ____
ROOT
ATOM      1  C   UNL     1       1.640   8.657  19.659  0.00  0.00    +0.000 A 
ATOM      2  C   UNL     1       2.063   9.121  18.413  0.00  0.00    +0.000 A 
ATOM      3  C   UNL     1       1.787  10.436  18.015  0.00  0.00    +0.000 A 
ATOM      4  C   UNL     1       1.093  11.320  18.829  0.00  0.00    +0.000 A 
ATOM      5  N   UNL     1       0.858  12.551  18.370  0.00  0.00    +0.000 NA
ATOM      6  C   UNL     1       0.176  13.370  19.174  0.00  0.00    +0.000 A 
ATOM      7  N   UNL     1      -0.273  13.073  20.395  0.00  0.00    +0.000 NA
ATOM      8  C   UNL     1      -0.020  11.834  20.860  0.00  0.00    +0.000 A 
ATOM      9  N   UNL     1      -0.459  11.507  22.176  0.00  0.00    +0.000 N 
ATOM     10  C   UNL     1       0.667  10.880  20.090  0.00  0.00    +0.000 A 
ATOM     11  C   UNL     1       0.931   9.541  20.482  0.00  0.00    +0.000 A 
ATOM     12  H   UNL     1       0.343  11.220  22.728  0.00  0.00    +0.000 HD
ENDROOT
BRANCH   9  13
ATOM     13  C   UNL     1      -1.362  12.306  22.921  0.00  0.00    +0.000 A 
ATOM     14  C   UNL     1      -2.656  11.841  23.206  0.00  0.00    +0.000 A 
ATOM     15  C   UNL     1      -3.583  12.643  23.874  0.00  0.00    +0.000 A 
ATOM     16  C   UNL     1      -3.221  13.924  24.280  0.00  0.00    +0.000 A 
ATOM     17  C   UNL     1      -1.929  14.383  24.033  0.00  0.00    +0.000 A 
ATOM     18 CL   UNL     1      -1.486  15.970  24.534  0.00  0.00    +0.000 Cl
ATOM     19  C   UNL     1      -0.996  13.580  23.369  0.00  0.00    +0.000 A 
ENDBRANCH   9  13
BRANCH   1  21
ATOM     20  N   UNL     1       2.084   6.525  19.225  0.00  0.00    +0.000 NA
ATOM     21  N   UNL     1       1.830   7.345  20.128  0.00  0.00    +0.000 NA
BRANCH  20  23
ATOM     22  C   UNL     1       1.388   4.271  20.010  0.00  0.00    +0.000 C 
ATOM     23  N   UNL     1       2.387   5.269  19.692  0.00  0.00    +0.000 N 
ATOM     24  C   UNL     1       3.724   4.877  19.721  0.00  0.00    +0.000 C 
ATOM     25  O   UNL     1       4.102   3.780  20.123  0.00  0.00    +0.000 OA
BRANCH  24  26
ATOM     26  O   UNL     1       4.577   5.854  19.206  0.00  0.00    +0.000 OA
BRANCH  26  27
ATOM     27  C   UNL     1       5.319   5.629  18.027  0.00  0.00    +0.000 A 
ATOM     28  C   UNL     1       4.797   6.257  16.893  0.00  0.00    +0.000 A 
ATOM     29  C   UNL     1       5.344   5.994  15.635  0.00  0.00    +0.000 A 
ATOM     30  C   UNL     1       6.424   5.109  15.527  0.00  0.00    +0.000 A 
ATOM     31  C   UNL     1       6.973   4.510  16.668  0.00  0.00    +0.000 A 
ATOM     32  C   UNL     1       6.418   4.775  17.923  0.00  0.00    +0.000 A 
BRANCH  30  33
ATOM     33  N   UNL     1       6.972   4.787  14.204  0.00  0.00    +0.000 N 
ATOM     34  O   UNL     1       6.510   3.801  13.613  0.00  0.00    +0.000 OA
ATOM     35  O   UNL     1       7.870   5.516  13.759  0.00  0.00    +0.000 OA
ENDBRANCH  30  33
ENDBRANCH  26  27
ENDBRANCH  24  26
ENDBRANCH  20  23
ENDBRANCH   1  21
TORSDOF 6
ENDMDL
MODEL 3
REMARK VINA RESULT:      -8.5      1.040      1.102
REMARK  Name = 
REMARK  7 active torsions:
REMARK  status: ('A' for Active; 'I' for Inactive)
REMARK    1  A    between atoms: C_1  and  N_2
REMARK    2  A    between atoms: N_2  and  N_3
REMARK    3  A    between atoms: N_4  and  C_5
REMARK    4  A    between atoms: N_13  and  C_14
REMARK    5  A    between atoms: C_23  and  O_25
REMARK    6  A    between atoms: O_25  and  C_26
REMARK    7  A    between atoms: C_29  and  N_30
REMARK                            x       y       z     vdW  Elec       q    Type
REMARK                         _______ _______ _______ _____ _____    ______ ____
ROOT
ATOM      1  C   UNL     1       1.764   8.081  19.704  0.00  0.00    +0.000 A 
ATOM      2  C   UNL     1       2.377   8.417  18.497  0.00  0.00    +0.000 A 
ATOM      3  C   UNL     1       2.246   9.710  17.971  0.00  0.00    +0.000 A 
ATOM      4  C   UNL     1       1.514  10.696  18.618  0.00  0.00    +0.000 A 
ATOM      5  N   UNL     1       1.426  11.897  18.044  0.00  0.00    +0.000 NA
ATOM      6  C   UNL     1       0.703  12.816  18.688  0.00  0.00    +0.000 A 
ATOM      7  N   UNL     1       0.079  12.646  19.855  0.00  0.00    +0.000 NA
ATOM      8  C   UNL     1       0.183  11.436  20.437  0.00  0.00    +0.000 A 
ATOM      9  N   UNL     1      -0.446  11.242  21.701  0.00  0.00    +0.000 N 
ATOM     10  C   UNL     1       0.898  10.384  19.838  0.00  0.00    +0.000 A 
ATOM     11  C   UNL     1       1.016   9.068  20.358  0.00  0.00    +0.000 A 
ATOM     12  H   UNL     1       0.255  10.954  22.377  0.00  0.00    +0.000 HD
ENDROOT
BRANCH   9  13
ATOM     13  C   UNL     1      -1.381  12.149  22.258  0.00  0.00    +0.000 A 
ATOM     14  C   UNL     1      -0.966  13.130  23.172  0.00  0.00    +0.000 A 
ATOM     15  C   UNL     1      -1.883  13.983  23.787  0.00  0.00    +0.000 A 
ATOM     16  C   UNL     1      -3.237  13.875  23.483  0.00  0.00    +0.000 A 
ATOM     17  C   UNL     1      -3.657  12.929  22.551  0.00  0.00    +0.000 A 
ATOM     18 CL   UNL     1      -5.334  12.795  22.179  0.00  0.00    +0.000 Cl
ATOM     19  C   UNL     1      -2.740  12.076  21.929  0.00  0.00    +0.000 A 
ENDBRANCH   9  13
BRANCH   1  21
ATOM     20  N   UNL     1       1.968   5.883  19.464  0.00  0.00    +0.000 NA
ATOM     21  N   UNL     1       1.800   6.801  20.288  0.00  0.00    +0.000 NA
BRANCH  20  23
ATOM     22  C   UNL     1       1.015   3.783  20.394  0.00  0.00    +0.000 C 
ATOM     23  N   UNL     1       2.123   4.646  20.042  0.00  0.00    +0.000 N 
ATOM     24  C   UNL     1       3.410   4.127  20.162  0.00  0.00    +0.000 C 
ATOM     25  O   UNL     1       3.659   3.035  20.666  0.00  0.00    +0.000 OA
BRANCH  24  26
ATOM     26  O   UNL     1       4.378   4.967  19.608  0.00  0.00    +0.000 OA
BRANCH  26  27
ATOM     27  C   UNL     1       4.935   4.704  18.339  0.00  0.00    +0.000 A 
ATOM     28  C   UNL     1       6.302   4.980  18.244  0.00  0.00    +0.000 A 
ATOM     29  C   UNL     1       6.944   4.911  17.006  0.00  0.00    +0.000 A 
ATOM     30  C   UNL     1       6.209   4.551  15.870  0.00  0.00    +0.000 A 
ATOM     31  C   UNL     1       4.847   4.236  15.971  0.00  0.00    +0.000 A 
ATOM     32  C   UNL     1       4.210   4.312  17.213  0.00  0.00    +0.000 A 
BRANCH  30  33
ATOM     33  N   UNL     1       6.864   4.525  14.557  0.00  0.00    +0.000 N 
ATOM     34  O   UNL     1       7.800   5.313  14.364  0.00  0.00    +0.000 OA
ATOM     35  O   UNL     1       6.437   3.721  13.715  0.00  0.00    +0.000 OA
ENDBRANCH  30  33
ENDBRANCH  26  27
ENDBRANCH  24  26
ENDBRANCH  20  23
ENDBRANCH   1  21
TORSDOF 6
ENDMDL
MODEL 4
REMARK VINA RESULT:      -8.5      2.091      2.528
REMARK  Name = 
REMARK  7 active torsions:
REMARK  status: ('A' for Active; 'I' for Inactive)
REMARK    1  A    between atoms: C_1  and  N_2
REMARK    2  A    between atoms: N_2  and  N_3
REMARK    3  A    between atoms: N_4  and  C_5
REMARK    4  A    between atoms: N_13  and  C_14
REMARK    5  A    between atoms: C_23  and  O_25
REMARK    6  A    between atoms: O_25  and  C_26
REMARK    7  A    between atoms: C_29  and  N_30
REMARK                            x       y       z     vdW  Elec       q    Type
REMARK                         _______ _______ _______ _____ _____    ______ ____
ROOT
ATOM      1  C   UNL     1       1.976   7.506  19.702  0.00  0.00    +0.000 A 
ATOM      2  C   UNL     1       2.406   7.812  18.411  0.00  0.00    +0.000 A 
ATOM      3  C   UNL     1       2.181   9.085  17.871  0.00  0.00    +0.000 A 
ATOM      4  C   UNL     1       1.532  10.082  18.587  0.00  0.00    +0.000 A 
ATOM      5  N   UNL     1       1.344  11.264  17.996  0.00  0.00    +0.000 NA
ATOM      6  C   UNL     1       0.704  12.194  18.709  0.00  0.00    +0.000 A 
ATOM      7  N   UNL     1       0.255  12.053  19.957  0.00  0.00    +0.000 NA
ATOM      8  C   UNL     1       0.461  10.863  20.554  0.00  0.00    +0.000 A 
ATOM      9  N   UNL     1       0.021  10.702  21.900  0.00  0.00    +0.000 N 
ATOM     10  C   UNL     1       1.101   9.801  19.891  0.00  0.00    +0.000 A 
ATOM     11  C   UNL     1       1.313   8.504  20.426  0.00  0.00    +0.000 A 
ATOM     12  H   UNL     1       0.815  10.443  22.477  0.00  0.00    +0.000 HD
ENDROOT
BRANCH   9  13
ATOM     13  C   UNL     1      -0.841  11.615  22.557  0.00  0.00    +0.000 A 
ATOM     14  C   UNL     1      -2.051  11.175  23.117  0.00  0.00    +0.000 A 
ATOM     15  C   UNL     1      -2.946  12.071  23.703  0.00  0.00    +0.000 A 
ATOM     16  C   UNL     1      -2.635  13.427  23.747  0.00  0.00    +0.000 A 
ATOM     17  C   UNL     1      -1.422  13.870  23.225  0.00  0.00    +0.000 A 
ATOM     18 CL   UNL     1      -1.042  15.549  23.279  0.00  0.00    +0.000 Cl
ATOM     19  C   UNL     1      -0.520  12.974  22.643  0.00  0.00    +0.000 A 
ENDBRANCH   9  13
BRANCH   1  21
ATOM     20  N   UNL     1       1.939   5.293  19.531  0.00  0.00    +0.000 NA
ATOM     21  N   UNL     1       2.116   6.246  20.312  0.00  0.00    +0.000 NA
BRANCH  20  23
ATOM     22  C   UNL     1       1.606   3.622  21.342  0.00  0.00    +0.000 C 
ATOM     23  N   UNL     1       2.192   4.065  20.095  0.00  0.00    +0.000 N 
ATOM     24  C   UNL     1       2.929   3.138  19.361  0.00  0.00    +0.000 C 
ATOM     25  O   UNL     1       3.213   2.017  19.774  0.00  0.00    +0.000 OA
BRANCH  24  26
ATOM     26  O   UNL     1       3.271   3.611  18.094  0.00  0.00    +0.000 OA
BRANCH  26  27
ATOM     27  C   UNL     1       4.398   4.439  17.901  0.00  0.00    +0.000 A 
ATOM     28  C   UNL     1       5.308   4.425  18.963  0.00  0.00    +0.000 A 
ATOM     29  C   UNL     1       6.386   5.312  18.970  0.00  0.00    +0.000 A 
ATOM     30  C   UNL     1       6.551   6.201  17.900  0.00  0.00    +0.000 A 
ATOM     31  C   UNL     1       5.662   6.189  16.817  0.00  0.00    +0.000 A 
ATOM     32  C   UNL     1       4.583   5.300  16.819  0.00  0.00    +0.000 A 
BRANCH  30  33
ATOM     33  N   UNL     1       7.652   7.172  17.923  0.00  0.00    +0.000 N 
ATOM     34  O   UNL     1       8.473   7.089  18.847  0.00  0.00    +0.000 OA
ATOM     35  O   UNL     1       7.691   8.021  17.022  0.00  0.00    +0.000 OA
ENDBRANCH  30  33
ENDBRANCH  26  27
ENDBRANCH  24  26
ENDBRANCH  20  23
ENDBRANCH   1  21
TORSDOF 6
ENDMDL
MODEL 5
REMARK VINA RESULT:      -8.5      1.830      2.091
REMARK  Name = 
REMARK  7 active torsions:
REMARK  status: ('A' for Active; 'I' for Inactive)
REMARK    1  A    between atoms: C_1  and  N_2
REMARK    2  A    between atoms: N_2  and  N_3
REMARK    3  A    between atoms: N_4  and  C_5
REMARK    4  A    between atoms: N_13  and  C_14
REMARK    5  A    between atoms: C_23  and  O_25
REMARK    6  A    between atoms: O_25  and  C_26
REMARK    7  A    between atoms: C_29  and  N_30
REMARK                            x       y       z     vdW  Elec       q    Type
REMARK                         _______ _______ _______ _____ _____    ______ ____
ROOT
ATOM      1  C   UNL     1       1.785   7.800  19.734  0.00  0.00    +0.000 A 
ATOM      2  C   UNL     1       2.229   8.090  18.444  0.00  0.00    +0.000 A 
ATOM      3  C   UNL     1       2.040   9.367  17.899  0.00  0.00    +0.000 A 
ATOM      4  C   UNL     1       1.416  10.383  18.608  0.00  0.00    +0.000 A 
ATOM      5  N   UNL     1       1.262  11.567  18.013  0.00  0.00    +0.000 NA
ATOM      6  C   UNL     1       0.644  12.517  18.720  0.00  0.00    +0.000 A 
ATOM      7  N   UNL     1       0.186  12.392  19.966  0.00  0.00    +0.000 NA
ATOM      8  C   UNL     1       0.357  11.199  20.568  0.00  0.00    +0.000 A 
ATOM      9  N   UNL     1      -0.093  11.054  21.913  0.00  0.00    +0.000 N 
ATOM     10  C   UNL     1       0.971  10.118  19.911  0.00  0.00    +0.000 A 
ATOM     11  C   UNL     1       1.146   8.818  20.452  0.00  0.00    +0.000 A 
ATOM     12  H   UNL     1       0.692  10.776  22.494  0.00  0.00    +0.000 HD
ENDROOT
BRANCH   9  13
ATOM     13  C   UNL     1      -0.933  11.992  22.563  0.00  0.00    +0.000 A 
ATOM     14  C   UNL     1      -0.531  13.329  22.705  0.00  0.00    +0.000 A 
ATOM     15  C   UNL     1      -1.311  14.250  23.407  0.00  0.00    +0.000 A 
ATOM     16  C   UNL     1      -2.518  13.845  23.969  0.00  0.00    +0.000 A 
ATOM     17  C   UNL     1      -2.943  12.528  23.805  0.00  0.00    +0.000 A 
ATOM     18 CL   UNL     1      -4.436  12.029  24.505  0.00  0.00    +0.000 Cl
ATOM     19  C   UNL     1      -2.167  11.605  23.097  0.00  0.00    +0.000 A 
ENDBRANCH   9  13
BRANCH   1  21
ATOM     20  N   UNL     1       2.013   5.600  19.540  0.00  0.00    +0.000 NA
ATOM     21  N   UNL     1       1.889   6.539  20.349  0.00  0.00    +0.000 NA
BRANCH  20  23
ATOM     22  C   UNL     1       1.640   3.994  21.402  0.00  0.00    +0.000 C 
ATOM     23  N   UNL     1       2.234   4.383  20.140  0.00  0.00    +0.000 N 
ATOM     24  C   UNL     1       2.942   3.414  19.433  0.00  0.00    +0.000 C 
ATOM     25  O   UNL     1       3.196   2.298  19.878  0.00  0.00    +0.000 OA
BRANCH  24  26
ATOM     26  O   UNL     1       3.292   3.839  18.151  0.00  0.00    +0.000 OA
BRANCH  26  27
ATOM     27  C   UNL     1       4.414   4.668  17.936  0.00  0.00    +0.000 A 
ATOM     28  C   UNL     1       5.411   4.546  18.909  0.00  0.00    +0.000 A 
ATOM     29  C   UNL     1       6.503   5.417  18.902  0.00  0.00    +0.000 A 
ATOM     30  C   UNL     1       6.593   6.399  17.907  0.00  0.00    +0.000 A 
ATOM     31  C   UNL     1       5.613   6.496  16.909  0.00  0.00    +0.000 A 
ATOM     32  C   UNL     1       4.522   5.623  16.925  0.00  0.00    +0.000 A 
BRANCH  30  33
ATOM     33  N   UNL     1       7.710   7.351  17.921  0.00  0.00    +0.000 N 
ATOM     34  O   UNL     1       8.531   7.261  18.845  0.00  0.00    +0.000 OA
ATOM     35  O   UNL     1       7.762   8.193  17.013  0.00  0.00    +0.000 OA
ENDBRANCH  30  33
ENDBRANCH  26  27
ENDBRANCH  24  26
ENDBRANCH  20  23
ENDBRANCH   1  21
TORSDOF 6
ENDMDL
MODEL 6
REMARK VINA RESULT:      -8.5      5.183     10.539
REMARK  Name = 
REMARK  7 active torsions:
REMARK  status: ('A' for Active; 'I' for Inactive)
REMARK    1  A    between atoms: C_1  and  N_2
REMARK    2  A    between atoms: N_2  and  N_3
REMARK    3  A    between atoms: N_4  and  C_5
REMARK    4  A    between atoms: N_13  and  C_14
REMARK    5  A    between atoms: C_23  and  O_25
REMARK    6  A    between atoms: O_25  and  C_26
REMARK    7  A    between atoms: C_29  and  N_30
REMARK                            x       y       z     vdW  Elec       q    Type
REMARK                         _______ _______ _______ _____ _____    ______ ____
ROOT
ATOM      1  C   UNL     1       1.854   6.207  20.396  0.00  0.00    +0.000 A 
ATOM      2  C   UNL     1       0.926   5.234  20.766  0.00  0.00    +0.000 A 
ATOM      3  C   UNL     1       0.926   3.980  20.140  0.00  0.00    +0.000 A 
ATOM      4  C   UNL     1       1.835   3.656  19.143  0.00  0.00    +0.000 A 
ATOM      5  N   UNL     1       1.759   2.445  18.587  0.00  0.00    +0.000 NA
ATOM      6  C   UNL     1       2.641   2.174  17.621  0.00  0.00    +0.000 A 
ATOM      7  N   UNL     1       3.595   2.995  17.178  0.00  0.00    +0.000 NA
ATOM      8  C   UNL     1       3.676   4.210  17.753  0.00  0.00    +0.000 A 
ATOM      9  N   UNL     1       4.710   5.091  17.320  0.00  0.00    +0.000 N 
ATOM     10  C   UNL     1       2.784   4.615  18.762  0.00  0.00    +0.000 A 
ATOM     11  C   UNL     1       2.768   5.891  19.384  0.00  0.00    +0.000 A 
ATOM     12  H   UNL     1       5.281   5.345  18.119  0.00  0.00    +0.000 HD
ENDROOT
BRANCH   9  13
ATOM     13  C   UNL     1       5.488   4.872  16.156  0.00  0.00    +0.000 A 
ATOM     14  C   UNL     1       6.844   5.234  16.127  0.00  0.00    +0.000 A 
ATOM     15  C   UNL     1       7.607   5.094  14.967  0.00  0.00    +0.000 A 
ATOM     16  C   UNL     1       7.023   4.576  13.815  0.00  0.00    +0.000 A 
ATOM     17  C   UNL     1       5.686   4.182  13.842  0.00  0.00    +0.000 A 
ATOM     18 CL   UNL     1       4.965   3.545  12.413  0.00  0.00    +0.000 Cl
ATOM     19  C   UNL     1       4.921   4.315  15.004  0.00  0.00    +0.000 A 
ENDBRANCH   9  13
BRANCH   1  21
ATOM     20  N   UNL     1       0.782   8.022  21.094  0.00  0.00    +0.000 NA
ATOM     21  N   UNL     1       1.904   7.507  20.933  0.00  0.00    +0.000 NA
BRANCH  20  23
ATOM     22  C   UNL     1       1.164   9.405  23.125  0.00  0.00    +0.000 C 
ATOM     23  N   UNL     1       0.823   9.241  21.728  0.00  0.00    +0.000 N 
ATOM     24  C   UNL     1       0.676  10.393  20.958  0.00  0.00    +0.000 C 
ATOM     25  O   UNL     1       0.694  11.529  21.425  0.00  0.00    +0.000 OA
BRANCH  24  26
ATOM     26  O   UNL     1       0.550  10.113  19.597  0.00  0.00    +0.000 OA
BRANCH  26  27
ATOM     27  C   UNL     1      -0.653  10.372  18.906  0.00  0.00    +0.000 A 
ATOM     28  C   UNL     1      -0.814   9.624  17.735  0.00  0.00    +0.000 A 
ATOM     29  C   UNL     1      -1.883   9.892  16.878  0.00  0.00    +0.000 A 
ATOM     30  C   UNL     1      -2.794  10.903  17.209  0.00  0.00    +0.000 A 
ATOM     31  C   UNL     1      -2.655  11.627  18.401  0.00  0.00    +0.000 A 
ATOM     32  C   UNL     1      -1.580  11.356  19.253  0.00  0.00    +0.000 A 
BRANCH  30  33
ATOM     33  N   UNL     1      -3.891  11.226  16.289  0.00  0.00    +0.000 N 
ATOM     34  O   UNL     1      -3.765  10.890  15.103  0.00  0.00    +0.000 OA
ATOM     35  O   UNL     1      -4.875  11.822  16.751  0.00  0.00    +0.000 OA
ENDBRANCH  30  33
ENDBRANCH  26  27
ENDBRANCH  24  26
ENDBRANCH  20  23
ENDBRANCH   1  21
TORSDOF 6
ENDMDL
MODEL 7
REMARK VINA RESULT:      -8.2      5.153     10.558
REMARK  Name = 
REMARK  7 active torsions:
REMARK  status: ('A' for Active; 'I' for Inactive)
REMARK    1  A    between atoms: C_1  and  N_2
REMARK    2  A    between atoms: N_2  and  N_3
REMARK    3  A    between atoms: N_4  and  C_5
REMARK    4  A    between atoms: N_13  and  C_14
REMARK    5  A    between atoms: C_23  and  O_25
REMARK    6  A    between atoms: O_25  and  C_26
REMARK    7  A    between atoms: C_29  and  N_30
REMARK                            x       y       z     vdW  Elec       q    Type
REMARK                         _______ _______ _______ _____ _____    ______ ____
ROOT
ATOM      1  C   UNL     1       1.874   6.228  20.373  0.00  0.00    +0.000 A 
ATOM      2  C   UNL     1       0.967   5.246  20.770  0.00  0.00    +0.000 A 
ATOM      3  C   UNL     1       0.986   3.980  20.171  0.00  0.00    +0.000 A 
ATOM      4  C   UNL     1       1.894   3.652  19.174  0.00  0.00    +0.000 A 
ATOM      5  N   UNL     1       1.837   2.428  18.644  0.00  0.00    +0.000 NA
ATOM      6  C   UNL     1       2.717   2.153  17.678  0.00  0.00    +0.000 A 
ATOM      7  N   UNL     1       3.653   2.982  17.212  0.00  0.00    +0.000 NA
ATOM      8  C   UNL     1       3.715   4.210  17.760  0.00  0.00    +0.000 A 
ATOM      9  N   UNL     1       4.730   5.100  17.302  0.00  0.00    +0.000 N 
ATOM     10  C   UNL     1       2.823   4.620  18.766  0.00  0.00    +0.000 A 
ATOM     11  C   UNL     1       2.788   5.908  19.362  0.00  0.00    +0.000 A 
ATOM     12  H   UNL     1       5.302   5.381  18.092  0.00  0.00    +0.000 HD
ENDROOT
BRANCH   9  13
ATOM     13  C   UNL     1       5.505   4.871  16.137  0.00  0.00    +0.000 A 
ATOM     14  C   UNL     1       6.869   5.202  16.113  0.00  0.00    +0.000 A 
ATOM     15  C   UNL     1       7.630   5.053  14.952  0.00  0.00    +0.000 A 
ATOM     16  C   UNL     1       7.035   4.556  13.796  0.00  0.00    +0.000 A 
ATOM     17  C   UNL     1       5.690   4.192  13.819  0.00  0.00    +0.000 A 
ATOM     18 CL   UNL     1       4.957   3.580  12.385  0.00  0.00    +0.000 Cl
ATOM     19  C   UNL     1       4.926   4.334  14.982  0.00  0.00    +0.000 A 
ENDBRANCH   9  13
BRANCH   1  21
ATOM     20  N   UNL     1       0.775   8.002  21.133  0.00  0.00    +0.000 NA
ATOM     21  N   UNL     1       1.904   7.539  20.883  0.00  0.00    +0.000 NA
BRANCH  20  23
ATOM     22  C   UNL     1       1.035   9.421  23.158  0.00  0.00    +0.000 C 
ATOM     23  N   UNL     1       0.808   9.234  21.740  0.00  0.00    +0.000 N 
ATOM     24  C   UNL     1       0.771  10.371  20.936  0.00  0.00    +0.000 C 
ATOM     25  O   UNL     1       0.792  11.516  21.378  0.00  0.00    +0.000 OA
BRANCH  24  26
ATOM     26  O   UNL     1       0.750  10.061  19.576  0.00  0.00    +0.000 OA
BRANCH  26  27
ATOM     27  C   UNL     1      -0.361  10.385  18.769  0.00  0.00    +0.000 A 
ATOM     28  C   UNL     1      -1.154  11.420  19.274  0.00  0.00    +0.000 A 
ATOM     29  C   UNL     1      -2.366  11.736  18.656  0.00  0.00    +0.000 A 
ATOM     30  C   UNL     1      -2.768  11.018  17.523  0.00  0.00    +0.000 A 
ATOM     31  C   UNL     1      -1.955  10.007  16.993  0.00  0.00    +0.000 A 
ATOM     32  C   UNL     1      -0.745   9.693  17.620  0.00  0.00    +0.000 A 
BRANCH  30  33
ATOM     33  N   UNL     1      -4.063  11.309  16.897  0.00  0.00    +0.000 N 
ATOM     34  O   UNL     1      -4.880  11.974  17.548  0.00  0.00    +0.000 OA
ATOM     35  O   UNL     1      -4.266  10.866  15.758  0.00  0.00    +0.000 OA
ENDBRANCH  30  33
ENDBRANCH  26  27
ENDBRANCH  24  26
ENDBRANCH  20  23
ENDBRANCH   1  21
TORSDOF 6
ENDMDL
MODEL 8
REMARK VINA RESULT:      -8.2      1.143      1.478
REMARK  Name = 
REMARK  7 active torsions:
REMARK  status: ('A' for Active; 'I' for Inactive)
REMARK    1  A    between atoms: C_1  and  N_2
REMARK    2  A    between atoms: N_2  and  N_3
REMARK    3  A    between atoms: N_4  and  C_5
REMARK    4  A    between atoms: N_13  and  C_14
REMARK    5  A    between atoms: C_23  and  O_25
REMARK    6  A    between atoms: O_25  and  C_26
REMARK    7  A    between atoms: C_29  and  N_30
REMARK                            x       y       z     vdW  Elec       q    Type
REMARK                         _______ _______ _______ _____ _____    ______ ____
ROOT
ATOM      1  C   UNL     1       1.532   8.902  19.051  0.00  0.00    +0.000 A 
ATOM      2  C   UNL     1       2.240   9.497  18.007  0.00  0.00    +0.000 A 
ATOM      3  C   UNL     1       2.189  10.885  17.816  0.00  0.00    +0.000 A 
ATOM      4  C   UNL     1       1.445  11.713  18.645  0.00  0.00    +0.000 A 
ATOM      5  N   UNL     1       1.437  13.023  18.388  0.00  0.00    +0.000 NA
ATOM      6  C   UNL     1       0.700  13.787  19.197  0.00  0.00    +0.000 A 
ATOM      7  N   UNL     1      -0.010  13.362  20.244  0.00  0.00    +0.000 NA
ATOM      8  C   UNL     1       0.014  12.042  20.508  0.00  0.00    +0.000 A 
ATOM      9  N   UNL     1      -0.709  11.571  21.643  0.00  0.00    +0.000 N 
ATOM     10  C   UNL     1       0.734  11.138  19.708  0.00  0.00    +0.000 A 
ATOM     11  C   UNL     1       0.773   9.730  19.886  0.00  0.00    +0.000 A 
ATOM     12  H   UNL     1      -0.067  11.089  22.265  0.00  0.00    +0.000 HD
ENDROOT
BRANCH   9  13
ATOM     13  C   UNL     1      -1.651  12.356  22.352  0.00  0.00    +0.000 A 
ATOM     14  C   UNL     1      -3.019  12.277  22.045  0.00  0.00    +0.000 A 
ATOM     15  C   UNL     1      -3.953  13.096  22.682  0.00  0.00    +0.000 A 
ATOM     16  C   UNL     1      -3.530  14.002  23.650  0.00  0.00    +0.000 A 
ATOM     17  C   UNL     1      -2.179  14.064  23.987  0.00  0.00    +0.000 A 
ATOM     18 CL   UNL     1      -1.659  15.189  25.183  0.00  0.00    +0.000 Cl
ATOM     19  C   UNL     1      -1.242  13.241  23.356  0.00  0.00    +0.000 A 
ENDBRANCH   9  13
BRANCH   1  21
ATOM     20  N   UNL     1       2.566   7.046  19.697  0.00  0.00    +0.000 NA
ATOM     21  N   UNL     1       1.486   7.517  19.295  0.00  0.00    +0.000 NA
BRANCH  20  23
ATOM     22  C   UNL     1       1.257   5.060  20.421  0.00  0.00    +0.000 C 
ATOM     23  N   UNL     1       2.491   5.720  20.050  0.00  0.00    +0.000 N 
ATOM     24  C   UNL     1       3.627   4.928  19.899  0.00  0.00    +0.000 C 
ATOM     25  O   UNL     1       3.667   3.735  20.187  0.00  0.00    +0.000 OA
BRANCH  24  26
ATOM     26  O   UNL     1       4.698   5.632  19.348  0.00  0.00    +0.000 OA
BRANCH  26  27
ATOM     27  C   UNL     1       5.160   5.357  18.043  0.00  0.00    +0.000 A 
ATOM     28  C   UNL     1       6.430   4.773  17.996  0.00  0.00    +0.000 A 
ATOM     29  C   UNL     1       7.069   4.591  16.767  0.00  0.00    +0.000 A 
ATOM     30  C   UNL     1       6.421   4.984  15.590  0.00  0.00    +0.000 A 
ATOM     31  C   UNL     1       5.132   5.533  15.634  0.00  0.00    +0.000 A 
ATOM     32  C   UNL     1       4.500   5.717  16.867  0.00  0.00    +0.000 A 
BRANCH  30  33
ATOM     33  N   UNL     1       7.105   4.843  14.299  0.00  0.00    +0.000 N 
ATOM     34  O   UNL     1       6.660   4.007  13.500  0.00  0.00    +0.000 OA
ATOM     35  O   UNL     1       8.092   5.562  14.088  0.00  0.00    +0.000 OA
ENDBRANCH  30  33
ENDBRANCH  26  27
ENDBRANCH  24  26
ENDBRANCH  20  23
ENDBRANCH   1  21
TORSDOF 6
ENDMDL
MODEL 9
REMARK VINA RESULT:      -8.2      1.144      1.334
REMARK  Name = 
REMARK  7 active torsions:
REMARK  status: ('A' for Active; 'I' for Inactive)
REMARK    1  A    between atoms: C_1  and  N_2
REMARK    2  A    between atoms: N_2  and  N_3
REMARK    3  A    between atoms: N_4  and  C_5
REMARK    4  A    between atoms: N_13  and  C_14
REMARK    5  A    between atoms: C_23  and  O_25
REMARK    6  A    between atoms: O_25  and  C_26
REMARK    7  A    between atoms: C_29  and  N_30
REMARK                            x       y       z     vdW  Elec       q    Type
REMARK                         _______ _______ _______ _____ _____    ______ ____
ROOT
ATOM      1  C   UNL     1       1.515   8.719  19.369  0.00  0.00    +0.000 A 
ATOM      2  C   UNL     1       2.272   9.270  18.334  0.00  0.00    +0.000 A 
ATOM      3  C   UNL     1       2.145  10.626  18.006  0.00  0.00    +0.000 A 
ATOM      4  C   UNL     1       1.276  11.468  18.686  0.00  0.00    +0.000 A 
ATOM      5  N   UNL     1       1.203  12.744  18.302  0.00  0.00    +0.000 NA
ATOM      6  C   UNL     1       0.346  13.521  18.969  0.00  0.00    +0.000 A 
ATOM      7  N   UNL     1      -0.425  13.141  19.990  0.00  0.00    +0.000 NA
ATOM      8  C   UNL     1      -0.336  11.856  20.382  0.00  0.00    +0.000 A 
ATOM      9  N   UNL     1      -1.125  11.436  21.493  0.00  0.00    +0.000 N 
ATOM     10  C   UNL     1       0.513  10.940  19.737  0.00  0.00    +0.000 A 
ATOM     11  C   UNL     1       0.629   9.561  20.053  0.00  0.00    +0.000 A 
ATOM     12  H   UNL     1      -0.511  11.064  22.210  0.00  0.00    +0.000 HD
ENDROOT
BRANCH   9  13
ATOM     13  C   UNL     1      -2.178  12.209  22.042  0.00  0.00    +0.000 A 
ATOM     14  C   UNL     1      -2.120  12.649  23.373  0.00  0.00    +0.000 A 
ATOM     15  C   UNL     1      -3.180  13.348  23.953  0.00  0.00    +0.000 A 
ATOM     16  C   UNL     1      -4.316  13.628  23.199  0.00  0.00    +0.000 A 
ATOM     17  C   UNL     1      -4.371  13.226  21.866  0.00  0.00    +0.000 A 
ATOM     18 CL   UNL     1      -5.780  13.571  20.937  0.00  0.00    +0.000 Cl
ATOM     19  C   UNL     1      -3.308  12.531  21.281  0.00  0.00    +0.000 A 
ENDBRANCH   9  13
BRANCH   1  21
ATOM     20  N   UNL     1       2.568   6.765  19.374  0.00  0.00    +0.000 NA
ATOM     21  N   UNL     1       1.540   7.363  19.742  0.00  0.00    +0.000 NA
BRANCH  20  23
ATOM     22  C   UNL     1       1.498   4.697  20.248  0.00  0.00    +0.000 C 
ATOM     23  N   UNL     1       2.650   5.474  19.839  0.00  0.00    +0.000 N 
ATOM     24  C   UNL     1       3.879   4.822  19.774  0.00  0.00    +0.000 C 
ATOM     25  O   UNL     1       4.060   3.672  20.165  0.00  0.00    +0.000 OA
BRANCH  24  26
ATOM     26  O   UNL     1       4.868   5.607  19.179  0.00  0.00    +0.000 OA
BRANCH  26  27
ATOM     27  C   UNL     1       5.286   5.374  17.851  0.00  0.00    +0.000 A 
ATOM     28  C   UNL     1       6.484   4.663  17.743  0.00  0.00    +0.000 A 
ATOM     29  C   UNL     1       7.089   4.499  16.495  0.00  0.00    +0.000 A 
ATOM     30  C   UNL     1       6.476   5.039  15.358  0.00  0.00    +0.000 A 
ATOM     31  C   UNL     1       5.254   5.719  15.461  0.00  0.00    +0.000 A 
ATOM     32  C   UNL     1       4.657   5.883  16.714  0.00  0.00    +0.000 A 
BRANCH  30  33
ATOM     33  N   UNL     1       7.129   4.915  14.050  0.00  0.00    +0.000 N 
ATOM     34  O   UNL     1       6.650   4.108  13.241  0.00  0.00    +0.000 OA
ATOM     35  O   UNL     1       8.125   5.619  13.833  0.00  0.00    +0.000 OA
ENDBRANCH  30  33
ENDBRANCH  26  27
ENDBRANCH  24  26
ENDBRANCH  20  23
ENDBRANCH   1  21
TORSDOF 6
ENDMDL
