MODEL 1
REMARK VINA RESULT:      -8.0      0.000      0.000
REMARK  Name = 
REMARK  12 active torsions:
REMARK  status: ('A' for Active; 'I' for Inactive)
REMARK    1  A    between atoms: C_1  and  C_2
REMARK    2  A    between atoms: C_2  and  C_3
REMARK    3  A    between atoms: C_2  and  O_4
REMARK    4  A    between atoms: O_4  and  C_5
REMARK    5  A    between atoms: N_7  and  C_8
REMARK    6  A    between atoms: C_14  and  N_15
REMARK    7  A    between atoms: N_15  and  C_16
REMARK    8  A    between atoms: C_16  and  N_18
REMARK    9  A    between atoms: N_18  and  C_19
REMARK   10  A    between atoms: C_23  and  C_24
REMARK   11  A    between atoms: C_28  and  C_29
REMARK   12  A    between atoms: C_28  and  C_30
REMARK                            x       y       z     vdW  Elec       q    Type
REMARK                         _______ _______ _______ _____ _____    ______ ____
ROOT
ATOM      1  C   UNL     1       4.677   4.572  16.792  0.00  0.00    +0.000 A 
ATOM      2  C   UNL     1       4.790   3.217  17.110  0.00  0.00    +0.000 A 
ATOM      3  C   UNL     1       4.093   2.671  18.179  0.00  0.00    +0.000 A 
ATOM      4  C   UNL     1       3.274   3.473  18.959  0.00  0.00    +0.000 A 
ATOM      5  C   UNL     1       3.177   4.852  18.720  0.00  0.00    +0.000 A 
ATOM      6  C   UNL     1       3.895   5.395  17.624  0.00  0.00    +0.000 A 
ATOM      7  C   UNL     1       2.207   5.667  19.558  0.00  0.00    +0.000 C 
ATOM      8  C   UNL     1       1.958   4.943  20.888  0.00  0.00    +0.000 C 
ATOM      9  C   UNL     1       1.559   3.485  20.622  0.00  0.00    +0.000 C 
ATOM     10  C   UNL     1       1.379   2.744  21.954  0.00  0.00    +0.000 C 
ATOM     11  C   UNL     1       0.256   3.340  19.816  0.00  0.00    +0.000 C 
ATOM     12  O   UNL     1       2.609   2.792  19.939  0.00  0.00    +0.000 OA
ENDROOT
BRANCH   1  15
ATOM     13  C   UNL     1       6.670   5.100  15.423  0.00  0.00    +0.000 C 
ATOM     14  O   UNL     1       7.523   4.598  16.145  0.00  0.00    +0.000 OA
ATOM     15  N   UNL     1       5.311   5.116  15.650  0.00  0.00    +0.000 N 
ATOM     16  H   UNL     1       4.750   5.428  14.870  0.00  0.00    +0.000 HD
BRANCH  13  17
ATOM     17  O   UNL     1       6.978   5.687  14.226  0.00  0.00    +0.000 OA
BRANCH  17  19
ATOM     18  C   UNL     1       6.247   3.763  12.936  0.00  0.00    +0.000 C 
ATOM     19  C   UNL     1       7.390   4.738  13.213  0.00  0.00    +0.000 C 
ATOM     20  C   UNL     1       7.774   5.482  11.942  0.00  0.00    +0.000 C 
ENDBRANCH  17  19
ENDBRANCH  13  17
ENDBRANCH   1  15
BRANCH   7  21
ATOM     21  N   UNL     1       2.630   7.057  19.741  0.00  0.00    +0.000 N 
ATOM     22  H   UNL     1       3.597   7.202  20.006  0.00  0.00    +0.000 HD
BRANCH  21  23
ATOM     23  C   UNL     1       1.795   8.143  19.973  0.00  0.00    +0.000 C 
ATOM     24  S   UNL     1       1.038   8.498  21.425  0.00  0.00    +0.000 S 
BRANCH  23  25
ATOM     25  N   UNL     1       1.551   8.808  18.779  0.00  0.00    +0.000 N 
ATOM     26  H   UNL     1       1.486   8.172  17.993  0.00  0.00    +0.000 HD
BRANCH  25  27
ATOM     27  C   UNL     1       0.917  10.057  18.617  0.00  0.00    +0.000 A 
ATOM     28  C   UNL     1       1.680  11.225  18.744  0.00  0.00    +0.000 A 
ATOM     29  C   UNL     1       1.069  12.479  18.658  0.00  0.00    +0.000 A 
ATOM     30  C   UNL     1      -0.310  12.572  18.468  0.00  0.00    +0.000 A 
ATOM     31  C   UNL     1      -1.078  11.410  18.353  0.00  0.00    +0.000 A 
ATOM     32  C   UNL     1      -0.464  10.157  18.423  0.00  0.00    +0.000 A 
BRANCH  31  33
ATOM     33  C   UNL     1      -2.496  11.501  18.188  0.00  0.00    +0.000 C 
ATOM     34  N   UNL     1      -3.646  11.562  18.041  0.00  0.00    +0.000 NA
ENDBRANCH  31  33
ENDBRANCH  25  27
ENDBRANCH  23  25
ENDBRANCH  21  23
ENDBRANCH   7  21
TORSDOF 8
ENDMDL
MODEL 2
REMARK VINA RESULT:      -8.0      1.920      2.221
REMARK  Name = 
REMARK  12 active torsions:
REMARK  status: ('A' for Active; 'I' for Inactive)
REMARK    1  A    between atoms: C_1  and  C_2
REMARK    2  A    between atoms: C_2  and  C_3
REMARK    3  A    between atoms: C_2  and  O_4
REMARK    4  A    between atoms: O_4  and  C_5
REMARK    5  A    between atoms: N_7  and  C_8
REMARK    6  A    between atoms: C_14  and  N_15
REMARK    7  A    between atoms: N_15  and  C_16
REMARK    8  A    between atoms: C_16  and  N_18
REMARK    9  A    between atoms: N_18  and  C_19
REMARK   10  A    between atoms: C_23  and  C_24
REMARK   11  A    between atoms: C_28  and  C_29
REMARK   12  A    between atoms: C_28  and  C_30
REMARK                            x       y       z     vdW  Elec       q    Type
REMARK                         _______ _______ _______ _____ _____    ______ ____
ROOT
ATOM      1  C   UNL     1       4.624   4.355  16.824  0.00  0.00    +0.000 A 
ATOM      2  C   UNL     1       4.696   2.985  17.086  0.00  0.00    +0.000 A 
ATOM      3  C   UNL     1       4.008   2.423  18.153  0.00  0.00    +0.000 A 
ATOM      4  C   UNL     1       3.240   3.222  18.986  0.00  0.00    +0.000 A 
ATOM      5  C   UNL     1       3.187   4.612  18.802  0.00  0.00    +0.000 A 
ATOM      6  C   UNL     1       3.896   5.172  17.709  0.00  0.00    +0.000 A 
ATOM      7  C   UNL     1       2.270   5.427  19.698  0.00  0.00    +0.000 C 
ATOM      8  C   UNL     1       2.030   4.660  21.006  0.00  0.00    +0.000 C 
ATOM      9  C   UNL     1       1.571   3.229  20.694  0.00  0.00    +0.000 C 
ATOM     10  C   UNL     1       1.400   2.443  22.002  0.00  0.00    +0.000 C 
ATOM     11  C   UNL     1       0.243   3.162  19.921  0.00  0.00    +0.000 C 
ATOM     12  O   UNL     1       2.577   2.527  19.956  0.00  0.00    +0.000 OA
ENDROOT
BRANCH   1  15
ATOM     13  C   UNL     1       6.605   5.113  15.548  0.00  0.00    +0.000 C 
ATOM     14  O   UNL     1       7.471   4.804  16.358  0.00  0.00    +0.000 OA
ATOM     15  N   UNL     1       5.247   4.921  15.686  0.00  0.00    +0.000 N 
ATOM     16  H   UNL     1       4.704   5.086  14.852  0.00  0.00    +0.000 HD
BRANCH  13  17
ATOM     17  O   UNL     1       6.904   5.664  14.332  0.00  0.00    +0.000 OA
BRANCH  17  19
ATOM     18  C   UNL     1       6.308   3.693  13.046  0.00  0.00    +0.000 C 
ATOM     19  C   UNL     1       7.407   4.701  13.375  0.00  0.00    +0.000 C 
ATOM     20  C   UNL     1       7.863   5.422  12.115  0.00  0.00    +0.000 C 
ENDBRANCH  17  19
ENDBRANCH  13  17
ENDBRANCH   1  15
BRANCH   7  21
ATOM     21  N   UNL     1       2.748   6.793  19.923  0.00  0.00    +0.000 N 
ATOM     22  H   UNL     1       3.644   6.885  20.387  0.00  0.00    +0.000 HD
BRANCH  21  23
ATOM     23  C   UNL     1       1.969   7.942  19.931  0.00  0.00    +0.000 C 
ATOM     24  S   UNL     1       1.659   8.919  18.606  0.00  0.00    +0.000 S 
BRANCH  23  25
ATOM     25  N   UNL     1       1.610   8.255  21.236  0.00  0.00    +0.000 N 
ATOM     26  H   UNL     1       2.258   7.870  21.913  0.00  0.00    +0.000 HD
BRANCH  25  27
ATOM     27  C   UNL     1       0.852   9.364  21.666  0.00  0.00    +0.000 A 
ATOM     28  C   UNL     1      -0.034   9.202  22.738  0.00  0.00    +0.000 A 
ATOM     29  C   UNL     1      -0.849  10.263  23.144  0.00  0.00    +0.000 A 
ATOM     30  C   UNL     1      -0.799  11.481  22.465  0.00  0.00    +0.000 A 
ATOM     31  C   UNL     1       0.075  11.643  21.387  0.00  0.00    +0.000 A 
ATOM     32  C   UNL     1       0.901  10.587  20.992  0.00  0.00    +0.000 A 
BRANCH  31  33
ATOM     33  C   UNL     1       0.107  12.880  20.669  0.00  0.00    +0.000 C 
ATOM     34  N   UNL     1       0.116  13.887  20.091  0.00  0.00    +0.000 NA
ENDBRANCH  31  33
ENDBRANCH  25  27
ENDBRANCH  23  25
ENDBRANCH  21  23
ENDBRANCH   7  21
TORSDOF 8
ENDMDL
MODEL 3
REMARK VINA RESULT:      -7.9      1.116      1.607
REMARK  Name = 
REMARK  12 active torsions:
REMARK  status: ('A' for Active; 'I' for Inactive)
REMARK    1  A    between atoms: C_1  and  C_2
REMARK    2  A    between atoms: C_2  and  C_3
REMARK    3  A    between atoms: C_2  and  O_4
REMARK    4  A    between atoms: O_4  and  C_5
REMARK    5  A    between atoms: N_7  and  C_8
REMARK    6  A    between atoms: C_14  and  N_15
REMARK    7  A    between atoms: N_15  and  C_16
REMARK    8  A    between atoms: C_16  and  N_18
REMARK    9  A    between atoms: N_18  and  C_19
REMARK   10  A    between atoms: C_23  and  C_24
REMARK   11  A    between atoms: C_28  and  C_29
REMARK   12  A    between atoms: C_28  and  C_30
REMARK                            x       y       z     vdW  Elec       q    Type
REMARK                         _______ _______ _______ _____ _____    ______ ____
ROOT
ATOM      1  C   UNL     1       4.656   4.540  16.758  0.00  0.00    +0.000 A 
ATOM      2  C   UNL     1       4.768   3.185  17.076  0.00  0.00    +0.000 A 
ATOM      3  C   UNL     1       4.082   2.642  18.152  0.00  0.00    +0.000 A 
ATOM      4  C   UNL     1       3.274   3.447  18.942  0.00  0.00    +0.000 A 
ATOM      5  C   UNL     1       3.180   4.826  18.703  0.00  0.00    +0.000 A 
ATOM      6  C   UNL     1       3.887   5.367  17.599  0.00  0.00    +0.000 A 
ATOM      7  C   UNL     1       2.222   5.644  19.552  0.00  0.00    +0.000 C 
ATOM      8  C   UNL     1       1.986   4.921  20.886  0.00  0.00    +0.000 C 
ATOM      9  C   UNL     1       1.579   3.465  20.624  0.00  0.00    +0.000 C 
ATOM     10  C   UNL     1       1.411   2.725  21.959  0.00  0.00    +0.000 C 
ATOM     11  C   UNL     1       0.266   3.325  19.833  0.00  0.00    +0.000 C 
ATOM     12  O   UNL     1       2.618   2.768  19.929  0.00  0.00    +0.000 OA
ENDROOT
BRANCH   1  15
ATOM     13  C   UNL     1       6.634   5.051  15.362  0.00  0.00    +0.000 C 
ATOM     14  O   UNL     1       7.493   4.536  16.068  0.00  0.00    +0.000 OA
ATOM     15  N   UNL     1       5.279   5.082  15.609  0.00  0.00    +0.000 N 
ATOM     16  H   UNL     1       4.711   5.403  14.839  0.00  0.00    +0.000 HD
BRANCH  13  17
ATOM     17  O   UNL     1       6.931   5.639  14.163  0.00  0.00    +0.000 OA
BRANCH  17  19
ATOM     18  C   UNL     1       6.275   3.713  12.838  0.00  0.00    +0.000 C 
ATOM     19  C   UNL     1       7.394   4.700  13.163  0.00  0.00    +0.000 C 
ATOM     20  C   UNL     1       7.821   5.454  11.911  0.00  0.00    +0.000 C 
ENDBRANCH  17  19
ENDBRANCH  13  17
ENDBRANCH   1  15
BRANCH   7  21
ATOM     21  N   UNL     1       2.652   7.034  19.731  0.00  0.00    +0.000 N 
ATOM     22  H   UNL     1       3.630   7.176  19.954  0.00  0.00    +0.000 HD
BRANCH  21  23
ATOM     23  C   UNL     1       1.828   8.116  20.009  0.00  0.00    +0.000 C 
ATOM     24  S   UNL     1       1.077   8.418  21.476  0.00  0.00    +0.000 S 
BRANCH  23  25
ATOM     25  N   UNL     1       1.587   8.832  18.843  0.00  0.00    +0.000 N 
ATOM     26  H   UNL     1       1.684   8.257  18.015  0.00  0.00    +0.000 HD
BRANCH  25  27
ATOM     27  C   UNL     1       0.789   9.987  18.706  0.00  0.00    +0.000 A 
ATOM     28  C   UNL     1      -0.524   9.849  18.240  0.00  0.00    +0.000 A 
ATOM     29  C   UNL     1      -1.318  10.981  18.028  0.00  0.00    +0.000 A 
ATOM     30  C   UNL     1      -0.795  12.254  18.257  0.00  0.00    +0.000 A 
ATOM     31  C   UNL     1       0.519  12.396  18.710  0.00  0.00    +0.000 A 
ATOM     32  C   UNL     1       1.307  11.264  18.937  0.00  0.00    +0.000 A 
BRANCH  31  33
ATOM     33  C   UNL     1       1.069  13.700  18.918  0.00  0.00    +0.000 C 
ATOM     34  N   UNL     1       1.498  14.766  19.091  0.00  0.00    +0.000 NA
ENDBRANCH  31  33
ENDBRANCH  25  27
ENDBRANCH  23  25
ENDBRANCH  21  23
ENDBRANCH   7  21
TORSDOF 8
ENDMDL
MODEL 4
REMARK VINA RESULT:      -7.7      6.223     11.113
REMARK  Name = 
REMARK  12 active torsions:
REMARK  status: ('A' for Active; 'I' for Inactive)
REMARK    1  A    between atoms: C_1  and  C_2
REMARK    2  A    between atoms: C_2  and  C_3
REMARK    3  A    between atoms: C_2  and  O_4
REMARK    4  A    between atoms: O_4  and  C_5
REMARK    5  A    between atoms: N_7  and  C_8
REMARK    6  A    between atoms: C_14  and  N_15
REMARK    7  A    between atoms: N_15  and  C_16
REMARK    8  A    between atoms: C_16  and  N_18
REMARK    9  A    between atoms: N_18  and  C_19
REMARK   10  A    between atoms: C_23  and  C_24
REMARK   11  A    between atoms: C_28  and  C_29
REMARK   12  A    between atoms: C_28  and  C_30
REMARK                            x       y       z     vdW  Elec       q    Type
REMARK                         _______ _______ _______ _____ _____    ______ ____
ROOT
ATOM      1  C   UNL     1      -2.697  12.696  21.746  0.00  0.00    +0.000 A 
ATOM      2  C   UNL     1      -1.856  11.926  22.553  0.00  0.00    +0.000 A 
ATOM      3  C   UNL     1      -0.857  11.137  21.999  0.00  0.00    +0.000 A 
ATOM      4  C   UNL     1      -0.684  11.095  20.624  0.00  0.00    +0.000 A 
ATOM      5  C   UNL     1      -1.543  11.801  19.768  0.00  0.00    +0.000 A 
ATOM      6  C   UNL     1      -2.559  12.602  20.348  0.00  0.00    +0.000 A 
ATOM      7  C   UNL     1      -1.258  11.778  18.276  0.00  0.00    +0.000 C 
ATOM      8  C   UNL     1      -0.447  10.520  17.936  0.00  0.00    +0.000 C 
ATOM      9  C   UNL     1       0.777  10.424  18.858  0.00  0.00    +0.000 C 
ATOM     10  C   UNL     1       1.547   9.129  18.563  0.00  0.00    +0.000 C 
ATOM     11  C   UNL     1       1.753  11.604  18.710  0.00  0.00    +0.000 C 
ATOM     12  O   UNL     1       0.370  10.323  20.226  0.00  0.00    +0.000 OA
ENDROOT
BRANCH   1  15
ATOM     13  C   UNL     1      -4.964  13.237  22.576  0.00  0.00    +0.000 C 
ATOM     14  O   UNL     1      -5.485  12.141  22.405  0.00  0.00    +0.000 OA
ATOM     15  N   UNL     1      -3.656  13.573  22.307  0.00  0.00    +0.000 N 
ATOM     16  H   UNL     1      -3.361  14.470  22.663  0.00  0.00    +0.000 HD
BRANCH  13  17
ATOM     17  O   UNL     1      -5.641  14.289  23.131  0.00  0.00    +0.000 OA
BRANCH  17  19
ATOM     18  C   UNL     1      -7.909  14.551  23.958  0.00  0.00    +0.000 C 
ATOM     19  C   UNL     1      -7.029  14.355  22.725  0.00  0.00    +0.000 C 
ATOM     20  C   UNL     1      -7.222  15.503  21.745  0.00  0.00    +0.000 C 
ENDBRANCH  17  19
ENDBRANCH  13  17
ENDBRANCH   1  15
BRANCH   7  21
ATOM     21  N   UNL     1      -2.465  11.911  17.456  0.00  0.00    +0.000 N 
ATOM     22  H   UNL     1      -2.931  12.811  17.486  0.00  0.00    +0.000 HD
BRANCH  21  23
ATOM     23  C   UNL     1      -3.242  10.870  16.968  0.00  0.00    +0.000 C 
ATOM     24  S   UNL     1      -3.049  10.125  15.480  0.00  0.00    +0.000 S 
BRANCH  23  25
ATOM     25  N   UNL     1      -4.308  10.638  17.827  0.00  0.00    +0.000 N 
ATOM     26  H   UNL     1      -4.058  10.016  18.586  0.00  0.00    +0.000 HD
BRANCH  25  27
ATOM     27  C   UNL     1      -5.412  11.485  18.058  0.00  0.00    +0.000 A 
ATOM     28  C   UNL     1      -6.253  11.218  19.146  0.00  0.00    +0.000 A 
ATOM     29  C   UNL     1      -7.393  11.997  19.362  0.00  0.00    +0.000 A 
ATOM     30  C   UNL     1      -7.711  13.030  18.479  0.00  0.00    +0.000 A 
ATOM     31  C   UNL     1      -6.882  13.291  17.385  0.00  0.00    +0.000 A 
ATOM     32  C   UNL     1      -5.733  12.523  17.179  0.00  0.00    +0.000 A 
BRANCH  31  33
ATOM     33  C   UNL     1      -7.220  14.330  16.461  0.00  0.00    +0.000 C 
ATOM     34  N   UNL     1      -7.487  15.185  15.722  0.00  0.00    +0.000 NA
ENDBRANCH  31  33
ENDBRANCH  25  27
ENDBRANCH  23  25
ENDBRANCH  21  23
ENDBRANCH   7  21
TORSDOF 8
ENDMDL
MODEL 5
REMARK VINA RESULT:      -7.6      1.906      1.918
REMARK  Name = 
REMARK  12 active torsions:
REMARK  status: ('A' for Active; 'I' for Inactive)
REMARK    1  A    between atoms: C_1  and  C_2
REMARK    2  A    between atoms: C_2  and  C_3
REMARK    3  A    between atoms: C_2  and  O_4
REMARK    4  A    between atoms: O_4  and  C_5
REMARK    5  A    between atoms: N_7  and  C_8
REMARK    6  A    between atoms: C_14  and  N_15
REMARK    7  A    between atoms: N_15  and  C_16
REMARK    8  A    between atoms: C_16  and  N_18
REMARK    9  A    between atoms: N_18  and  C_19
REMARK   10  A    between atoms: C_23  and  C_24
REMARK   11  A    between atoms: C_28  and  C_29
REMARK   12  A    between atoms: C_28  and  C_30
REMARK                            x       y       z     vdW  Elec       q    Type
REMARK                         _______ _______ _______ _____ _____    ______ ____
ROOT
ATOM      1  C   UNL     1       4.647   4.537  16.854  0.00  0.00    +0.000 A 
ATOM      2  C   UNL     1       4.786   3.179  17.150  0.00  0.00    +0.000 A 
ATOM      3  C   UNL     1       4.122   2.609  18.228  0.00  0.00    +0.000 A 
ATOM      4  C   UNL     1       3.311   3.389  19.038  0.00  0.00    +0.000 A 
ATOM      5  C   UNL     1       3.190   4.769  18.821  0.00  0.00    +0.000 A 
ATOM      6  C   UNL     1       3.874   5.338  17.716  0.00  0.00    +0.000 A 
ATOM      7  C   UNL     1       2.230   5.559  19.693  0.00  0.00    +0.000 C 
ATOM      8  C   UNL     1       2.023   4.813  21.019  0.00  0.00    +0.000 C 
ATOM      9  C   UNL     1       1.637   3.354  20.741  0.00  0.00    +0.000 C 
ATOM     10  C   UNL     1       1.499   2.593  22.067  0.00  0.00    +0.000 C 
ATOM     11  C   UNL     1       0.317   3.203  19.965  0.00  0.00    +0.000 C 
ATOM     12  O   UNL     1       2.680   2.686  20.024  0.00  0.00    +0.000 OA
ENDROOT
BRANCH   1  15
ATOM     13  C   UNL     1       6.593   5.067  15.421  0.00  0.00    +0.000 C 
ATOM     14  O   UNL     1       7.464   4.522  16.089  0.00  0.00    +0.000 OA
ATOM     15  N   UNL     1       5.246   5.105  15.705  0.00  0.00    +0.000 N 
ATOM     16  H   UNL     1       4.661   5.455  14.960  0.00  0.00    +0.000 HD
BRANCH  13  17
ATOM     17  O   UNL     1       6.866   5.687  14.232  0.00  0.00    +0.000 OA
BRANCH  17  19
ATOM     18  C   UNL     1       6.487   3.818  12.729  0.00  0.00    +0.000 C 
ATOM     19  C   UNL     1       7.507   4.819  13.267  0.00  0.00    +0.000 C 
ATOM     20  C   UNL     1       8.084   5.653  12.132  0.00  0.00    +0.000 C 
ENDBRANCH  17  19
ENDBRANCH  13  17
ENDBRANCH   1  15
BRANCH   7  21
ATOM     21  N   UNL     1       2.638   6.953  19.886  0.00  0.00    +0.000 N 
ATOM     22  H   UNL     1       3.380   7.115  20.558  0.00  0.00    +0.000 HD
BRANCH  21  23
ATOM     23  C   UNL     1       1.890   8.077  19.563  0.00  0.00    +0.000 C 
ATOM     24  S   UNL     1       1.899   8.862  18.083  0.00  0.00    +0.000 S 
BRANCH  23  25
ATOM     25  N   UNL     1       1.250   8.556  20.700  0.00  0.00    +0.000 N 
ATOM     26  H   UNL     1       1.531   8.057  21.535  0.00  0.00    +0.000 HD
BRANCH  25  27
ATOM     27  C   UNL     1       0.727   9.850  20.898  0.00  0.00    +0.000 A 
ATOM     28  C   UNL     1       1.390  10.942  20.326  0.00  0.00    +0.000 A 
ATOM     29  C   UNL     1       0.936  12.243  20.561  0.00  0.00    +0.000 A 
ATOM     30  C   UNL     1      -0.167  12.460  21.387  0.00  0.00    +0.000 A 
ATOM     31  C   UNL     1      -0.825  11.374  21.970  0.00  0.00    +0.000 A 
ATOM     32  C   UNL     1      -0.380  10.072  21.722  0.00  0.00    +0.000 A 
BRANCH  31  33
ATOM     33  C   UNL     1      -1.938  11.593  22.841  0.00  0.00    +0.000 C 
ATOM     34  N   UNL     1      -2.838  11.755  23.557  0.00  0.00    +0.000 NA
ENDBRANCH  31  33
ENDBRANCH  25  27
ENDBRANCH  23  25
ENDBRANCH  21  23
ENDBRANCH   7  21
TORSDOF 8
ENDMDL
MODEL 6
REMARK VINA RESULT:      -7.6      1.185      1.342
REMARK  Name = 
REMARK  12 active torsions:
REMARK  status: ('A' for Active; 'I' for Inactive)
REMARK    1  A    between atoms: C_1  and  C_2
REMARK    2  A    between atoms: C_2  and  C_3
REMARK    3  A    between atoms: C_2  and  O_4
REMARK    4  A    between atoms: O_4  and  C_5
REMARK    5  A    between atoms: N_7  and  C_8
REMARK    6  A    between atoms: C_14  and  N_15
REMARK    7  A    between atoms: N_15  and  C_16
REMARK    8  A    between atoms: C_16  and  N_18
REMARK    9  A    between atoms: N_18  and  C_19
REMARK   10  A    between atoms: C_23  and  C_24
REMARK   11  A    between atoms: C_28  and  C_29
REMARK   12  A    between atoms: C_28  and  C_30
REMARK                            x       y       z     vdW  Elec       q    Type
REMARK                         _______ _______ _______ _____ _____    ______ ____
ROOT
ATOM      1  C   UNL     1       4.973   4.511  17.110  0.00  0.00    +0.000 A 
ATOM      2  C   UNL     1       5.082   3.159  17.444  0.00  0.00    +0.000 A 
ATOM      3  C   UNL     1       4.304   2.605  18.451  0.00  0.00    +0.000 A 
ATOM      4  C   UNL     1       3.406   3.395  19.152  0.00  0.00    +0.000 A 
ATOM      5  C   UNL     1       3.306   4.771  18.897  0.00  0.00    +0.000 A 
ATOM      6  C   UNL     1       4.107   5.323  17.866  0.00  0.00    +0.000 A 
ATOM      7  C   UNL     1       2.252   5.571  19.643  0.00  0.00    +0.000 C 
ATOM      8  C   UNL     1       1.900   4.848  20.951  0.00  0.00    +0.000 C 
ATOM      9  C   UNL     1       1.552   3.382  20.658  0.00  0.00    +0.000 C 
ATOM     10  C   UNL     1       1.270   2.643  21.974  0.00  0.00    +0.000 C 
ATOM     11  C   UNL     1       0.327   3.210  19.743  0.00  0.00    +0.000 C 
ATOM     12  O   UNL     1       2.670   2.706  20.073  0.00  0.00    +0.000 OA
ENDROOT
BRANCH   1  15
ATOM     13  C   UNL     1       7.063   4.998  15.878  0.00  0.00    +0.000 C 
ATOM     14  O   UNL     1       7.852   4.441  16.632  0.00  0.00    +0.000 OA
ATOM     15  N   UNL     1       5.695   5.062  16.024  0.00  0.00    +0.000 N 
ATOM     16  H   UNL     1       5.194   5.419  15.223  0.00  0.00    +0.000 HD
BRANCH  13  17
ATOM     17  O   UNL     1       7.465   5.606  14.719  0.00  0.00    +0.000 OA
BRANCH  17  19
ATOM     18  C   UNL     1       7.713   5.243  12.331  0.00  0.00    +0.000 C 
ATOM     19  C   UNL     1       6.794   5.096  13.542  0.00  0.00    +0.000 C 
ATOM     20  C   UNL     1       6.425   3.635  13.757  0.00  0.00    +0.000 C 
ENDBRANCH  17  19
ENDBRANCH  13  17
ENDBRANCH   1  15
BRANCH   7  21
ATOM     21  N   UNL     1       2.632   6.970  19.855  0.00  0.00    +0.000 N 
ATOM     22  H   UNL     1       3.219   7.159  20.659  0.00  0.00    +0.000 HD
BRANCH  21  23
ATOM     23  C   UNL     1       1.985   8.082  19.333  0.00  0.00    +0.000 C 
ATOM     24  S   UNL     1       2.313   8.796  17.853  0.00  0.00    +0.000 S 
BRANCH  23  25
ATOM     25  N   UNL     1       1.130   8.617  20.289  0.00  0.00    +0.000 N 
ATOM     26  H   UNL     1       1.313   8.248  21.214  0.00  0.00    +0.000 HD
BRANCH  25  27
ATOM     27  C   UNL     1       0.474   9.864  20.238  0.00  0.00    +0.000 A 
ATOM     28  C   UNL     1       0.914  10.895  21.077  0.00  0.00    +0.000 A 
ATOM     29  C   UNL     1       0.242  12.120  21.100  0.00  0.00    +0.000 A 
ATOM     30  C   UNL     1      -0.887  12.313  20.303  0.00  0.00    +0.000 A 
ATOM     31  C   UNL     1      -1.337  11.283  19.473  0.00  0.00    +0.000 A 
ATOM     32  C   UNL     1      -0.655  10.064  19.439  0.00  0.00    +0.000 A 
BRANCH  31  33
ATOM     33  C   UNL     1      -2.511  11.466  18.676  0.00  0.00    +0.000 C 
ATOM     34  N   UNL     1      -3.473  11.623  18.044  0.00  0.00    +0.000 NA
ENDBRANCH  31  33
ENDBRANCH  25  27
ENDBRANCH  23  25
ENDBRANCH  21  23
ENDBRANCH   7  21
TORSDOF 8
ENDMDL
MODEL 7
REMARK VINA RESULT:      -7.3      3.421      4.177
REMARK  Name = 
REMARK  12 active torsions:
REMARK  status: ('A' for Active; 'I' for Inactive)
REMARK    1  A    between atoms: C_1  and  C_2
REMARK    2  A    between atoms: C_2  and  C_3
REMARK    3  A    between atoms: C_2  and  O_4
REMARK    4  A    between atoms: O_4  and  C_5
REMARK    5  A    between atoms: N_7  and  C_8
REMARK    6  A    between atoms: C_14  and  N_15
REMARK    7  A    between atoms: N_15  and  C_16
REMARK    8  A    between atoms: C_16  and  N_18
REMARK    9  A    between atoms: N_18  and  C_19
REMARK   10  A    between atoms: C_23  and  C_24
REMARK   11  A    between atoms: C_28  and  C_29
REMARK   12  A    between atoms: C_28  and  C_30
REMARK                            x       y       z     vdW  Elec       q    Type
REMARK                         _______ _______ _______ _____ _____    ______ ____
ROOT
ATOM      1  C   UNL     1       6.710   6.893  17.456  0.00  0.00    +0.000 A 
ATOM      2  C   UNL     1       7.288   5.663  17.136  0.00  0.00    +0.000 A 
ATOM      3  C   UNL     1       6.610   4.473  17.358  0.00  0.00    +0.000 A 
ATOM      4  C   UNL     1       5.339   4.488  17.914  0.00  0.00    +0.000 A 
ATOM      5  C   UNL     1       4.742   5.693  18.311  0.00  0.00    +0.000 A 
ATOM      6  C   UNL     1       5.447   6.901  18.079  0.00  0.00    +0.000 A 
ATOM      7  C   UNL     1       3.320   5.656  18.844  0.00  0.00    +0.000 C 
ATOM      8  C   UNL     1       3.024   4.254  19.397  0.00  0.00    +0.000 C 
ATOM      9  C   UNL     1       3.379   3.194  18.345  0.00  0.00    +0.000 C 
ATOM     10  C   UNL     1       3.149   1.791  18.925  0.00  0.00    +0.000 C 
ATOM     11  C   UNL     1       2.558   3.314  17.049  0.00  0.00    +0.000 C 
ATOM     12  O   UNL     1       4.772   3.250  18.023  0.00  0.00    +0.000 OA
ENDROOT
BRANCH   1  15
ATOM     13  C   UNL     1       8.267   8.748  17.965  0.00  0.00    +0.000 C 
ATOM     14  O   UNL     1       8.674   8.350  19.050  0.00  0.00    +0.000 OA
ATOM     15  N   UNL     1       7.356   8.113  17.148  0.00  0.00    +0.000 N 
ATOM     16  H   UNL     1       7.265   8.505  16.223  0.00  0.00    +0.000 HD
BRANCH  13  17
ATOM     17  O   UNL     1       8.731   9.899  17.388  0.00  0.00    +0.000 OA
BRANCH  17  19
ATOM     18  C   UNL     1      10.273  11.188  18.751  0.00  0.00    +0.000 C 
ATOM     19  C   UNL     1       8.820  11.008  18.314  0.00  0.00    +0.000 C 
ATOM     20  C   UNL     1       8.304  12.275  17.646  0.00  0.00    +0.000 C 
ENDBRANCH  17  19
ENDBRANCH  13  17
ENDBRANCH   1  15
BRANCH   7  21
ATOM     21  N   UNL     1       3.039   6.717  19.814  0.00  0.00    +0.000 N 
ATOM     22  H   UNL     1       3.314   6.534  20.773  0.00  0.00    +0.000 HD
BRANCH  21  23
ATOM     23  C   UNL     1       2.118   7.744  19.660  0.00  0.00    +0.000 C 
ATOM     24  S   UNL     1       1.992   8.749  18.325  0.00  0.00    +0.000 S 
BRANCH  23  25
ATOM     25  N   UNL     1       1.415   7.924  20.845  0.00  0.00    +0.000 N 
ATOM     26  H   UNL     1       1.812   7.392  21.609  0.00  0.00    +0.000 HD
BRANCH  25  27
ATOM     27  C   UNL     1       0.635   9.042  21.208  0.00  0.00    +0.000 A 
ATOM     28  C   UNL     1       0.383   9.278  22.565  0.00  0.00    +0.000 A 
ATOM     29  C   UNL     1      -0.443  10.337  22.953  0.00  0.00    +0.000 A 
ATOM     30  C   UNL     1      -1.039  11.149  21.988  0.00  0.00    +0.000 A 
ATOM     31  C   UNL     1      -0.801  10.909  20.632  0.00  0.00    +0.000 A 
ATOM     32  C   UNL     1       0.038   9.860  20.245  0.00  0.00    +0.000 A 
BRANCH  31  33
ATOM     33  C   UNL     1      -1.434  11.720  19.638  0.00  0.00    +0.000 C 
ATOM     34  N   UNL     1      -1.932  12.377  18.820  0.00  0.00    +0.000 NA
ENDBRANCH  31  33
ENDBRANCH  25  27
ENDBRANCH  23  25
ENDBRANCH  21  23
ENDBRANCH   7  21
TORSDOF 8
ENDMDL
MODEL 8
REMARK VINA RESULT:      -7.3      4.608      8.924
REMARK  Name = 
REMARK  12 active torsions:
REMARK  status: ('A' for Active; 'I' for Inactive)
REMARK    1  A    between atoms: C_1  and  C_2
REMARK    2  A    between atoms: C_2  and  C_3
REMARK    3  A    between atoms: C_2  and  O_4
REMARK    4  A    between atoms: O_4  and  C_5
REMARK    5  A    between atoms: N_7  and  C_8
REMARK    6  A    between atoms: C_14  and  N_15
REMARK    7  A    between atoms: N_15  and  C_16
REMARK    8  A    between atoms: C_16  and  N_18
REMARK    9  A    between atoms: N_18  and  C_19
REMARK   10  A    between atoms: C_23  and  C_24
REMARK   11  A    between atoms: C_28  and  C_29
REMARK   12  A    between atoms: C_28  and  C_30
REMARK                            x       y       z     vdW  Elec       q    Type
REMARK                         _______ _______ _______ _____ _____    ______ ____
ROOT
ATOM      1  C   UNL     1       3.162  14.198  18.139  0.00  0.00    +0.000 A 
ATOM      2  C   UNL     1       2.311  15.280  18.380  0.00  0.00    +0.000 A 
ATOM      3  C   UNL     1       1.063  15.095  18.956  0.00  0.00    +0.000 A 
ATOM      4  C   UNL     1       0.634  13.821  19.296  0.00  0.00    +0.000 A 
ATOM      5  C   UNL     1       1.424  12.696  19.016  0.00  0.00    +0.000 A 
ATOM      6  C   UNL     1       2.698  12.901  18.426  0.00  0.00    +0.000 A 
ATOM      7  C   UNL     1       0.937  11.334  19.479  0.00  0.00    +0.000 C 
ATOM      8  C   UNL     1      -0.590  11.372  19.638  0.00  0.00    +0.000 C 
ATOM      9  C   UNL     1      -0.993  12.566  20.513  0.00  0.00    +0.000 C 
ATOM     10  C   UNL     1      -2.524  12.642  20.613  0.00  0.00    +0.000 C 
ATOM     11  C   UNL     1      -0.425  12.502  21.942  0.00  0.00    +0.000 C 
ATOM     12  O   UNL     1      -0.589  13.796  19.905  0.00  0.00    +0.000 OA
ENDROOT
BRANCH   1  15
ATOM     13  C   UNL     1       5.541  14.833  18.382  0.00  0.00    +0.000 C 
ATOM     14  O   UNL     1       5.535  15.101  19.578  0.00  0.00    +0.000 OA
ATOM     15  N   UNL     1       4.471  14.388  17.637  0.00  0.00    +0.000 N 
ATOM     16  H   UNL     1       4.701  14.064  16.709  0.00  0.00    +0.000 HD
BRANCH  13  17
ATOM     17  O   UNL     1       6.678  14.900  17.624  0.00  0.00    +0.000 OA
BRANCH  17  19
ATOM     18  C   UNL     1       7.806  12.790  17.211  0.00  0.00    +0.000 C 
ATOM     19  C   UNL     1       7.734  14.031  18.098  0.00  0.00    +0.000 C 
ATOM     20  C   UNL     1       9.060  14.779  18.076  0.00  0.00    +0.000 C 
ENDBRANCH  17  19
ENDBRANCH  13  17
ENDBRANCH   1  15
BRANCH   7  21
ATOM     21  N   UNL     1       1.389  10.237  18.620  0.00  0.00    +0.000 N 
ATOM     22  H   UNL     1       1.324  10.392  17.621  0.00  0.00    +0.000 HD
BRANCH  21  23
ATOM     23  C   UNL     1       1.523   8.906  18.994  0.00  0.00    +0.000 C 
ATOM     24  S   UNL     1       1.523   8.331  20.568  0.00  0.00    +0.000 S 
BRANCH  23  25
ATOM     25  N   UNL     1       1.817   8.134  17.878  0.00  0.00    +0.000 N 
ATOM     26  H   UNL     1       1.606   8.616  17.013  0.00  0.00    +0.000 HD
BRANCH  25  27
ATOM     27  C   UNL     1       2.767   7.095  17.791  0.00  0.00    +0.000 A 
ATOM     28  C   UNL     1       2.389   5.800  18.169  0.00  0.00    +0.000 A 
ATOM     29  C   UNL     1       3.325   4.763  18.159  0.00  0.00    +0.000 A 
ATOM     30  C   UNL     1       4.648   5.018  17.795  0.00  0.00    +0.000 A 
ATOM     31  C   UNL     1       5.032   6.311  17.429  0.00  0.00    +0.000 A 
ATOM     32  C   UNL     1       4.092   7.345  17.424  0.00  0.00    +0.000 A 
BRANCH  31  33
ATOM     33  C   UNL     1       6.393   6.583  17.084  0.00  0.00    +0.000 C 
ATOM     34  N   UNL     1       7.497   6.793  16.789  0.00  0.00    +0.000 NA
ENDBRANCH  31  33
ENDBRANCH  25  27
ENDBRANCH  23  25
ENDBRANCH  21  23
ENDBRANCH   7  21
TORSDOF 8
ENDMDL
MODEL 9
REMARK VINA RESULT:      -7.2      3.550      4.272
REMARK  Name = 
REMARK  12 active torsions:
REMARK  status: ('A' for Active; 'I' for Inactive)
REMARK    1  A    between atoms: C_1  and  C_2
REMARK    2  A    between atoms: C_2  and  C_3
REMARK    3  A    between atoms: C_2  and  O_4
REMARK    4  A    between atoms: O_4  and  C_5
REMARK    5  A    between atoms: N_7  and  C_8
REMARK    6  A    between atoms: C_14  and  N_15
REMARK    7  A    between atoms: N_15  and  C_16
REMARK    8  A    between atoms: C_16  and  N_18
REMARK    9  A    between atoms: N_18  and  C_19
REMARK   10  A    between atoms: C_23  and  C_24
REMARK   11  A    between atoms: C_28  and  C_29
REMARK   12  A    between atoms: C_28  and  C_30
REMARK                            x       y       z     vdW  Elec       q    Type
REMARK                         _______ _______ _______ _____ _____    ______ ____
ROOT
ATOM      1  C   UNL     1       7.172   7.393  17.893  0.00  0.00    +0.000 A 
ATOM      2  C   UNL     1       7.833   6.411  18.635  0.00  0.00    +0.000 A 
ATOM      3  C   UNL     1       7.175   5.262  19.050  0.00  0.00    +0.000 A 
ATOM      4  C   UNL     1       5.837   5.074  18.738  0.00  0.00    +0.000 A 
ATOM      5  C   UNL     1       5.113   6.059  18.051  0.00  0.00    +0.000 A 
ATOM      6  C   UNL     1       5.798   7.229  17.634  0.00  0.00    +0.000 A 
ATOM      7  C   UNL     1       3.671   5.767  17.671  0.00  0.00    +0.000 C 
ATOM      8  C   UNL     1       3.106   4.701  18.620  0.00  0.00    +0.000 C 
ATOM      9  C   UNL     1       4.049   3.491  18.667  0.00  0.00    +0.000 C 
ATOM     10  C   UNL     1       3.518   2.457  19.670  0.00  0.00    +0.000 C 
ATOM     11  C   UNL     1       4.223   2.792  17.307  0.00  0.00    +0.000 C 
ATOM     12  O   UNL     1       5.336   3.876  19.162  0.00  0.00    +0.000 OA
ENDROOT
BRANCH   1  15
ATOM     13  C   UNL     1       8.608   9.391  18.151  0.00  0.00    +0.000 C 
ATOM     14  O   UNL     1       8.819   9.308  19.356  0.00  0.00    +0.000 OA
ATOM     15  N   UNL     1       7.859   8.522  17.389  0.00  0.00    +0.000 N 
ATOM     16  H   UNL     1       7.932   8.656  16.391  0.00  0.00    +0.000 HD
BRANCH  13  17
ATOM     17  O   UNL     1       9.164  10.374  17.378  0.00  0.00    +0.000 OA
BRANCH  17  19
ATOM     18  C   UNL     1      11.022  11.845  17.911  0.00  0.00    +0.000 C 
ATOM     19  C   UNL     1       9.539  11.552  18.132  0.00  0.00    +0.000 C 
ATOM     20  C   UNL     1       8.690  12.735  17.689  0.00  0.00    +0.000 C 
ENDBRANCH  17  19
ENDBRANCH  13  17
ENDBRANCH   1  15
BRANCH   7  21
ATOM     21  N   UNL     1       2.835   6.968  17.608  0.00  0.00    +0.000 N 
ATOM     22  H   UNL     1       2.823   7.461  16.722  0.00  0.00    +0.000 HD
BRANCH  21  23
ATOM     23  C   UNL     1       2.384   7.709  18.692  0.00  0.00    +0.000 C 
ATOM     24  S   UNL     1       2.040   7.099  20.214  0.00  0.00    +0.000 S 
BRANCH  23  25
ATOM     25  N   UNL     1       2.105   9.008  18.287  0.00  0.00    +0.000 N 
ATOM     26  H   UNL     1       2.567   9.245  17.418  0.00  0.00    +0.000 HD
BRANCH  25  27
ATOM     27  C   UNL     1       0.963   9.771  18.609  0.00  0.00    +0.000 A 
ATOM     28  C   UNL     1       0.980  10.556  19.769  0.00  0.00    +0.000 A 
ATOM     29  C   UNL     1      -0.160  11.269  20.152  0.00  0.00    +0.000 A 
ATOM     30  C   UNL     1      -1.326  11.184  19.392  0.00  0.00    +0.000 A 
ATOM     31  C   UNL     1      -1.351  10.392  18.240  0.00  0.00    +0.000 A 
ATOM     32  C   UNL     1      -0.207   9.692  17.849  0.00  0.00    +0.000 A 
BRANCH  31  33
ATOM     33  C   UNL     1      -2.554  10.278  17.474  0.00  0.00    +0.000 C 
ATOM     34  N   UNL     1      -3.538  10.198  16.864  0.00  0.00    +0.000 NA
ENDBRANCH  31  33
ENDBRANCH  25  27
ENDBRANCH  23  25
ENDBRANCH  21  23
ENDBRANCH   7  21
TORSDOF 8
ENDMDL
