MODEL 1
REMARK VINA RESULT:      -6.4      0.000      0.000
REMARK  Name = 
REMARK  10 active torsions:
REMARK  status: ('A' for Active; 'I' for Inactive)
REMARK    1  A    between atoms: C_1  and  C_2
REMARK    2  A    between atoms: N_5  and  C_6
REMARK    3  A    between atoms: C_6  and  C_7
REMARK    4  A    between atoms: N_12  and  C_13
REMARK    5  A    between atoms: C_15  and  C_16
REMARK    6  A    between atoms: C_16  and  O_17
REMARK    7  A    between atoms: C_20  and  O_21
REMARK    8  A    between atoms: C_22  and  O_23
REMARK    9  A    between atoms: C_24  and  C_25
REMARK   10  A    between atoms: C_28  and  C_29
REMARK                            x       y       z     vdW  Elec       q    Type
REMARK                         _______ _______ _______ _____ _____    ______ ____
ROOT
ATOM      1  C   UNL     1      -7.207  12.231  17.936  0.00  0.00    +0.000 C 
ATOM      2  C   UNL     1      -5.714  12.085  17.851  0.00  0.00    +0.000 A 
ATOM      3  N   UNL     1      -5.291  11.469  16.717  0.00  0.00    +0.000 NA
ATOM      4  C   UNL     1      -3.997  11.157  16.589  0.00  0.00    +0.000 A 
ATOM      5  N   UNL     1      -3.541  10.461  15.453  0.00  0.00    +0.000 N 
ATOM      6  N   UNL     1      -3.109  11.420  17.550  0.00  0.00    +0.000 NA
ATOM      7  C   UNL     1      -3.514  12.067  18.666  0.00  0.00    +0.000 A 
ATOM      8  N   UNL     1      -2.568  12.252  19.681  0.00  0.00    +0.000 N 
ATOM      9  C   UNL     1      -4.858  12.438  18.886  0.00  0.00    +0.000 A 
ATOM     10  H   UNL     1      -3.521   9.489  15.738  0.00  0.00    +0.000 HD
ATOM     11  H   UNL     1      -2.746  13.113  20.189  0.00  0.00    +0.000 HD
ENDROOT
BRANCH   9  12
ATOM     12  C   UNL     1      -5.296  13.181  20.097  0.00  0.00    +0.000 A 
ATOM     13  N   UNL     1      -5.505  12.685  21.310  0.00  0.00    +0.000 NA
ATOM     14  C   UNL     1      -6.209  13.605  22.115  0.00  0.00    +0.000 A 
ATOM     15  C   UNL     1      -6.709  13.435  23.434  0.00  0.00    +0.000 A 
ATOM     16  C   UNL     1      -6.579  12.205  24.276  0.00  0.00    +0.000 C 
ATOM     17  N   UNL     1      -7.463  14.430  24.002  0.00  0.00    +0.000 NA
ATOM     18  C   UNL     1      -7.780  15.531  23.300  0.00  0.00    +0.000 A 
ATOM     19  C   UNL     1      -7.340  15.779  22.021  0.00  0.00    +0.000 A 
ATOM     20  C   UNL     1      -6.499  14.808  21.471  0.00  0.00    +0.000 A 
ATOM     21  S   UNL     1      -5.669  14.864  19.973  0.00  0.00    +0.000 S 
ENDBRANCH   9  12
BRANCH   8  22
ATOM     22  C   UNL     1      -1.126  12.046  19.529  0.00  0.00    +0.000 C 
ATOM     23  C   UNL     1      -0.716  10.637  19.939  0.00  0.00    +0.000 C 
ATOM     24  C   UNL     1       0.535  10.764  20.805  0.00  0.00    +0.000 C 
ATOM     25  C   UNL     1       0.568  12.211  21.307  0.00  0.00    +0.000 C 
ATOM     26  C   UNL     1      -0.184  13.030  20.227  0.00  0.00    +0.000 C 
BRANCH  24  27
ATOM     27  C   UNL     1       0.634   9.581  21.752  0.00  0.00    +0.000 C 
ATOM     28  C   UNL     1      -0.091   8.268  21.601  0.00  0.00    +0.000 C 
ATOM     29  C   UNL     1       1.403   8.319  21.443  0.00  0.00    +0.000 C 
BRANCH  27  30
ATOM     30  O   UNL     1       0.784  10.018  23.120  0.00  0.00    +0.000 OA
ATOM     31  H   UNL     1       1.502   9.526  23.553  0.00  0.00    +0.000 HD
ENDBRANCH  27  30
ENDBRANCH  24  27
BRANCH  25  32
ATOM     32  O   UNL     1       1.929  12.671  21.375  0.00  0.00    +0.000 OA
ATOM     33  H   UNL     1       2.206  12.849  20.452  0.00  0.00    +0.000 HD
ENDBRANCH  25  32
BRANCH  26  34
ATOM     34  O   UNL     1       0.764  13.569  19.271  0.00  0.00    +0.000 OA
ATOM     35  H   UNL     1       0.265  14.105  18.628  0.00  0.00    +0.000 HD
ENDBRANCH  26  34
ENDBRANCH   8  22
BRANCH   5  36
ATOM     36  C   UNL     1      -4.416  10.657  14.302  0.00  0.00    +0.000 C 
BRANCH  36  37
ATOM     37  C   UNL     1      -4.355   9.578  13.254  0.00  0.00    +0.000 C 
ATOM     38  C   UNL     1      -5.470   9.332  12.265  0.00  0.00    +0.000 C 
ATOM     39  C   UNL     1      -4.120   9.790  11.777  0.00  0.00    +0.000 C 
ENDBRANCH  36  37
ENDBRANCH   5  36
TORSDOF 8
ENDMDL
MODEL 2
REMARK VINA RESULT:      -6.3      3.756      4.972
REMARK  Name = 
REMARK  10 active torsions:
REMARK  status: ('A' for Active; 'I' for Inactive)
REMARK    1  A    between atoms: C_1  and  C_2
REMARK    2  A    between atoms: N_5  and  C_6
REMARK    3  A    between atoms: C_6  and  C_7
REMARK    4  A    between atoms: N_12  and  C_13
REMARK    5  A    between atoms: C_15  and  C_16
REMARK    6  A    between atoms: C_16  and  O_17
REMARK    7  A    between atoms: C_20  and  O_21
REMARK    8  A    between atoms: C_22  and  O_23
REMARK    9  A    between atoms: C_24  and  C_25
REMARK   10  A    between atoms: C_28  and  C_29
REMARK                            x       y       z     vdW  Elec       q    Type
REMARK                         _______ _______ _______ _____ _____    ______ ____
ROOT
ATOM      1  C   UNL     1      -4.113  12.639  20.546  0.00  0.00    +0.000 C 
ATOM      2  C   UNL     1      -2.726  12.572  19.973  0.00  0.00    +0.000 A 
ATOM      3  N   UNL     1      -2.549  11.554  19.092  0.00  0.00    +0.000 NA
ATOM      4  C   UNL     1      -1.323  11.306  18.621  0.00  0.00    +0.000 A 
ATOM      5  N   UNL     1      -1.099  10.218  17.756  0.00  0.00    +0.000 N 
ATOM      6  N   UNL     1      -0.262  12.022  19.001  0.00  0.00    +0.000 NA
ATOM      7  C   UNL     1      -0.434  13.061  19.849  0.00  0.00    +0.000 A 
ATOM      8  N   UNL     1       0.714  13.732  20.284  0.00  0.00    +0.000 N 
ATOM      9  C   UNL     1      -1.691  13.398  20.395  0.00  0.00    +0.000 A 
ATOM     10  H   UNL     1      -0.778   9.471  18.360  0.00  0.00    +0.000 HD
ATOM     11  H   UNL     1       0.516  14.715  20.451  0.00  0.00    +0.000 HD
ENDROOT
BRANCH   9  12
ATOM     12  C   UNL     1      -1.886  14.562  21.298  0.00  0.00    +0.000 A 
ATOM     13  N   UNL     1      -1.729  14.590  22.615  0.00  0.00    +0.000 NA
ATOM     14  C   UNL     1      -2.301  15.756  23.166  0.00  0.00    +0.000 A 
ATOM     15  C   UNL     1      -2.430  16.127  24.531  0.00  0.00    +0.000 A 
ATOM     16  C   UNL     1      -1.963  15.332  25.710  0.00  0.00    +0.000 C 
ATOM     17  N   UNL     1      -3.118  17.267  24.857  0.00  0.00    +0.000 NA
ATOM     18  C   UNL     1      -3.718  17.999  23.903  0.00  0.00    +0.000 A 
ATOM     19  C   UNL     1      -3.643  17.717  22.559  0.00  0.00    +0.000 A 
ATOM     20  C   UNL     1      -2.870  16.605  22.216  0.00  0.00    +0.000 A 
ATOM     21  S   UNL     1      -2.455  16.059  20.646  0.00  0.00    +0.000 S 
ENDBRANCH   9  12
BRANCH   8  22
ATOM     22  C   UNL     1       2.047  13.579  19.697  0.00  0.00    +0.000 C 
ATOM     23  C   UNL     1       3.106  14.306  20.515  0.00  0.00    +0.000 C 
ATOM     24  C   UNL     1       3.995  15.065  19.533  0.00  0.00    +0.000 C 
ATOM     25  C   UNL     1       3.192  15.195  18.235  0.00  0.00    +0.000 C 
ATOM     26  C   UNL     1       2.234  13.977  18.229  0.00  0.00    +0.000 C 
BRANCH  24  27
ATOM     27  C   UNL     1       4.617  16.268  20.218  0.00  0.00    +0.000 C 
ATOM     28  C   UNL     1       4.681  16.501  21.706  0.00  0.00    +0.000 C 
ATOM     29  C   UNL     1       5.945  16.233  20.937  0.00  0.00    +0.000 C 
BRANCH  27  30
ATOM     30  O   UNL     1       4.423  17.471  19.442  0.00  0.00    +0.000 OA
ATOM     31  H   UNL     1       3.920  17.272  18.634  0.00  0.00    +0.000 HD
ENDBRANCH  27  30
ENDBRANCH  24  27
BRANCH  25  32
ATOM     32  O   UNL     1       4.077  15.094  17.105  0.00  0.00    +0.000 OA
ATOM     33  H   UNL     1       4.132  15.993  16.718  0.00  0.00    +0.000 HD
ENDBRANCH  25  32
BRANCH  26  34
ATOM     34  O   UNL     1       2.835  12.881  17.494  0.00  0.00    +0.000 OA
ATOM     35  H   UNL     1       3.514  13.256  16.905  0.00  0.00    +0.000 HD
ENDBRANCH  26  34
ENDBRANCH   8  22
BRANCH   5  36
ATOM     36  C   UNL     1      -2.307   9.833  17.034  0.00  0.00    +0.000 C 
BRANCH  36  37
ATOM     37  C   UNL     1      -2.595  10.628  15.788  0.00  0.00    +0.000 C 
ATOM     38  C   UNL     1      -3.001   9.986  14.483  0.00  0.00    +0.000 C 
ATOM     39  C   UNL     1      -3.963  10.894  15.204  0.00  0.00    +0.000 C 
ENDBRANCH  36  37
ENDBRANCH   5  36
TORSDOF 8
ENDMDL
MODEL 3
REMARK VINA RESULT:      -6.2      1.775      2.604
REMARK  Name = 
REMARK  10 active torsions:
REMARK  status: ('A' for Active; 'I' for Inactive)
REMARK    1  A    between atoms: C_1  and  C_2
REMARK    2  A    between atoms: N_5  and  C_6
REMARK    3  A    between atoms: C_6  and  C_7
REMARK    4  A    between atoms: N_12  and  C_13
REMARK    5  A    between atoms: C_15  and  C_16
REMARK    6  A    between atoms: C_16  and  O_17
REMARK    7  A    between atoms: C_20  and  O_21
REMARK    8  A    between atoms: C_22  and  O_23
REMARK    9  A    between atoms: C_24  and  C_25
REMARK   10  A    between atoms: C_28  and  C_29
REMARK                            x       y       z     vdW  Elec       q    Type
REMARK                         _______ _______ _______ _____ _____    ______ ____
ROOT
ATOM      1  C   UNL     1      -5.667  12.783  18.547  0.00  0.00    +0.000 C 
ATOM      2  C   UNL     1      -4.260  12.317  18.791  0.00  0.00    +0.000 A 
ATOM      3  N   UNL     1      -3.710  11.667  17.734  0.00  0.00    +0.000 NA
ATOM      4  C   UNL     1      -2.515  11.084  17.877  0.00  0.00    +0.000 A 
ATOM      5  N   UNL     1      -1.949  10.350  16.817  0.00  0.00    +0.000 N 
ATOM      6  N   UNL     1      -1.852  11.109  19.035  0.00  0.00    +0.000 NA
ATOM      7  C   UNL     1      -2.374  11.785  20.083  0.00  0.00    +0.000 A 
ATOM      8  N   UNL     1      -1.685  11.719  21.299  0.00  0.00    +0.000 N 
ATOM      9  C   UNL     1      -3.627  12.433  20.022  0.00  0.00    +0.000 A 
ATOM     10  H   UNL     1      -2.197   9.387  17.011  0.00  0.00    +0.000 HD
ATOM     11  H   UNL     1      -1.802  12.578  21.828  0.00  0.00    +0.000 HD
ENDROOT
BRANCH   9  12
ATOM     12  C   UNL     1      -4.184  13.207  21.163  0.00  0.00    +0.000 A 
ATOM     13  N   UNL     1      -5.140  12.824  21.999  0.00  0.00    +0.000 NA
ATOM     14  C   UNL     1      -5.626  13.921  22.743  0.00  0.00    +0.000 A 
ATOM     15  C   UNL     1      -6.701  13.962  23.672  0.00  0.00    +0.000 A 
ATOM     16  C   UNL     1      -7.565  12.810  24.074  0.00  0.00    +0.000 C 
ATOM     17  N   UNL     1      -7.078  15.165  24.211  0.00  0.00    +0.000 NA
ATOM     18  C   UNL     1      -6.480  16.305  23.824  0.00  0.00    +0.000 A 
ATOM     19  C   UNL     1      -5.433  16.358  22.935  0.00  0.00    +0.000 A 
ATOM     20  C   UNL     1      -4.988  15.126  22.449  0.00  0.00    +0.000 A 
ATOM     21  S   UNL     1      -3.632  14.820  21.447  0.00  0.00    +0.000 S 
ENDBRANCH   9  12
BRANCH   8  22
ATOM     22  C   UNL     1      -0.323  11.208  21.462  0.00  0.00    +0.000 C 
ATOM     23  C   UNL     1       0.455  11.258  20.154  0.00  0.00    +0.000 C 
ATOM     24  C   UNL     1       1.179   9.922  20.006  0.00  0.00    +0.000 C 
ATOM     25  C   UNL     1       0.458   8.936  20.929  0.00  0.00    +0.000 C 
ATOM     26  C   UNL     1      -0.148   9.808  22.058  0.00  0.00    +0.000 C 
BRANCH  24  27
ATOM     27  C   UNL     1       1.420   9.621  18.538  0.00  0.00    +0.000 C 
ATOM     28  C   UNL     1       2.631   8.929  17.966  0.00  0.00    +0.000 C 
ATOM     29  C   UNL     1       1.293   8.245  17.929  0.00  0.00    +0.000 C 
BRANCH  27  30
ATOM     30  O   UNL     1       0.886  10.666  17.695  0.00  0.00    +0.000 OA
ATOM     31  H   UNL     1       0.629  11.434  18.234  0.00  0.00    +0.000 HD
ENDBRANCH  27  30
ENDBRANCH  24  27
BRANCH  25  32
ATOM     32  O   UNL     1       1.411   8.026  21.508  0.00  0.00    +0.000 OA
ATOM     33  H   UNL     1       0.990   7.663  22.315  0.00  0.00    +0.000 HD
ENDBRANCH  25  32
BRANCH  26  34
ATOM     34  O   UNL     1       0.764   9.860  23.184  0.00  0.00    +0.000 OA
ATOM     35  H   UNL     1       1.518  10.423  22.929  0.00  0.00    +0.000 HD
ENDBRANCH  26  34
ENDBRANCH   8  22
BRANCH   5  36
ATOM     36  C   UNL     1      -2.460  10.777  15.519  0.00  0.00    +0.000 C 
BRANCH  36  37
ATOM     37  C   UNL     1      -3.034   9.682  14.660  0.00  0.00    +0.000 C 
ATOM     38  C   UNL     1      -4.126   9.925  13.645  0.00  0.00    +0.000 C 
ATOM     39  C   UNL     1      -2.762   9.478  13.188  0.00  0.00    +0.000 C 
ENDBRANCH  36  37
ENDBRANCH   5  36
TORSDOF 8
ENDMDL
MODEL 4
REMARK VINA RESULT:      -6.1      4.156      9.533
REMARK  Name = 
REMARK  10 active torsions:
REMARK  status: ('A' for Active; 'I' for Inactive)
REMARK    1  A    between atoms: C_1  and  C_2
REMARK    2  A    between atoms: N_5  and  C_6
REMARK    3  A    between atoms: C_6  and  C_7
REMARK    4  A    between atoms: N_12  and  C_13
REMARK    5  A    between atoms: C_15  and  C_16
REMARK    6  A    between atoms: C_16  and  O_17
REMARK    7  A    between atoms: C_20  and  O_21
REMARK    8  A    between atoms: C_22  and  O_23
REMARK    9  A    between atoms: C_24  and  C_25
REMARK   10  A    between atoms: C_28  and  C_29
REMARK                            x       y       z     vdW  Elec       q    Type
REMARK                         _______ _______ _______ _____ _____    ______ ____
ROOT
ATOM      1  C   UNL     1       1.347   9.472  22.726  0.00  0.00    +0.000 C 
ATOM      2  C   UNL     1       0.487  10.277  21.795  0.00  0.00    +0.000 A 
ATOM      3  N   UNL     1      -0.136  11.323  22.397  0.00  0.00    +0.000 NA
ATOM      4  C   UNL     1      -1.036  12.030  21.705  0.00  0.00    +0.000 A 
ATOM      5  N   UNL     1      -1.744  13.079  22.322  0.00  0.00    +0.000 N 
ATOM      6  N   UNL     1      -1.352  11.730  20.444  0.00  0.00    +0.000 NA
ATOM      7  C   UNL     1      -0.710  10.714  19.824  0.00  0.00    +0.000 A 
ATOM      8  N   UNL     1      -1.128  10.383  18.531  0.00  0.00    +0.000 N 
ATOM      9  C   UNL     1       0.256   9.916  20.474  0.00  0.00    +0.000 A 
ATOM     10  H   UNL     1      -2.620  12.663  22.613  0.00  0.00    +0.000 HD
ATOM     11  H   UNL     1      -0.351  10.034  17.978  0.00  0.00    +0.000 HD
ENDROOT
BRANCH   9  12
ATOM     12  C   UNL     1       0.987   8.822  19.782  0.00  0.00    +0.000 A 
ATOM     13  N   UNL     1       1.216   7.597  20.237  0.00  0.00    +0.000 NA
ATOM     14  C   UNL     1       2.199   6.947  19.462  0.00  0.00    +0.000 A 
ATOM     15  C   UNL     1       2.795   5.673  19.662  0.00  0.00    +0.000 A 
ATOM     16  C   UNL     1       2.486   4.719  20.773  0.00  0.00    +0.000 C 
ATOM     17  N   UNL     1       3.816   5.270  18.841  0.00  0.00    +0.000 NA
ATOM     18  C   UNL     1       4.294   6.092  17.892  0.00  0.00    +0.000 A 
ATOM     19  C   UNL     1       3.778   7.339  17.626  0.00  0.00    +0.000 A 
ATOM     20  C   UNL     1       2.680   7.719  18.403  0.00  0.00    +0.000 A 
ATOM     21  S   UNL     1       1.718   9.127  18.245  0.00  0.00    +0.000 S 
ENDBRANCH   9  12
BRANCH   8  22
ATOM     22  C   UNL     1      -2.008  11.206  17.698  0.00  0.00    +0.000 C 
ATOM     23  C   UNL     1      -3.152  11.800  18.510  0.00  0.00    +0.000 C 
ATOM     24  C   UNL     1      -4.430  11.611  17.697  0.00  0.00    +0.000 C 
ATOM     25  C   UNL     1      -4.136  10.502  16.682  0.00  0.00    +0.000 C 
ATOM     26  C   UNL     1      -2.606  10.571  16.440  0.00  0.00    +0.000 C 
BRANCH  24  27
ATOM     27  C   UNL     1      -5.632  11.556  18.623  0.00  0.00    +0.000 C 
ATOM     28  C   UNL     1      -5.771  12.288  19.933  0.00  0.00    +0.000 C 
ATOM     29  C   UNL     1      -6.635  12.676  18.766  0.00  0.00    +0.000 C 
BRANCH  27  30
ATOM     30  O   UNL     1      -6.241  10.246  18.612  0.00  0.00    +0.000 OA
ATOM     31  H   UNL     1      -6.026   9.769  19.432  0.00  0.00    +0.000 HD
ENDBRANCH  27  30
ENDBRANCH  24  27
BRANCH  25  32
ATOM     32  O   UNL     1      -4.814  10.784  15.444  0.00  0.00    +0.000 OA
ATOM     33  H   UNL     1      -4.226  11.383  14.938  0.00  0.00    +0.000 HD
ENDBRANCH  25  32
BRANCH  26  34
ATOM     34  O   UNL     1      -2.327  11.404  15.286  0.00  0.00    +0.000 OA
ATOM     35  H   UNL     1      -3.116  11.951  15.117  0.00  0.00    +0.000 HD
ENDBRANCH  26  34
ENDBRANCH   8  22
BRANCH   5  36
ATOM     36  C   UNL     1      -1.020  13.635  23.461  0.00  0.00    +0.000 C 
BRANCH  36  37
ATOM     37  C   UNL     1      -1.559  14.934  23.996  0.00  0.00    +0.000 C 
ATOM     38  C   UNL     1      -1.462  15.323  25.453  0.00  0.00    +0.000 C 
ATOM     39  C   UNL     1      -0.735  16.131  24.411  0.00  0.00    +0.000 C 
ENDBRANCH  36  37
ENDBRANCH   5  36
TORSDOF 8
ENDMDL
MODEL 5
REMARK VINA RESULT:      -6.0      3.835      5.128
REMARK  Name = 
REMARK  10 active torsions:
REMARK  status: ('A' for Active; 'I' for Inactive)
REMARK    1  A    between atoms: C_1  and  C_2
REMARK    2  A    between atoms: N_5  and  C_6
REMARK    3  A    between atoms: C_6  and  C_7
REMARK    4  A    between atoms: N_12  and  C_13
REMARK    5  A    between atoms: C_15  and  C_16
REMARK    6  A    between atoms: C_16  and  O_17
REMARK    7  A    between atoms: C_20  and  O_21
REMARK    8  A    between atoms: C_22  and  O_23
REMARK    9  A    between atoms: C_24  and  C_25
REMARK   10  A    between atoms: C_28  and  C_29
REMARK                            x       y       z     vdW  Elec       q    Type
REMARK                         _______ _______ _______ _____ _____    ______ ____
ROOT
ATOM      1  C   UNL     1      -4.480  12.667  20.655  0.00  0.00    +0.000 C 
ATOM      2  C   UNL     1      -3.132  12.597  19.996  0.00  0.00    +0.000 A 
ATOM      3  N   UNL     1      -3.099  11.788  18.906  0.00  0.00    +0.000 NA
ATOM      4  C   UNL     1      -1.926  11.535  18.318  0.00  0.00    +0.000 A 
ATOM      5  N   UNL     1      -1.853  10.649  17.225  0.00  0.00    +0.000 N 
ATOM      6  N   UNL     1      -0.781  12.043  18.778  0.00  0.00    +0.000 NA
ATOM      7  C   UNL     1      -0.807  12.879  19.840  0.00  0.00    +0.000 A 
ATOM      8  N   UNL     1       0.422  13.325  20.339  0.00  0.00    +0.000 N 
ATOM      9  C   UNL     1      -1.999  13.205  20.522  0.00  0.00    +0.000 A 
ATOM     10  H   UNL     1      -1.591   9.759  17.632  0.00  0.00    +0.000 HD
ATOM     11  H   UNL     1       0.338  14.260  20.726  0.00  0.00    +0.000 HD
ENDROOT
BRANCH   9  12
ATOM     12  C   UNL     1      -2.032  14.153  21.667  0.00  0.00    +0.000 A 
ATOM     13  N   UNL     1      -1.957  15.477  21.613  0.00  0.00    +0.000 NA
ATOM     14  C   UNL     1      -1.702  16.019  22.891  0.00  0.00    +0.000 A 
ATOM     15  C   UNL     1      -1.461  17.371  23.254  0.00  0.00    +0.000 A 
ATOM     16  C   UNL     1      -1.436  18.544  22.325  0.00  0.00    +0.000 C 
ATOM     17  N   UNL     1      -1.129  17.671  24.550  0.00  0.00    +0.000 NA
ATOM     18  C   UNL     1      -0.972  16.694  25.458  0.00  0.00    +0.000 A 
ATOM     19  C   UNL     1      -1.185  15.361  25.196  0.00  0.00    +0.000 A 
ATOM     20  C   UNL     1      -1.610  15.059  23.899  0.00  0.00    +0.000 A 
ATOM     21  S   UNL     1      -2.096  13.538  23.281  0.00  0.00    +0.000 S 
ENDBRANCH   9  12
BRANCH   8  22
ATOM     22  C   UNL     1       1.707  13.179  19.651  0.00  0.00    +0.000 C 
ATOM     23  C   UNL     1       2.852  13.747  20.478  0.00  0.00    +0.000 C 
ATOM     24  C   UNL     1       3.723  14.576  19.537  0.00  0.00    +0.000 C 
ATOM     25  C   UNL     1       2.854  14.903  18.319  0.00  0.00    +0.000 C 
ATOM     26  C   UNL     1       1.829  13.743  18.232  0.00  0.00    +0.000 C 
BRANCH  24  27
ATOM     27  C   UNL     1       4.452  15.654  20.318  0.00  0.00    +0.000 C 
ATOM     28  C   UNL     1       4.558  15.738  21.820  0.00  0.00    +0.000 C 
ATOM     29  C   UNL     1       5.783  15.445  21.000  0.00  0.00    +0.000 C 
BRANCH  27  30
ATOM     30  O   UNL     1       4.346  16.937  19.663  0.00  0.00    +0.000 OA
ATOM     31  H   UNL     1       3.412  17.190  19.569  0.00  0.00    +0.000 HD
ENDBRANCH  27  30
ENDBRANCH  24  27
BRANCH  25  32
ATOM     32  O   UNL     1       3.662  14.897  17.129  0.00  0.00    +0.000 OA
ATOM     33  H   UNL     1       4.593  14.838  17.429  0.00  0.00    +0.000 HD
ENDBRANCH  25  32
BRANCH  26  34
ATOM     34  O   UNL     1       2.322  12.717  17.334  0.00  0.00    +0.000 OA
ATOM     35  H   UNL     1       3.194  12.431  17.660  0.00  0.00    +0.000 HD
ENDBRANCH  26  34
ENDBRANCH   8  22
BRANCH   5  36
ATOM     36  C   UNL     1      -3.123  10.552  16.513  0.00  0.00    +0.000 C 
BRANCH  36  37
ATOM     37  C   UNL     1      -3.039  10.723  15.020  0.00  0.00    +0.000 C 
ATOM     38  C   UNL     1      -2.639   9.604  14.088  0.00  0.00    +0.000 C 
ATOM     39  C   UNL     1      -4.027  10.185  14.010  0.00  0.00    +0.000 C 
ENDBRANCH  36  37
ENDBRANCH   5  36
TORSDOF 8
ENDMDL
MODEL 6
REMARK VINA RESULT:      -6.0      4.703      6.017
REMARK  Name = 
REMARK  10 active torsions:
REMARK  status: ('A' for Active; 'I' for Inactive)
REMARK    1  A    between atoms: C_1  and  C_2
REMARK    2  A    between atoms: N_5  and  C_6
REMARK    3  A    between atoms: C_6  and  C_7
REMARK    4  A    between atoms: N_12  and  C_13
REMARK    5  A    between atoms: C_15  and  C_16
REMARK    6  A    between atoms: C_16  and  O_17
REMARK    7  A    between atoms: C_20  and  O_21
REMARK    8  A    between atoms: C_22  and  O_23
REMARK    9  A    between atoms: C_24  and  C_25
REMARK   10  A    between atoms: C_28  and  C_29
REMARK                            x       y       z     vdW  Elec       q    Type
REMARK                         _______ _______ _______ _____ _____    ______ ____
ROOT
ATOM      1  C   UNL     1      -1.066  10.559  23.148  0.00  0.00    +0.000 C 
ATOM      2  C   UNL     1      -0.689  11.331  21.915  0.00  0.00    +0.000 A 
ATOM      3  N   UNL     1       0.095  10.633  21.054  0.00  0.00    +0.000 NA
ATOM      4  C   UNL     1       0.609  11.258  19.989  0.00  0.00    +0.000 A 
ATOM      5  N   UNL     1       1.477  10.577  19.114  0.00  0.00    +0.000 N 
ATOM      6  N   UNL     1       0.386  12.553  19.754  0.00  0.00    +0.000 NA
ATOM      7  C   UNL     1      -0.423  13.247  20.586  0.00  0.00    +0.000 A 
ATOM      8  N   UNL     1      -0.565  14.618  20.349  0.00  0.00    +0.000 N 
ATOM      9  C   UNL     1      -1.012  12.670  21.732  0.00  0.00    +0.000 A 
ATOM     10  H   UNL     1       2.407  10.822  19.431  0.00  0.00    +0.000 HD
ATOM     11  H   UNL     1      -1.490  14.938  20.620  0.00  0.00    +0.000 HD
ENDROOT
BRANCH   9  12
ATOM     12  C   UNL     1      -1.931  13.423  22.625  0.00  0.00    +0.000 A 
ATOM     13  N   UNL     1      -3.253  13.490  22.541  0.00  0.00    +0.000 NA
ATOM     14  C   UNL     1      -3.756  14.535  23.345  0.00  0.00    +0.000 A 
ATOM     15  C   UNL     1      -5.093  15.000  23.470  0.00  0.00    +0.000 A 
ATOM     16  C   UNL     1      -6.288  14.453  22.755  0.00  0.00    +0.000 C 
ATOM     17  N   UNL     1      -5.352  16.107  24.236  0.00  0.00    +0.000 NA
ATOM     18  C   UNL     1      -4.348  16.785  24.818  0.00  0.00    +0.000 A 
ATOM     19  C   UNL     1      -3.027  16.407  24.753  0.00  0.00    +0.000 A 
ATOM     20  C   UNL     1      -2.769  15.230  24.045  0.00  0.00    +0.000 A 
ATOM     21  S   UNL     1      -1.275  14.406  23.887  0.00  0.00    +0.000 S 
ENDBRANCH   9  12
BRANCH   8  22
ATOM     22  C   UNL     1      -0.131  15.307  19.131  0.00  0.00    +0.000 C 
ATOM     23  C   UNL     1       1.312  14.966  18.780  0.00  0.00    +0.000 C 
ATOM     24  C   UNL     1       2.010  16.274  18.418  0.00  0.00    +0.000 C 
ATOM     25  C   UNL     1       1.162  17.398  19.019  0.00  0.00    +0.000 C 
ATOM     26  C   UNL     1      -0.279  16.830  19.077  0.00  0.00    +0.000 C 
BRANCH  24  27
ATOM     27  C   UNL     1       3.500  16.159  18.685  0.00  0.00    +0.000 C 
ATOM     28  C   UNL     1       4.211  14.938  19.210  0.00  0.00    +0.000 C 
ATOM     29  C   UNL     1       4.457  15.397  17.800  0.00  0.00    +0.000 C 
BRANCH  27  30
ATOM     30  O   UNL     1       4.043  17.409  19.165  0.00  0.00    +0.000 OA
ATOM     31  H   UNL     1       3.417  17.836  19.773  0.00  0.00    +0.000 HD
ENDBRANCH  27  30
ENDBRANCH  24  27
BRANCH  25  32
ATOM     32  O   UNL     1       1.175  18.540  18.143  0.00  0.00    +0.000 OA
ATOM     33  H   UNL     1       0.959  19.317  18.700  0.00  0.00    +0.000 HD
ENDBRANCH  25  32
BRANCH  26  34
ATOM     34  O   UNL     1      -1.007  17.213  17.883  0.00  0.00    +0.000 OA
ATOM     35  H   UNL     1      -1.598  17.951  18.119  0.00  0.00    +0.000 HD
ENDBRANCH  26  34
ENDBRANCH   8  22
BRANCH   5  36
ATOM     36  C   UNL     1       1.269   9.133  19.149  0.00  0.00    +0.000 C 
BRANCH  36  37
ATOM     37  C   UNL     1       1.789   8.378  17.955  0.00  0.00    +0.000 C 
ATOM     38  C   UNL     1       3.257   8.084  17.748  0.00  0.00    +0.000 C 
ATOM     39  C   UNL     1       2.287   6.951  17.959  0.00  0.00    +0.000 C 
ENDBRANCH  36  37
ENDBRANCH   5  36
TORSDOF 8
ENDMDL
MODEL 7
REMARK VINA RESULT:      -5.9      4.191      6.003
REMARK  Name = 
REMARK  10 active torsions:
REMARK  status: ('A' for Active; 'I' for Inactive)
REMARK    1  A    between atoms: C_1  and  C_2
REMARK    2  A    between atoms: N_5  and  C_6
REMARK    3  A    between atoms: C_6  and  C_7
REMARK    4  A    between atoms: N_12  and  C_13
REMARK    5  A    between atoms: C_15  and  C_16
REMARK    6  A    between atoms: C_16  and  O_17
REMARK    7  A    between atoms: C_20  and  O_21
REMARK    8  A    between atoms: C_22  and  O_23
REMARK    9  A    between atoms: C_24  and  C_25
REMARK   10  A    between atoms: C_28  and  C_29
REMARK                            x       y       z     vdW  Elec       q    Type
REMARK                         _______ _______ _______ _____ _____    ______ ____
ROOT
ATOM      1  C   UNL     1      -0.793   9.210  21.495  0.00  0.00    +0.000 C 
ATOM      2  C   UNL     1      -0.309  10.239  20.514  0.00  0.00    +0.000 A 
ATOM      3  N   UNL     1       0.574   9.752  19.604  0.00  0.00    +0.000 NA
ATOM      4  C   UNL     1       1.181  10.600  18.767  0.00  0.00    +0.000 A 
ATOM      5  N   UNL     1       2.148  10.132  17.857  0.00  0.00    +0.000 N 
ATOM      6  N   UNL     1       0.955  11.915  18.807  0.00  0.00    +0.000 NA
ATOM      7  C   UNL     1       0.050  12.405  19.684  0.00  0.00    +0.000 A 
ATOM      8  N   UNL     1      -0.096  13.795  19.748  0.00  0.00    +0.000 N 
ATOM      9  C   UNL     1      -0.640  11.586  20.603  0.00  0.00    +0.000 A 
ATOM     10  H   UNL     1       3.036  10.297  18.317  0.00  0.00    +0.000 HD
ATOM     11  H   UNL     1      -1.051  14.047  19.985  0.00  0.00    +0.000 HD
ENDROOT
BRANCH   9  12
ATOM     12  C   UNL     1      -1.662  12.119  21.542  0.00  0.00    +0.000 A 
ATOM     13  N   UNL     1      -2.965  12.240  21.323  0.00  0.00    +0.000 NA
ATOM     14  C   UNL     1      -3.564  13.068  22.297  0.00  0.00    +0.000 A 
ATOM     15  C   UNL     1      -4.907  13.523  22.376  0.00  0.00    +0.000 A 
ATOM     16  C   UNL     1      -6.006  13.202  21.413  0.00  0.00    +0.000 C 
ATOM     17  N   UNL     1      -5.259  14.414  23.357  0.00  0.00    +0.000 NA
ATOM     18  C   UNL     1      -4.334  14.901  24.202  0.00  0.00    +0.000 A 
ATOM     19  C   UNL     1      -3.014  14.515  24.200  0.00  0.00    +0.000 A 
ATOM     20  C   UNL     1      -2.669  13.542  23.257  0.00  0.00    +0.000 A 
ATOM     21  S   UNL     1      -1.165  12.743  23.075  0.00  0.00    +0.000 S 
ENDBRANCH   9  12
BRANCH   8  22
ATOM     22  C   UNL     1       0.445  14.740  18.769  0.00  0.00    +0.000 C 
ATOM     23  C   UNL     1       1.942  14.540  18.567  0.00  0.00    +0.000 C 
ATOM     24  C   UNL     1       2.588  15.923  18.579  0.00  0.00    +0.000 C 
ATOM     25  C   UNL     1       1.590  16.861  19.265  0.00  0.00    +0.000 C 
ATOM     26  C   UNL     1       0.198  16.233  19.000  0.00  0.00    +0.000 C 
BRANCH  24  27
ATOM     27  C   UNL     1       4.034  15.818  19.029  0.00  0.00    +0.000 C 
ATOM     28  C   UNL     1       5.181  15.299  18.200  0.00  0.00    +0.000 C 
ATOM     29  C   UNL     1       5.127  16.754  18.574  0.00  0.00    +0.000 C 
BRANCH  27  30
ATOM     30  O   UNL     1       4.122  15.482  20.431  0.00  0.00    +0.000 OA
ATOM     31  H   UNL     1       4.758  14.759  20.565  0.00  0.00    +0.000 HD
ENDBRANCH  27  30
ENDBRANCH  24  27
BRANCH  25  32
ATOM     32  O   UNL     1       1.639  18.159  18.647  0.00  0.00    +0.000 OA
ATOM     33  H   UNL     1       0.726  18.357  18.350  0.00  0.00    +0.000 HD
ENDBRANCH  25  32
BRANCH  26  34
ATOM     34  O   UNL     1      -0.391  16.825  17.815  0.00  0.00    +0.000 OA
ATOM     35  H   UNL     1       0.207  17.530  17.506  0.00  0.00    +0.000 HD
ENDBRANCH  26  34
ENDBRANCH   8  22
BRANCH   5  36
ATOM     36  C   UNL     1       1.969   8.718  17.545  0.00  0.00    +0.000 C 
BRANCH  36  37
ATOM     37  C   UNL     1       2.963   7.786  18.183  0.00  0.00    +0.000 C 
ATOM     38  C   UNL     1       2.763   6.290  18.242  0.00  0.00    +0.000 C 
ATOM     39  C   UNL     1       3.909   6.863  17.451  0.00  0.00    +0.000 C 
ENDBRANCH  36  37
ENDBRANCH   5  36
TORSDOF 8
ENDMDL
MODEL 8
REMARK VINA RESULT:      -5.9      1.199      1.649
REMARK  Name = 
REMARK  10 active torsions:
REMARK  status: ('A' for Active; 'I' for Inactive)
REMARK    1  A    between atoms: C_1  and  C_2
REMARK    2  A    between atoms: N_5  and  C_6
REMARK    3  A    between atoms: C_6  and  C_7
REMARK    4  A    between atoms: N_12  and  C_13
REMARK    5  A    between atoms: C_15  and  C_16
REMARK    6  A    between atoms: C_16  and  O_17
REMARK    7  A    between atoms: C_20  and  O_21
REMARK    8  A    between atoms: C_22  and  O_23
REMARK    9  A    between atoms: C_24  and  C_25
REMARK   10  A    between atoms: C_28  and  C_29
REMARK                            x       y       z     vdW  Elec       q    Type
REMARK                         _______ _______ _______ _____ _____    ______ ____
ROOT
ATOM      1  C   UNL     1      -6.964  12.044  17.474  0.00  0.00    +0.000 C 
ATOM      2  C   UNL     1      -5.473  11.867  17.454  0.00  0.00    +0.000 A 
ATOM      3  N   UNL     1      -5.003  11.329  16.299  0.00  0.00    +0.000 NA
ATOM      4  C   UNL     1      -3.712  10.994  16.214  0.00  0.00    +0.000 A 
ATOM      5  N   UNL     1      -3.210  10.377  15.052  0.00  0.00    +0.000 N 
ATOM      6  N   UNL     1      -2.871  11.159  17.238  0.00  0.00    +0.000 NA
ATOM      7  C   UNL     1      -3.320  11.728  18.379  0.00  0.00    +0.000 A 
ATOM      8  N   UNL     1      -2.427  11.809  19.453  0.00  0.00    +0.000 N 
ATOM      9  C   UNL     1      -4.666  12.115  18.558  0.00  0.00    +0.000 A 
ATOM     10  H   UNL     1      -3.227   9.385  15.260  0.00  0.00    +0.000 HD
ATOM     11  H   UNL     1      -2.613  12.633  20.017  0.00  0.00    +0.000 HD
ENDROOT
BRANCH   9  12
ATOM     12  C   UNL     1      -5.152  12.774  19.799  0.00  0.00    +0.000 A 
ATOM     13  N   UNL     1      -4.659  13.864  20.373  0.00  0.00    +0.000 NA
ATOM     14  C   UNL     1      -5.158  14.011  21.684  0.00  0.00    +0.000 A 
ATOM     15  C   UNL     1      -4.817  14.982  22.664  0.00  0.00    +0.000 A 
ATOM     16  C   UNL     1      -3.830  16.093  22.500  0.00  0.00    +0.000 C 
ATOM     17  N   UNL     1      -5.350  14.882  23.924  0.00  0.00    +0.000 NA
ATOM     18  C   UNL     1      -6.139  13.845  24.252  0.00  0.00    +0.000 A 
ATOM     19  C   UNL     1      -6.523  12.863  23.369  0.00  0.00    +0.000 A 
ATOM     20  C   UNL     1      -6.053  13.009  22.060  0.00  0.00    +0.000 A 
ATOM     21  S   UNL     1      -6.446  12.056  20.692  0.00  0.00    +0.000 S 
ENDBRANCH   9  12
BRANCH   8  22
ATOM     22  C   UNL     1      -0.983  11.578  19.360  0.00  0.00    +0.000 C 
ATOM     23  C   UNL     1      -0.600  10.209  19.906  0.00  0.00    +0.000 C 
ATOM     24  C   UNL     1       0.629  10.403  20.791  0.00  0.00    +0.000 C 
ATOM     25  C   UNL     1       0.664  11.889  21.162  0.00  0.00    +0.000 C 
ATOM     26  C   UNL     1      -0.049  12.614  19.992  0.00  0.00    +0.000 C 
BRANCH  24  27
ATOM     27  C   UNL     1       0.690   9.310  21.843  0.00  0.00    +0.000 C 
ATOM     28  C   UNL     1       0.416   9.485  23.315  0.00  0.00    +0.000 C 
ATOM     29  C   UNL     1      -0.530   8.678  22.470  0.00  0.00    +0.000 C 
BRANCH  27  30
ATOM     30  O   UNL     1       1.734   8.357  21.547  0.00  0.00    +0.000 OA
ATOM     31  H   UNL     1       2.578   8.655  21.927  0.00  0.00    +0.000 HD
ENDBRANCH  27  30
ENDBRANCH  24  27
BRANCH  25  32
ATOM     32  O   UNL     1       2.028  12.342  21.226  0.00  0.00    +0.000 OA
ATOM     33  H   UNL     1       2.588  11.546  21.109  0.00  0.00    +0.000 HD
ENDBRANCH  25  32
BRANCH  26  34
ATOM     34  O   UNL     1       0.930  13.056  19.018  0.00  0.00    +0.000 OA
ATOM     35  H   UNL     1       1.512  13.704  19.454  0.00  0.00    +0.000 HD
ENDBRANCH  26  34
ENDBRANCH   8  22
BRANCH   5  36
ATOM     36  C   UNL     1      -4.018  10.684  13.876  0.00  0.00    +0.000 C 
BRANCH  36  37
ATOM     37  C   UNL     1      -4.316   9.515  12.976  0.00  0.00    +0.000 C 
ATOM     38  C   UNL     1      -5.680   9.273  12.372  0.00  0.00    +0.000 C 
ATOM     39  C   UNL     1      -4.506   9.577  11.478  0.00  0.00    +0.000 C 
ENDBRANCH  36  37
ENDBRANCH   5  36
TORSDOF 8
ENDMDL
MODEL 9
REMARK VINA RESULT:      -5.9      0.915      1.005
REMARK  Name = 
REMARK  10 active torsions:
REMARK  status: ('A' for Active; 'I' for Inactive)
REMARK    1  A    between atoms: C_1  and  C_2
REMARK    2  A    between atoms: N_5  and  C_6
REMARK    3  A    between atoms: C_6  and  C_7
REMARK    4  A    between atoms: N_12  and  C_13
REMARK    5  A    between atoms: C_15  and  C_16
REMARK    6  A    between atoms: C_16  and  O_17
REMARK    7  A    between atoms: C_20  and  O_21
REMARK    8  A    between atoms: C_22  and  O_23
REMARK    9  A    between atoms: C_24  and  C_25
REMARK   10  A    between atoms: C_28  and  C_29
REMARK                            x       y       z     vdW  Elec       q    Type
REMARK                         _______ _______ _______ _____ _____    ______ ____
ROOT
ATOM      1  C   UNL     1      -7.051  11.941  17.784  0.00  0.00    +0.000 C 
ATOM      2  C   UNL     1      -5.554  11.855  17.693  0.00  0.00    +0.000 A 
ATOM      3  N   UNL     1      -5.109  11.321  16.526  0.00  0.00    +0.000 NA
ATOM      4  C   UNL     1      -3.805  11.065  16.382  0.00  0.00    +0.000 A 
ATOM      5  N   UNL     1      -3.324  10.453  15.209  0.00  0.00    +0.000 N 
ATOM      6  N   UNL     1      -2.927  11.304  17.358  0.00  0.00    +0.000 NA
ATOM      7  C   UNL     1      -3.354  11.870  18.510  0.00  0.00    +0.000 A 
ATOM      8  N   UNL     1      -2.415  12.029  19.535  0.00  0.00    +0.000 N 
ATOM      9  C   UNL     1      -4.711  12.177  18.749  0.00  0.00    +0.000 A 
ATOM     10  H   UNL     1      -3.269   9.467  15.436  0.00  0.00    +0.000 HD
ATOM     11  H   UNL     1      -2.625  12.852  20.092  0.00  0.00    +0.000 HD
ENDROOT
BRANCH   9  12
ATOM     12  C   UNL     1      -5.175  12.833  20.000  0.00  0.00    +0.000 A 
ATOM     13  N   UNL     1      -4.773  12.572  21.237  0.00  0.00    +0.000 NA
ATOM     14  C   UNL     1      -5.646  13.152  22.182  0.00  0.00    +0.000 A 
ATOM     15  C   UNL     1      -5.630  13.038  23.598  0.00  0.00    +0.000 A 
ATOM     16  C   UNL     1      -4.645  12.259  24.410  0.00  0.00    +0.000 C 
ATOM     17  N   UNL     1      -6.642  13.604  24.330  0.00  0.00    +0.000 NA
ATOM     18  C   UNL     1      -7.673  14.210  23.717  0.00  0.00    +0.000 A 
ATOM     19  C   UNL     1      -7.770  14.368  22.354  0.00  0.00    +0.000 A 
ATOM     20  C   UNL     1      -6.697  13.869  21.609  0.00  0.00    +0.000 A 
ATOM     21  S   UNL     1      -6.430  14.019  19.924  0.00  0.00    +0.000 S 
ENDBRANCH   9  12
BRANCH   8  22
ATOM     22  C   UNL     1      -0.967  11.885  19.374  0.00  0.00    +0.000 C 
ATOM     23  C   UNL     1      -0.512  10.458  19.653  0.00  0.00    +0.000 C 
ATOM     24  C   UNL     1       0.731  10.544  20.535  0.00  0.00    +0.000 C 
ATOM     25  C   UNL     1       0.714  11.937  21.170  0.00  0.00    +0.000 C 
ATOM     26  C   UNL     1      -0.059  12.830  20.167  0.00  0.00    +0.000 C 
BRANCH  24  27
ATOM     27  C   UNL     1       0.865   9.281  21.367  0.00  0.00    +0.000 C 
ATOM     28  C   UNL     1       1.233   9.222  22.828  0.00  0.00    +0.000 C 
ATOM     29  C   UNL     1      -0.153   8.836  22.390  0.00  0.00    +0.000 C 
BRANCH  27  30
ATOM     30  O   UNL     1       1.396   8.191  20.582  0.00  0.00    +0.000 OA
ATOM     31  H   UNL     1       1.713   7.480  21.164  0.00  0.00    +0.000 HD
ENDBRANCH  27  30
ENDBRANCH  24  27
BRANCH  25  32
ATOM     32  O   UNL     1       2.060  12.433  21.290  0.00  0.00    +0.000 OA
ATOM     33  H   UNL     1       2.042  13.110  21.998  0.00  0.00    +0.000 HD
ENDBRANCH  25  32
BRANCH  26  34
ATOM     34  O   UNL     1       0.873  13.486  19.271  0.00  0.00    +0.000 OA
ATOM     35  H   UNL     1       1.588  12.854  19.072  0.00  0.00    +0.000 HD
ENDBRANCH  26  34
ENDBRANCH   8  22
BRANCH   5  36
ATOM     36  C   UNL     1      -4.206  10.684  14.069  0.00  0.00    +0.000 C 
BRANCH  36  37
ATOM     37  C   UNL     1      -4.293   9.551  13.081  0.00  0.00    +0.000 C 
ATOM     38  C   UNL     1      -5.580   9.160  12.394  0.00  0.00    +0.000 C 
ATOM     39  C   UNL     1      -4.427   9.692  11.583  0.00  0.00    +0.000 C 
ENDBRANCH  36  37
ENDBRANCH   5  36
TORSDOF 8
ENDMDL
