MODEL 1
REMARK VINA RESULT:      -7.7      0.000      0.000
REMARK  Name = 
REMARK  5 active torsions:
REMARK  status: ('A' for Active; 'I' for Inactive)
REMARK    1  A    between atoms: C_1  and  N_2
REMARK    2  A    between atoms: N_2  and  C_3
REMARK    3  A    between atoms: C_6  and  C_7
REMARK    4  A    between atoms: C_17  and  C_18
REMARK    5  A    between atoms: C_22  and  C_23
REMARK                            x       y       z     vdW  Elec       q    Type
REMARK                         _______ _______ _______ _____ _____    ______ ____
ROOT
ATOM      1  C   UNL     1       2.246   3.136  18.960  0.00  0.00    +0.000 C 
ATOM      2  C   UNL     1       1.090   3.990  18.376  0.00  0.00    +0.000 C 
ATOM      3  C   UNL     1       1.534   5.004  17.346  0.00  0.00    +0.000 C 
ATOM      4  C   UNL     1       2.580   5.946  17.930  0.00  0.00    +0.000 C 
ATOM      5  C   UNL     1       3.748   5.173  18.513  0.00  0.00    +0.000 A 
ATOM      6  C   UNL     1       4.993   5.837  18.491  0.00  0.00    +0.000 A 
ATOM      7  C   UNL     1       6.137   5.224  18.974  0.00  0.00    +0.000 A 
ATOM      8  C   UNL     1       6.038   3.933  19.494  0.00  0.00    +0.000 A 
ATOM      9  C   UNL     1       4.800   3.251  19.553  0.00  0.00    +0.000 A 
ATOM     10  C   UNL     1       3.612   3.864  19.055  0.00  0.00    +0.000 A 
ENDROOT
BRANCH   4  11
ATOM     11  C   UNL     1       2.026   6.988  18.899  0.00  0.00    +0.000 A 
ATOM     12  C   UNL     1       1.812   6.718  20.262  0.00  0.00    +0.000 A 
ATOM     13  C   UNL     1       1.341   7.712  21.125  0.00  0.00    +0.000 A 
ATOM     14  C   UNL     1       1.072   8.992  20.640  0.00  0.00    +0.000 A 
ATOM     15 CL   UNL     1       0.500  10.174  21.761  0.00  0.00    +0.000 Cl
ATOM     16  C   UNL     1       1.276   9.277  19.286  0.00  0.00    +0.000 A 
ATOM     17 CL   UNL     1       0.990  10.842  18.613  0.00  0.00    +0.000 Cl
ATOM     18  C   UNL     1       1.743   8.278  18.424  0.00  0.00    +0.000 A 
ENDBRANCH   4  11
BRANCH   7  19
ATOM     19  C   UNL     1       7.469   5.876  18.868  0.00  0.00    +0.000 C 
ATOM     20  N   UNL     1       8.406   5.585  19.818  0.00  0.00    +0.000 N 
ATOM     21  O   UNL     1       7.723   6.642  17.945  0.00  0.00    +0.000 OA
ATOM     22  H   UNL     1       8.317   4.836  20.489  0.00  0.00    +0.000 HD
ATOM     23  H   UNL     1       9.323   5.998  19.695  0.00  0.00    +0.000 HD
ENDBRANCH   7  19
BRANCH   9  24
ATOM     24  C   UNL     1       4.830   1.845  20.074  0.00  0.00    +0.000 C 
ATOM     25  N   UNL     1       4.544   0.828  19.204  0.00  0.00    +0.000 N 
ATOM     26  O   UNL     1       5.117   1.580  21.234  0.00  0.00    +0.000 OA
ATOM     27  H   UNL     1       4.395   0.936  18.213  0.00  0.00    +0.000 HD
ATOM     28  H   UNL     1       4.585  -0.116  19.571  0.00  0.00    +0.000 HD
ENDBRANCH   9  24
BRANCH   1  30
ATOM     29  C   UNL     1       1.790   3.604  21.320  0.00  0.00    +0.000 C 
ATOM     30  N   UNL     1       1.772   2.592  20.255  0.00  0.00    +0.000 NA
ATOM     31  H   UNL     1       0.776   2.368  20.124  0.00  0.00    +0.000 HD
ENDBRANCH   1  30
TORSDOF 4
ENDMDL
MODEL 2
REMARK VINA RESULT:      -7.3      6.218      9.357
REMARK  Name = 
REMARK  5 active torsions:
REMARK  status: ('A' for Active; 'I' for Inactive)
REMARK    1  A    between atoms: C_1  and  N_2
REMARK    2  A    between atoms: N_2  and  C_3
REMARK    3  A    between atoms: C_6  and  C_7
REMARK    4  A    between atoms: C_17  and  C_18
REMARK    5  A    between atoms: C_22  and  C_23
REMARK                            x       y       z     vdW  Elec       q    Type
REMARK                         _______ _______ _______ _____ _____    ______ ____
ROOT
ATOM      1  C   UNL     1      -0.400  12.749  20.999  0.00  0.00    +0.000 C 
ATOM      2  C   UNL     1       1.113  12.415  20.926  0.00  0.00    +0.000 C 
ATOM      3  C   UNL     1       1.624  12.180  19.522  0.00  0.00    +0.000 C 
ATOM      4  C   UNL     1       0.850  11.053  18.848  0.00  0.00    +0.000 C 
ATOM      5  C   UNL     1      -0.643  11.321  18.877  0.00  0.00    +0.000 A 
ATOM      6  C   UNL     1      -1.384  10.769  17.810  0.00  0.00    +0.000 A 
ATOM      7  C   UNL     1      -2.752  10.966  17.716  0.00  0.00    +0.000 A 
ATOM      8  C   UNL     1      -3.393  11.717  18.702  0.00  0.00    +0.000 A 
ATOM      9  C   UNL     1      -2.681  12.262  19.796  0.00  0.00    +0.000 A 
ATOM     10  C   UNL     1      -1.270  12.075  19.908  0.00  0.00    +0.000 A 
ENDROOT
BRANCH   4  11
ATOM     11  C   UNL     1       1.203   9.654  19.345  0.00  0.00    +0.000 A 
ATOM     12  C   UNL     1       0.770   9.158  20.587  0.00  0.00    +0.000 A 
ATOM     13  C   UNL     1       1.081   7.856  20.989  0.00  0.00    +0.000 A 
ATOM     14  C   UNL     1       1.833   7.026  20.157  0.00  0.00    +0.000 A 
ATOM     15 CL   UNL     1       2.175   5.427  20.710  0.00  0.00    +0.000 Cl
ATOM     16  C   UNL     1       2.275   7.504  18.919  0.00  0.00    +0.000 A 
ATOM     17 CL   UNL     1       3.190   6.533  17.822  0.00  0.00    +0.000 Cl
ATOM     18  C   UNL     1       1.966   8.810  18.522  0.00  0.00    +0.000 A 
ENDBRANCH   4  11
BRANCH   7  19
ATOM     19  C   UNL     1      -3.527  10.471  16.546  0.00  0.00    +0.000 C 
ATOM     20  N   UNL     1      -4.774  10.986  16.337  0.00  0.00    +0.000 N 
ATOM     21  O   UNL     1      -3.052   9.635  15.785  0.00  0.00    +0.000 OA
ATOM     22  H   UNL     1      -5.141  11.793  16.817  0.00  0.00    +0.000 HD
ATOM     23  H   UNL     1      -5.262  10.675  15.505  0.00  0.00    +0.000 HD
ENDBRANCH   7  19
BRANCH   9  24
ATOM     24  C   UNL     1      -3.466  13.103  20.759  0.00  0.00    +0.000 C 
ATOM     25  N   UNL     1      -3.671  14.419  20.446  0.00  0.00    +0.000 N 
ATOM     26  O   UNL     1      -3.940  12.650  21.792  0.00  0.00    +0.000 OA
ATOM     27  H   UNL     1      -3.409  14.858  19.577  0.00  0.00    +0.000 HD
ATOM     28  H   UNL     1      -4.218  14.967  21.101  0.00  0.00    +0.000 HD
ENDBRANCH   9  24
BRANCH   1  30
ATOM     29  C   UNL     1      -0.793  11.011  22.679  0.00  0.00    +0.000 C 
ATOM     30  N   UNL     1      -0.843  12.450  22.382  0.00  0.00    +0.000 NA
ATOM     31  H   UNL     1      -0.141  12.870  23.006  0.00  0.00    +0.000 HD
ENDBRANCH   1  30
TORSDOF 4
ENDMDL
MODEL 3
REMARK VINA RESULT:      -7.0      6.606      9.859
REMARK  Name = 
REMARK  5 active torsions:
REMARK  status: ('A' for Active; 'I' for Inactive)
REMARK    1  A    between atoms: C_1  and  N_2
REMARK    2  A    between atoms: N_2  and  C_3
REMARK    3  A    between atoms: C_6  and  C_7
REMARK    4  A    between atoms: C_17  and  C_18
REMARK    5  A    between atoms: C_22  and  C_23
REMARK                            x       y       z     vdW  Elec       q    Type
REMARK                         _______ _______ _______ _____ _____    ______ ____
ROOT
ATOM      1  C   UNL     1      -0.988  13.187  21.426  0.00  0.00    +0.000 C 
ATOM      2  C   UNL     1       0.543  13.012  21.244  0.00  0.00    +0.000 C 
ATOM      3  C   UNL     1       0.990  12.969  19.800  0.00  0.00    +0.000 C 
ATOM      4  C   UNL     1       0.285  11.845  19.050  0.00  0.00    +0.000 C 
ATOM      5  C   UNL     1      -1.222  11.961  19.180  0.00  0.00    +0.000 A 
ATOM      6  C   UNL     1      -1.970  11.448  18.099  0.00  0.00    +0.000 A 
ATOM      7  C   UNL     1      -3.354  11.518  18.092  0.00  0.00    +0.000 A 
ATOM      8  C   UNL     1      -4.002  12.101  19.182  0.00  0.00    +0.000 A 
ATOM      9  C   UNL     1      -3.280  12.601  20.291  0.00  0.00    +0.000 A 
ATOM     10  C   UNL     1      -1.854  12.543  20.314  0.00  0.00    +0.000 A 
ENDROOT
BRANCH   4  11
ATOM     11  C   UNL     1       0.795  10.444  19.380  0.00  0.00    +0.000 A 
ATOM     12  C   UNL     1       0.446   9.770  20.563  0.00  0.00    +0.000 A 
ATOM     13  C   UNL     1       0.902   8.471  20.809  0.00  0.00    +0.000 A 
ATOM     14  C   UNL     1       1.716   7.824  19.879  0.00  0.00    +0.000 A 
ATOM     15 CL   UNL     1       2.237   6.219  20.242  0.00  0.00    +0.000 Cl
ATOM     16  C   UNL     1       2.075   8.483  18.698  0.00  0.00    +0.000 A 
ATOM     17 CL   UNL     1       3.059   7.743  17.486  0.00  0.00    +0.000 Cl
ATOM     18  C   UNL     1       1.621   9.784  18.456  0.00  0.00    +0.000 A 
ENDBRANCH   4  11
BRANCH   7  19
ATOM     19  C   UNL     1      -4.146  11.069  16.917  0.00  0.00    +0.000 C 
ATOM     20  N   UNL     1      -5.464  11.423  16.856  0.00  0.00    +0.000 N 
ATOM     21  O   UNL     1      -3.627  10.412  16.022  0.00  0.00    +0.000 OA
ATOM     22  H   UNL     1      -5.895  12.103  17.464  0.00  0.00    +0.000 HD
ATOM     23  H   UNL     1      -5.971  11.152  16.022  0.00  0.00    +0.000 HD
ENDBRANCH   7  19
BRANCH   9  24
ATOM     24  C   UNL     1      -4.082  13.261  21.374  0.00  0.00    +0.000 C 
ATOM     25  N   UNL     1      -4.538  12.484  22.404  0.00  0.00    +0.000 N 
ATOM     26  O   UNL     1      -4.321  14.462  21.375  0.00  0.00    +0.000 OA
ATOM     27  H   UNL     1      -4.310  11.512  22.543  0.00  0.00    +0.000 HD
ATOM     28  H   UNL     1      -5.063  12.952  23.134  0.00  0.00    +0.000 HD
ENDBRANCH   9  24
BRANCH   1  30
ATOM     29  C   UNL     1      -1.122  11.260  22.931  0.00  0.00    +0.000 C 
ATOM     30  N   UNL     1      -1.319  12.710  22.790  0.00  0.00    +0.000 NA
ATOM     31  H   UNL     1      -0.622  13.131  23.419  0.00  0.00    +0.000 HD
ENDBRANCH   1  30
TORSDOF 4
ENDMDL
MODEL 4
REMARK VINA RESULT:      -7.0      8.456     10.632
REMARK  Name = 
REMARK  5 active torsions:
REMARK  status: ('A' for Active; 'I' for Inactive)
REMARK    1  A    between atoms: C_1  and  N_2
REMARK    2  A    between atoms: N_2  and  C_3
REMARK    3  A    between atoms: C_6  and  C_7
REMARK    4  A    between atoms: C_17  and  C_18
REMARK    5  A    between atoms: C_22  and  C_23
REMARK                            x       y       z     vdW  Elec       q    Type
REMARK                         _______ _______ _______ _____ _____    ______ ____
ROOT
ATOM      1  C   UNL     1      -2.713  10.853  17.521  0.00  0.00    +0.000 C 
ATOM      2  C   UNL     1      -1.210  10.468  17.477  0.00  0.00    +0.000 C 
ATOM      3  C   UNL     1      -0.601  10.210  18.837  0.00  0.00    +0.000 C 
ATOM      4  C   UNL     1      -0.760  11.428  19.739  0.00  0.00    +0.000 C 
ATOM      5  C   UNL     1      -2.213  11.854  19.834  0.00  0.00    +0.000 A 
ATOM      6  C   UNL     1      -2.588  12.484  21.040  0.00  0.00    +0.000 A 
ATOM      7  C   UNL     1      -3.893  12.898  21.252  0.00  0.00    +0.000 A 
ATOM      8  C   UNL     1      -4.836  12.687  20.246  0.00  0.00    +0.000 A 
ATOM      9  C   UNL     1      -4.485  12.081  19.017  0.00  0.00    +0.000 A 
ATOM     10  C   UNL     1      -3.147  11.643  18.782  0.00  0.00    +0.000 A 
ENDROOT
BRANCH   4  11
ATOM     11  C   UNL     1       0.171  12.591  19.405  0.00  0.00    +0.000 A 
ATOM     12  C   UNL     1       1.569  12.452  19.355  0.00  0.00    +0.000 A 
ATOM     13  C   UNL     1       2.385  13.532  19.006  0.00  0.00    +0.000 A 
ATOM     14  C   UNL     1       1.819  14.771  18.704  0.00  0.00    +0.000 A 
ATOM     15 CL   UNL     1       2.883  16.060  18.273  0.00  0.00    +0.000 Cl
ATOM     16  C   UNL     1       0.430  14.927  18.752  0.00  0.00    +0.000 A 
ATOM     17 CL   UNL     1      -0.350  16.420  18.370  0.00  0.00    +0.000 Cl
ATOM     18  C   UNL     1      -0.384  13.845  19.107  0.00  0.00    +0.000 A 
ENDBRANCH   4  11
BRANCH   7  19
ATOM     19  C   UNL     1      -4.320  13.474  22.555  0.00  0.00    +0.000 C 
ATOM     20  N   UNL     1      -4.972  12.659  23.436  0.00  0.00    +0.000 N 
ATOM     21  O   UNL     1      -4.082  14.644  22.834  0.00  0.00    +0.000 OA
ATOM     22  H   UNL     1      -5.036  11.657  23.338  0.00  0.00    +0.000 HD
ATOM     23  H   UNL     1      -5.205  13.058  24.338  0.00  0.00    +0.000 HD
ENDBRANCH   7  19
BRANCH   9  24
ATOM     24  C   UNL     1      -5.597  11.850  18.037  0.00  0.00    +0.000 C 
ATOM     25  N   UNL     1      -5.802  12.787  17.061  0.00  0.00    +0.000 N 
ATOM     26  O   UNL     1      -6.306  10.853  18.071  0.00  0.00    +0.000 OA
ATOM     27  H   UNL     1      -5.211  13.587  16.890  0.00  0.00    +0.000 HD
ATOM     28  H   UNL     1      -6.547  12.605  16.399  0.00  0.00    +0.000 HD
ENDBRANCH   9  24
BRANCH   1  30
ATOM     29  C   UNL     1      -3.144  10.612  15.122  0.00  0.00    +0.000 C 
ATOM     30  N   UNL     1      -3.019  11.549  16.248  0.00  0.00    +0.000 NA
ATOM     31  H   UNL     1      -3.959  11.950  16.359  0.00  0.00    +0.000 HD
ENDBRANCH   1  30
TORSDOF 4
ENDMDL
MODEL 5
REMARK VINA RESULT:      -6.9      6.488      9.674
REMARK  Name = 
REMARK  5 active torsions:
REMARK  status: ('A' for Active; 'I' for Inactive)
REMARK    1  A    between atoms: C_1  and  N_2
REMARK    2  A    between atoms: N_2  and  C_3
REMARK    3  A    between atoms: C_6  and  C_7
REMARK    4  A    between atoms: C_17  and  C_18
REMARK    5  A    between atoms: C_22  and  C_23
REMARK                            x       y       z     vdW  Elec       q    Type
REMARK                         _______ _______ _______ _____ _____    ______ ____
ROOT
ATOM      1  C   UNL     1      -0.361  12.886  21.434  0.00  0.00    +0.000 C 
ATOM      2  C   UNL     1       1.138  12.746  21.055  0.00  0.00    +0.000 C 
ATOM      3  C   UNL     1       1.418  12.918  19.579  0.00  0.00    +0.000 C 
ATOM      4  C   UNL     1       0.619  11.913  18.758  0.00  0.00    +0.000 C 
ATOM      5  C   UNL     1      -0.862  12.002  19.074  0.00  0.00    +0.000 A 
ATOM      6  C   UNL     1      -1.734  11.650  18.021  0.00  0.00    +0.000 A 
ATOM      7  C   UNL     1      -3.108  11.713  18.183  0.00  0.00    +0.000 A 
ATOM      8  C   UNL     1      -3.622  12.126  19.413  0.00  0.00    +0.000 A 
ATOM      9  C   UNL     1      -2.774  12.461  20.494  0.00  0.00    +0.000 A 
ATOM     10  C   UNL     1      -1.355  12.408  20.345  0.00  0.00    +0.000 A 
ENDROOT
BRANCH   4  11
ATOM     11  C   UNL     1       1.146  10.481  18.819  0.00  0.00    +0.000 A 
ATOM     12  C   UNL     1       1.929   9.918  17.796  0.00  0.00    +0.000 A 
ATOM     13  C   UNL     1       2.426   8.616  17.907  0.00  0.00    +0.000 A 
ATOM     14  C   UNL     1       2.147   7.853  19.042  0.00  0.00    +0.000 A 
ATOM     15 CL   UNL     1       2.799   6.256  19.119  0.00  0.00    +0.000 Cl
ATOM     16  C   UNL     1       1.367   8.398  20.067  0.00  0.00    +0.000 A 
ATOM     17 CL   UNL     1       0.998   7.528  21.513  0.00  0.00    +0.000 Cl
ATOM     18  C   UNL     1       0.867   9.699  19.951  0.00  0.00    +0.000 A 
ENDBRANCH   4  11
BRANCH   7  19
ATOM     19  C   UNL     1      -4.034  11.438  17.052  0.00  0.00    +0.000 C 
ATOM     20  N   UNL     1      -3.527  11.463  15.784  0.00  0.00    +0.000 N 
ATOM     21  O   UNL     1      -5.216  11.182  17.254  0.00  0.00    +0.000 OA
ATOM     22  H   UNL     1      -2.541  11.490  15.570  0.00  0.00    +0.000 HD
ATOM     23  H   UNL     1      -4.162  11.220  15.034  0.00  0.00    +0.000 HD
ENDBRANCH   7  19
BRANCH   9  24
ATOM     24  C   UNL     1      -3.440  12.951  21.746  0.00  0.00    +0.000 C 
ATOM     25  N   UNL     1      -3.736  14.284  21.839  0.00  0.00    +0.000 N 
ATOM     26  O   UNL     1      -3.740  12.203  22.666  0.00  0.00    +0.000 OA
ATOM     27  H   UNL     1      -3.620  14.959  21.099  0.00  0.00    +0.000 HD
ATOM     28  H   UNL     1      -4.201  14.593  22.685  0.00  0.00    +0.000 HD
ENDBRANCH   9  24
BRANCH   1  30
ATOM     29  C   UNL     1      -0.520  10.747  22.616  0.00  0.00    +0.000 C 
ATOM     30  N   UNL     1      -0.541  12.211  22.742  0.00  0.00    +0.000 NA
ATOM     31  H   UNL     1       0.293  12.438  23.300  0.00  0.00    +0.000 HD
ENDBRANCH   1  30
TORSDOF 4
ENDMDL
MODEL 6
REMARK VINA RESULT:      -6.8      4.116      6.104
REMARK  Name = 
REMARK  5 active torsions:
REMARK  status: ('A' for Active; 'I' for Inactive)
REMARK    1  A    between atoms: C_1  and  N_2
REMARK    2  A    between atoms: N_2  and  C_3
REMARK    3  A    between atoms: C_6  and  C_7
REMARK    4  A    between atoms: C_17  and  C_18
REMARK    5  A    between atoms: C_22  and  C_23
REMARK                            x       y       z     vdW  Elec       q    Type
REMARK                         _______ _______ _______ _____ _____    ______ ____
ROOT
ATOM      1  C   UNL     1       4.662   3.767  19.811  0.00  0.00    +0.000 C 
ATOM      2  C   UNL     1       6.070   3.591  19.183  0.00  0.00    +0.000 C 
ATOM      3  C   UNL     1       6.744   4.892  18.809  0.00  0.00    +0.000 C 
ATOM      4  C   UNL     1       5.881   5.687  17.838  0.00  0.00    +0.000 C 
ATOM      5  C   UNL     1       4.486   5.904  18.396  0.00  0.00    +0.000 A 
ATOM      6  C   UNL     1       3.833   7.080  17.968  0.00  0.00    +0.000 A 
ATOM      7  C   UNL     1       2.566   7.398  18.427  0.00  0.00    +0.000 A 
ATOM      8  C   UNL     1       1.937   6.529  19.320  0.00  0.00    +0.000 A 
ATOM      9  C   UNL     1       2.556   5.331  19.746  0.00  0.00    +0.000 A 
ATOM     10  C   UNL     1       3.864   4.989  19.289  0.00  0.00    +0.000 A 
ENDROOT
BRANCH   4  11
ATOM     11  C   UNL     1       5.862   5.142  16.411  0.00  0.00    +0.000 A 
ATOM     12  C   UNL     1       4.808   4.357  15.913  0.00  0.00    +0.000 A 
ATOM     13  C   UNL     1       4.809   3.911  14.589  0.00  0.00    +0.000 A 
ATOM     14  C   UNL     1       5.866   4.240  13.738  0.00  0.00    +0.000 A 
ATOM     15 CL   UNL     1       5.801   3.663  12.112  0.00  0.00    +0.000 Cl
ATOM     16  C   UNL     1       6.924   5.018  14.219  0.00  0.00    +0.000 A 
ATOM     17 CL   UNL     1       8.257   5.487  13.224  0.00  0.00    +0.000 Cl
ATOM     18  C   UNL     1       6.922   5.459  15.547  0.00  0.00    +0.000 A 
ENDBRANCH   4  11
BRANCH   7  19
ATOM     19  C   UNL     1       1.908   8.681  18.060  0.00  0.00    +0.000 C 
ATOM     20  N   UNL     1       0.940   9.169  18.891  0.00  0.00    +0.000 N 
ATOM     21  O   UNL     1       2.236   9.288  17.047  0.00  0.00    +0.000 OA
ATOM     22  H   UNL     1       0.757   8.811  19.817  0.00  0.00    +0.000 HD
ATOM     23  H   UNL     1       0.545  10.070  18.650  0.00  0.00    +0.000 HD
ENDBRANCH   7  19
BRANCH   9  24
ATOM     24  C   UNL     1       1.809   4.509  20.755  0.00  0.00    +0.000 C 
ATOM     25  N   UNL     1       0.582   4.016  20.403  0.00  0.00    +0.000 N 
ATOM     26  O   UNL     1       2.265   4.252  21.861  0.00  0.00    +0.000 OA
ATOM     27  H   UNL     1       0.167   4.087  19.487  0.00  0.00    +0.000 HD
ATOM     28  H   UNL     1       0.100   3.449  21.092  0.00  0.00    +0.000 HD
ENDBRANCH   9  24
BRANCH   1  30
ATOM     29  C   UNL     1       3.603   2.212  18.243  0.00  0.00    +0.000 C 
ATOM     30  N   UNL     1       3.950   2.477  19.647  0.00  0.00    +0.000 NA
ATOM     31  H   UNL     1       4.627   1.742  19.892  0.00  0.00    +0.000 HD
ENDBRANCH   1  30
TORSDOF 4
ENDMDL
MODEL 7
REMARK VINA RESULT:      -6.8      6.683     10.011
REMARK  Name = 
REMARK  5 active torsions:
REMARK  status: ('A' for Active; 'I' for Inactive)
REMARK    1  A    between atoms: C_1  and  N_2
REMARK    2  A    between atoms: N_2  and  C_3
REMARK    3  A    between atoms: C_6  and  C_7
REMARK    4  A    between atoms: C_17  and  C_18
REMARK    5  A    between atoms: C_22  and  C_23
REMARK                            x       y       z     vdW  Elec       q    Type
REMARK                         _______ _______ _______ _____ _____    ______ ____
ROOT
ATOM      1  C   UNL     1      -1.005  13.107  21.135  0.00  0.00    +0.000 C 
ATOM      2  C   UNL     1       0.517  13.024  20.846  0.00  0.00    +0.000 C 
ATOM      3  C   UNL     1       0.869  13.106  19.378  0.00  0.00    +0.000 C 
ATOM      4  C   UNL     1       0.171  12.002  18.594  0.00  0.00    +0.000 C 
ATOM      5  C   UNL     1      -1.329  12.030  18.825  0.00  0.00    +0.000 A 
ATOM      6  C   UNL     1      -2.121  11.556  17.757  0.00  0.00    +0.000 A 
ATOM      7  C   UNL     1      -3.504  11.554  17.842  0.00  0.00    +0.000 A 
ATOM      8  C   UNL     1      -4.106  12.025  19.010  0.00  0.00    +0.000 A 
ATOM      9  C   UNL     1      -3.337  12.483  20.106  0.00  0.00    +0.000 A 
ATOM     10  C   UNL     1      -1.912  12.498  20.035  0.00  0.00    +0.000 A 
ENDROOT
BRANCH   4  11
ATOM     11  C   UNL     1       0.767  10.610  18.787  0.00  0.00    +0.000 A 
ATOM     12  C   UNL     1       1.565   9.985  17.813  0.00  0.00    +0.000 A 
ATOM     13  C   UNL     1       2.125   8.726  18.045  0.00  0.00    +0.000 A 
ATOM     14  C   UNL     1       1.896   8.067  19.253  0.00  0.00    +0.000 A 
ATOM     15 CL   UNL     1       2.625   6.518  19.478  0.00  0.00    +0.000 Cl
ATOM     16  C   UNL     1       1.102   8.673  20.232  0.00  0.00    +0.000 A 
ATOM     17 CL   UNL     1       0.790   7.935  21.762  0.00  0.00    +0.000 Cl
ATOM     18  C   UNL     1       0.538   9.932  19.995  0.00  0.00    +0.000 A 
ENDBRANCH   4  11
BRANCH   7  19
ATOM     19  C   UNL     1      -4.350  11.148  16.689  0.00  0.00    +0.000 C 
ATOM     20  N   UNL     1      -5.667  11.508  16.699  0.00  0.00    +0.000 N 
ATOM     21  O   UNL     1      -3.874  10.520  15.750  0.00  0.00    +0.000 OA
ATOM     22  H   UNL     1      -6.068  12.169  17.347  0.00  0.00    +0.000 HD
ATOM     23  H   UNL     1      -6.212  11.268  15.879  0.00  0.00    +0.000 HD
ENDBRANCH   7  19
BRANCH   9  24
ATOM     24  C   UNL     1      -4.096  13.023  21.282  0.00  0.00    +0.000 C 
ATOM     25  N   UNL     1      -4.451  14.345  21.269  0.00  0.00    +0.000 N 
ATOM     26  O   UNL     1      -4.422  12.323  22.231  0.00  0.00    +0.000 OA
ATOM     27  H   UNL     1      -4.317  14.975  20.493  0.00  0.00    +0.000 HD
ATOM     28  H   UNL     1      -4.977  14.687  22.064  0.00  0.00    +0.000 HD
ENDBRANCH   9  24
BRANCH   1  30
ATOM     29  C   UNL     1      -1.399  13.549  23.512  0.00  0.00    +0.000 C 
ATOM     30  N   UNL     1      -1.223  12.518  22.479  0.00  0.00    +0.000 NA
ATOM     31  H   UNL     1      -2.131  12.034  22.436  0.00  0.00    +0.000 HD
ENDBRANCH   1  30
TORSDOF 4
ENDMDL
MODEL 8
REMARK VINA RESULT:      -6.8      8.412     10.747
REMARK  Name = 
REMARK  5 active torsions:
REMARK  status: ('A' for Active; 'I' for Inactive)
REMARK    1  A    between atoms: C_1  and  N_2
REMARK    2  A    between atoms: N_2  and  C_3
REMARK    3  A    between atoms: C_6  and  C_7
REMARK    4  A    between atoms: C_17  and  C_18
REMARK    5  A    between atoms: C_22  and  C_23
REMARK                            x       y       z     vdW  Elec       q    Type
REMARK                         _______ _______ _______ _____ _____    ______ ____
ROOT
ATOM      1  C   UNL     1      -2.591  10.947  17.758  0.00  0.00    +0.000 C 
ATOM      2  C   UNL     1      -1.078  10.613  17.839  0.00  0.00    +0.000 C 
ATOM      3  C   UNL     1      -0.574  10.377  19.245  0.00  0.00    +0.000 C 
ATOM      4  C   UNL     1      -0.847  11.589  20.126  0.00  0.00    +0.000 C 
ATOM      5  C   UNL     1      -2.317  11.966  20.100  0.00  0.00    +0.000 A 
ATOM      6  C   UNL     1      -2.811  12.584  21.269  0.00  0.00    +0.000 A 
ATOM      7  C   UNL     1      -4.142  12.953  21.372  0.00  0.00    +0.000 A 
ATOM      8  C   UNL     1      -4.992  12.710  20.293  0.00  0.00    +0.000 A 
ATOM      9  C   UNL     1      -4.520  12.115  19.099  0.00  0.00    +0.000 A 
ATOM     10  C   UNL     1      -3.154  11.723  18.976  0.00  0.00    +0.000 A 
ENDROOT
BRANCH   4  11
ATOM     11  C   UNL     1       0.068  12.783  19.866  0.00  0.00    +0.000 A 
ATOM     12  C   UNL     1      -0.289  13.840  19.011  0.00  0.00    +0.000 A 
ATOM     13  C   UNL     1       0.560  14.935  18.830  0.00  0.00    +0.000 A 
ATOM     14  C   UNL     1       1.783  14.993  19.498  0.00  0.00    +0.000 A 
ATOM     15 CL   UNL     1       2.781  16.377  19.236  0.00  0.00    +0.000 Cl
ATOM     16  C   UNL     1       2.156  13.948  20.350  0.00  0.00    +0.000 A 
ATOM     17 CL   UNL     1       3.641  13.955  21.232  0.00  0.00    +0.000 Cl
ATOM     18  C   UNL     1       1.306  12.851  20.526  0.00  0.00    +0.000 A 
ENDBRANCH   4  11
BRANCH   7  19
ATOM     19  C   UNL     1      -4.694  13.516  22.634  0.00  0.00    +0.000 C 
ATOM     20  N   UNL     1      -5.093  12.644  23.606  0.00  0.00    +0.000 N 
ATOM     21  O   UNL     1      -4.775  14.728  22.800  0.00  0.00    +0.000 OA
ATOM     22  H   UNL     1      -4.888  11.656  23.599  0.00  0.00    +0.000 HD
ATOM     23  H   UNL     1      -5.415  13.049  24.477  0.00  0.00    +0.000 HD
ENDBRANCH   7  19
BRANCH   9  24
ATOM     24  C   UNL     1      -5.540  11.846  18.032  0.00  0.00    +0.000 C 
ATOM     25  N   UNL     1      -5.692  12.772  17.037  0.00  0.00    +0.000 N 
ATOM     26  O   UNL     1      -6.219  10.828  18.014  0.00  0.00    +0.000 OA
ATOM     27  H   UNL     1      -5.114  13.589  16.909  0.00  0.00    +0.000 HD
ATOM     28  H   UNL     1      -6.374  12.565  16.316  0.00  0.00    +0.000 HD
ENDBRANCH   9  24
BRANCH   1  30
ATOM     29  C   UNL     1      -2.971  10.678  15.353  0.00  0.00    +0.000 C 
ATOM     30  N   UNL     1      -2.815  11.631  16.462  0.00  0.00    +0.000 NA
ATOM     31  H   UNL     1      -3.730  12.096  16.537  0.00  0.00    +0.000 HD
ENDBRANCH   1  30
TORSDOF 4
ENDMDL
MODEL 9
REMARK VINA RESULT:      -6.7      9.416     12.157
REMARK  Name = 
REMARK  5 active torsions:
REMARK  status: ('A' for Active; 'I' for Inactive)
REMARK    1  A    between atoms: C_1  and  N_2
REMARK    2  A    between atoms: N_2  and  C_3
REMARK    3  A    between atoms: C_6  and  C_7
REMARK    4  A    between atoms: C_17  and  C_18
REMARK    5  A    between atoms: C_22  and  C_23
REMARK                            x       y       z     vdW  Elec       q    Type
REMARK                         _______ _______ _______ _____ _____    ______ ____
ROOT
ATOM      1  C   UNL     1      -6.385  12.663  21.915  0.00  0.00    +0.000 C 
ATOM      2  C   UNL     1      -7.643  12.574  21.012  0.00  0.00    +0.000 C 
ATOM      3  C   UNL     1      -7.448  11.742  19.764  0.00  0.00    +0.000 C 
ATOM      4  C   UNL     1      -6.295  12.284  18.929  0.00  0.00    +0.000 C 
ATOM      5  C   UNL     1      -5.025  12.389  19.752  0.00  0.00    +0.000 A 
ATOM      6  C   UNL     1      -3.818  12.247  19.034  0.00  0.00    +0.000 A 
ATOM      7  C   UNL     1      -2.594  12.301  19.681  0.00  0.00    +0.000 A 
ATOM      8  C   UNL     1      -2.571  12.507  21.060  0.00  0.00    +0.000 A 
ATOM      9  C   UNL     1      -3.763  12.677  21.803  0.00  0.00    +0.000 A 
ATOM     10  C   UNL     1      -5.034  12.619  21.156  0.00  0.00    +0.000 A 
ENDROOT
BRANCH   4  11
ATOM     11  C   UNL     1      -6.610  13.572  18.172  0.00  0.00    +0.000 A 
ATOM     12  C   UNL     1      -7.108  13.575  16.857  0.00  0.00    +0.000 A 
ATOM     13  C   UNL     1      -7.422  14.775  16.212  0.00  0.00    +0.000 A 
ATOM     14  C   UNL     1      -7.240  15.993  16.867  0.00  0.00    +0.000 A 
ATOM     15 CL   UNL     1      -7.654  17.437  16.016  0.00  0.00    +0.000 Cl
ATOM     16  C   UNL     1      -6.741  16.008  18.175  0.00  0.00    +0.000 A 
ATOM     17 CL   UNL     1      -6.510  17.471  19.063  0.00  0.00    +0.000 Cl
ATOM     18  C   UNL     1      -6.424  14.805  18.816  0.00  0.00    +0.000 A 
ENDBRANCH   4  11
BRANCH   7  19
ATOM     19  C   UNL     1      -1.321  12.056  18.951  0.00  0.00    +0.000 C 
ATOM     20  N   UNL     1      -1.157  12.644  17.729  0.00  0.00    +0.000 N 
ATOM     21  O   UNL     1      -0.439  11.358  19.438  0.00  0.00    +0.000 OA
ATOM     22  H   UNL     1      -1.763  13.363  17.361  0.00  0.00    +0.000 HD
ATOM     23  H   UNL     1      -0.262  12.508  17.274  0.00  0.00    +0.000 HD
ENDBRANCH   7  19
BRANCH   9  24
ATOM     24  C   UNL     1      -3.616  12.829  23.288  0.00  0.00    +0.000 C 
ATOM     25  N   UNL     1      -3.436  14.088  23.793  0.00  0.00    +0.000 N 
ATOM     26  O   UNL     1      -3.670  11.876  24.054  0.00  0.00    +0.000 OA
ATOM     27  H   UNL     1      -3.477  14.941  23.257  0.00  0.00    +0.000 HD
ATOM     28  H   UNL     1      -3.355  14.171  24.800  0.00  0.00    +0.000 HD
ENDBRANCH   9  24
BRANCH   1  30
ATOM     29  C   UNL     1      -7.291  13.566  24.003  0.00  0.00    +0.000 C 
ATOM     30  N   UNL     1      -6.548  13.863  22.769  0.00  0.00    +0.000 NA
ATOM     31  H   UNL     1      -5.604  14.119  23.089  0.00  0.00    +0.000 HD
ENDBRANCH   1  30
TORSDOF 4
ENDMDL
