MODEL 1
REMARK VINA RESULT:      -6.1      0.000      0.000
REMARK  Name = 
REMARK  5 active torsions:
REMARK  status: ('A' for Active; 'I' for Inactive)
REMARK    1  A    between atoms: C_1  and  C_2
REMARK    2  A    between atoms: C_2  and  S_3
REMARK    3  A    between atoms: S_3  and  C_6
REMARK    4  A    between atoms: C_9  and  C_10
REMARK    5  A    between atoms: C_10  and  N_11
REMARK                            x       y       z     vdW  Elec       q    Type
REMARK                         _______ _______ _______ _____ _____    ______ ____
ROOT
ATOM      1  C   UNL     1       5.649   4.949  17.421  0.00  0.00    +0.000 A 
ATOM      2  C   UNL     1       4.909   5.642  18.382  0.00  0.00    +0.000 A 
ATOM      3  C   UNL     1       3.556   5.345  18.557  0.00  0.00    +0.000 A 
ATOM      4  C   UNL     1       2.924   4.370  17.768  0.00  0.00    +0.000 A 
ATOM      5  C   UNL     1       3.699   3.657  16.837  0.00  0.00    +0.000 A 
ATOM      6  C   UNL     1       5.050   3.953  16.664  0.00  0.00    +0.000 A 
ATOM      7  F   UNL     1       5.753   3.253  15.764  0.00  0.00    +0.000 F 
ENDROOT
BRANCH   1   8
ATOM      8  S   UNL     1       7.338   5.371  17.131  0.00  0.00    +0.000 S 
ATOM      9  O   UNL     1       7.396   5.981  15.815  0.00  0.00    +0.000 OA
ATOM     10  O   UNL     1       8.134   4.196  17.433  0.00  0.00    +0.000 OA
BRANCH   8  12
ATOM     11  C   UNL     1       7.796   8.010  17.653  0.00  0.00    +0.000 C 
ATOM     12  C   UNL     1       7.708   6.649  18.319  0.00  0.00    +0.000 C 
ENDBRANCH   8  12
ENDBRANCH   1   8
BRANCH   4  13
ATOM     13  C   UNL     1       1.457   4.080  17.987  0.00  0.00    +0.000 C 
BRANCH  13  14
ATOM     14  N   UNL     1       1.220   3.036  18.977  0.00  0.00    +0.000 NA
ATOM     15  H   UNL     1       1.848   3.184  19.768  0.00  0.00    +0.000 HD
ATOM     16  H   UNL     1       1.481   2.136  18.578  0.00  0.00    +0.000 HD
ENDBRANCH  13  14
ENDBRANCH   4  13
TORSDOF 4
ENDMDL
MODEL 2
REMARK VINA RESULT:      -6.1      1.166      1.311
REMARK  Name = 
REMARK  5 active torsions:
REMARK  status: ('A' for Active; 'I' for Inactive)
REMARK    1  A    between atoms: C_1  and  C_2
REMARK    2  A    between atoms: C_2  and  S_3
REMARK    3  A    between atoms: S_3  and  C_6
REMARK    4  A    between atoms: C_9  and  C_10
REMARK    5  A    between atoms: C_10  and  N_11
REMARK                            x       y       z     vdW  Elec       q    Type
REMARK                         _______ _______ _______ _____ _____    ______ ____
ROOT
ATOM      1  C   UNL     1       5.702   4.471  18.073  0.00  0.00    +0.000 A 
ATOM      2  C   UNL     1       5.081   4.307  19.313  0.00  0.00    +0.000 A 
ATOM      3  C   UNL     1       3.760   3.857  19.368  0.00  0.00    +0.000 A 
ATOM      4  C   UNL     1       3.042   3.584  18.192  0.00  0.00    +0.000 A 
ATOM      5  C   UNL     1       3.702   3.717  16.959  0.00  0.00    +0.000 A 
ATOM      6  C   UNL     1       5.021   4.165  16.905  0.00  0.00    +0.000 A 
ATOM      7  F   UNL     1       5.614   4.282  15.709  0.00  0.00    +0.000 F 
ENDROOT
BRANCH   1   8
ATOM      8  S   UNL     1       7.342   5.119  17.985  0.00  0.00    +0.000 S 
ATOM      9  O   UNL     1       8.089   4.247  17.098  0.00  0.00    +0.000 OA
ATOM     10  O   UNL     1       7.791   5.342  19.347  0.00  0.00    +0.000 OA
BRANCH   8  12
ATOM     11  C   UNL     1       7.931   7.782  17.899  0.00  0.00    +0.000 C 
ATOM     12  C   UNL     1       7.177   6.691  17.160  0.00  0.00    +0.000 C 
ENDBRANCH   8  12
ENDBRANCH   1   8
BRANCH   4  13
ATOM     13  C   UNL     1       1.614   3.101  18.295  0.00  0.00    +0.000 C 
BRANCH  13  14
ATOM     14  N   UNL     1       1.508   1.703  18.698  0.00  0.00    +0.000 NA
ATOM     15  H   UNL     1       2.438   1.284  18.683  0.00  0.00    +0.000 HD
ATOM     16  H   UNL     1       0.963   1.199  18.001  0.00  0.00    +0.000 HD
ENDBRANCH  13  14
ENDBRANCH   4  13
TORSDOF 4
ENDMDL
MODEL 3
REMARK VINA RESULT:      -5.9      2.303      2.814
REMARK  Name = 
REMARK  5 active torsions:
REMARK  status: ('A' for Active; 'I' for Inactive)
REMARK    1  A    between atoms: C_1  and  C_2
REMARK    2  A    between atoms: C_2  and  S_3
REMARK    3  A    between atoms: S_3  and  C_6
REMARK    4  A    between atoms: C_9  and  C_10
REMARK    5  A    between atoms: C_10  and  N_11
REMARK                            x       y       z     vdW  Elec       q    Type
REMARK                         _______ _______ _______ _____ _____    ______ ____
ROOT
ATOM      1  C   UNL     1       4.189   5.068  17.165  0.00  0.00    +0.000 A 
ATOM      2  C   UNL     1       4.181   3.674  17.080  0.00  0.00    +0.000 A 
ATOM      3  C   UNL     1       3.103   2.958  17.605  0.00  0.00    +0.000 A 
ATOM      4  C   UNL     1       2.036   3.619  18.233  0.00  0.00    +0.000 A 
ATOM      5  C   UNL     1       2.047   5.024  18.270  0.00  0.00    +0.000 A 
ATOM      6  C   UNL     1       3.122   5.739  17.744  0.00  0.00    +0.000 A 
ATOM      7  F   UNL     1       3.096   7.077  17.801  0.00  0.00    +0.000 F 
ENDROOT
BRANCH   1   8
ATOM      8  S   UNL     1       5.582   5.982  16.581  0.00  0.00    +0.000 S 
ATOM      9  O   UNL     1       6.036   6.804  17.687  0.00  0.00    +0.000 OA
ATOM     10  O   UNL     1       5.201   6.591  15.321  0.00  0.00    +0.000 OA
BRANCH   8  12
ATOM     11  C   UNL     1       7.698   4.535  17.516  0.00  0.00    +0.000 C 
ATOM     12  C   UNL     1       6.846   4.760  16.280  0.00  0.00    +0.000 C 
ENDBRANCH   8  12
ENDBRANCH   1   8
BRANCH   4  13
ATOM     13  C   UNL     1       0.890   2.807  18.791  0.00  0.00    +0.000 C 
BRANCH  13  14
ATOM     14  N   UNL     1       0.572   3.139  20.175  0.00  0.00    +0.000 NA
ATOM     15  H   UNL     1       1.156   2.574  20.792  0.00  0.00    +0.000 HD
ATOM     16  H   UNL     1      -0.389   2.862  20.369  0.00  0.00    +0.000 HD
ENDBRANCH  13  14
ENDBRANCH   4  13
TORSDOF 4
ENDMDL
MODEL 4
REMARK VINA RESULT:      -5.9      2.083      2.908
REMARK  Name = 
REMARK  5 active torsions:
REMARK  status: ('A' for Active; 'I' for Inactive)
REMARK    1  A    between atoms: C_1  and  C_2
REMARK    2  A    between atoms: C_2  and  S_3
REMARK    3  A    between atoms: S_3  and  C_6
REMARK    4  A    between atoms: C_9  and  C_10
REMARK    5  A    between atoms: C_10  and  N_11
REMARK                            x       y       z     vdW  Elec       q    Type
REMARK                         _______ _______ _______ _____ _____    ______ ____
ROOT
ATOM      1  C   UNL     1       5.622   4.997  17.413  0.00  0.00    +0.000 A 
ATOM      2  C   UNL     1       4.417   4.573  16.849  0.00  0.00    +0.000 A 
ATOM      3  C   UNL     1       3.267   4.518  17.641  0.00  0.00    +0.000 A 
ATOM      4  C   UNL     1       3.310   4.868  19.000  0.00  0.00    +0.000 A 
ATOM      5  C   UNL     1       4.524   5.332  19.534  0.00  0.00    +0.000 A 
ATOM      6  C   UNL     1       5.671   5.388  18.743  0.00  0.00    +0.000 A 
ATOM      7  F   UNL     1       6.811   5.832  19.291  0.00  0.00    +0.000 F 
ENDROOT
BRANCH   1   8
ATOM      8  S   UNL     1       7.100   4.991  16.449  0.00  0.00    +0.000 S 
ATOM      9  O   UNL     1       8.053   4.149  17.148  0.00  0.00    +0.000 OA
ATOM     10  O   UNL     1       7.425   6.373  16.148  0.00  0.00    +0.000 OA
BRANCH   8  12
ATOM     11  C   UNL     1       7.161   4.913  13.722  0.00  0.00    +0.000 C 
ATOM     12  C   UNL     1       6.666   4.151  14.937  0.00  0.00    +0.000 C 
ENDBRANCH   8  12
ENDBRANCH   1   8
BRANCH   4  13
ATOM     13  C   UNL     1       2.044   4.793  19.821  0.00  0.00    +0.000 C 
BRANCH  13  14
ATOM     14  N   UNL     1       1.955   5.839  20.834  0.00  0.00    +0.000 NA
ATOM     15  H   UNL     1       2.892   6.194  21.026  0.00  0.00    +0.000 HD
ATOM     16  H   UNL     1       1.628   5.427  21.706  0.00  0.00    +0.000 HD
ENDBRANCH  13  14
ENDBRANCH   4  13
TORSDOF 4
ENDMDL
MODEL 5
REMARK VINA RESULT:      -5.8      2.227      2.870
REMARK  Name = 
REMARK  5 active torsions:
REMARK  status: ('A' for Active; 'I' for Inactive)
REMARK    1  A    between atoms: C_1  and  C_2
REMARK    2  A    between atoms: C_2  and  S_3
REMARK    3  A    between atoms: S_3  and  C_6
REMARK    4  A    between atoms: C_9  and  C_10
REMARK    5  A    between atoms: C_10  and  N_11
REMARK                            x       y       z     vdW  Elec       q    Type
REMARK                         _______ _______ _______ _____ _____    ______ ____
ROOT
ATOM      1  C   UNL     1       5.709   5.570  17.522  0.00  0.00    +0.000 A 
ATOM      2  C   UNL     1       5.585   4.828  18.699  0.00  0.00    +0.000 A 
ATOM      3  C   UNL     1       4.432   4.955  19.477  0.00  0.00    +0.000 A 
ATOM      4  C   UNL     1       3.402   5.832  19.101  0.00  0.00    +0.000 A 
ATOM      5  C   UNL     1       3.531   6.537  17.892  0.00  0.00    +0.000 A 
ATOM      6  C   UNL     1       4.681   6.408  17.115  0.00  0.00    +0.000 A 
ATOM      7  F   UNL     1       4.767   7.099  15.971  0.00  0.00    +0.000 F 
ENDROOT
BRANCH   1   8
ATOM      8  S   UNL     1       7.195   5.483  16.574  0.00  0.00    +0.000 S 
ATOM      9  O   UNL     1       8.004   4.431  17.161  0.00  0.00    +0.000 OA
ATOM     10  O   UNL     1       7.713   6.833  16.461  0.00  0.00    +0.000 OA
BRANCH   8  12
ATOM     11  C   UNL     1       5.850   3.652  15.062  0.00  0.00    +0.000 C 
ATOM     12  C   UNL     1       6.685   4.915  14.962  0.00  0.00    +0.000 C 
ENDBRANCH   8  12
ENDBRANCH   1   8
BRANCH   4  13
ATOM     13  C   UNL     1       2.172   5.942  19.971  0.00  0.00    +0.000 C 
BRANCH  13  14
ATOM     14  N   UNL     1       2.259   5.147  21.191  0.00  0.00    +0.000 NA
ATOM     15  H   UNL     1       1.394   4.617  21.301  0.00  0.00    +0.000 HD
ATOM     16  H   UNL     1       2.307   5.774  21.992  0.00  0.00    +0.000 HD
ENDBRANCH  13  14
ENDBRANCH   4  13
TORSDOF 4
ENDMDL
MODEL 6
REMARK VINA RESULT:      -5.8      3.820      5.326
REMARK  Name = 
REMARK  5 active torsions:
REMARK  status: ('A' for Active; 'I' for Inactive)
REMARK    1  A    between atoms: C_1  and  C_2
REMARK    2  A    between atoms: C_2  and  S_3
REMARK    3  A    between atoms: S_3  and  C_6
REMARK    4  A    between atoms: C_9  and  C_10
REMARK    5  A    between atoms: C_10  and  N_11
REMARK                            x       y       z     vdW  Elec       q    Type
REMARK                         _______ _______ _______ _____ _____    ______ ____
ROOT
ATOM      1  C   UNL     1       3.476   4.214  18.377  0.00  0.00    +0.000 A 
ATOM      2  C   UNL     1       3.990   4.873  19.497  0.00  0.00    +0.000 A 
ATOM      3  C   UNL     1       5.313   5.322  19.486  0.00  0.00    +0.000 A 
ATOM      4  C   UNL     1       6.138   5.105  18.371  0.00  0.00    +0.000 A 
ATOM      5  C   UNL     1       5.587   4.477  17.241  0.00  0.00    +0.000 A 
ATOM      6  C   UNL     1       4.266   4.031  17.252  0.00  0.00    +0.000 A 
ATOM      7  F   UNL     1       3.778   3.434  16.156  0.00  0.00    +0.000 F 
ENDROOT
BRANCH   1   8
ATOM      8  S   UNL     1       1.834   3.568  18.408  0.00  0.00    +0.000 S 
ATOM      9  O   UNL     1       1.954   2.121  18.401  0.00  0.00    +0.000 OA
ATOM     10  O   UNL     1       1.083   4.247  17.369  0.00  0.00    +0.000 OA
BRANCH   8  12
ATOM     11  C   UNL     1       1.245   2.876  20.981  0.00  0.00    +0.000 C 
ATOM     12  C   UNL     1       1.181   4.033  20.001  0.00  0.00    +0.000 C 
ENDBRANCH   8  12
ENDBRANCH   1   8
BRANCH   4  13
ATOM     13  C   UNL     1       7.564   5.604  18.401  0.00  0.00    +0.000 C 
BRANCH  13  14
ATOM     14  N   UNL     1       8.168   5.537  19.727  0.00  0.00    +0.000 NA
ATOM     15  H   UNL     1       8.370   4.562  19.948  0.00  0.00    +0.000 HD
ATOM     16  H   UNL     1       7.485   5.845  20.417  0.00  0.00    +0.000 HD
ENDBRANCH  13  14
ENDBRANCH   4  13
TORSDOF 4
ENDMDL
MODEL 7
REMARK VINA RESULT:      -5.8      1.828      2.264
REMARK  Name = 
REMARK  5 active torsions:
REMARK  status: ('A' for Active; 'I' for Inactive)
REMARK    1  A    between atoms: C_1  and  C_2
REMARK    2  A    between atoms: C_2  and  S_3
REMARK    3  A    between atoms: S_3  and  C_6
REMARK    4  A    between atoms: C_9  and  C_10
REMARK    5  A    between atoms: C_10  and  N_11
REMARK                            x       y       z     vdW  Elec       q    Type
REMARK                         _______ _______ _______ _____ _____    ______ ____
ROOT
ATOM      1  C   UNL     1       4.777   4.427  17.815  0.00  0.00    +0.000 A 
ATOM      2  C   UNL     1       3.836   3.705  17.077  0.00  0.00    +0.000 A 
ATOM      3  C   UNL     1       2.588   3.425  17.637  0.00  0.00    +0.000 A 
ATOM      4  C   UNL     1       2.273   3.843  18.940  0.00  0.00    +0.000 A 
ATOM      5  C   UNL     1       3.220   4.602  19.648  0.00  0.00    +0.000 A 
ATOM      6  C   UNL     1       4.465   4.884  19.087  0.00  0.00    +0.000 A 
ATOM      7  F   UNL     1       5.342   5.608  19.795  0.00  0.00    +0.000 F 
ENDROOT
BRANCH   1   8
ATOM      8  S   UNL     1       6.387   4.717  17.152  0.00  0.00    +0.000 S 
ATOM      9  O   UNL     1       6.430   4.062  15.858  0.00  0.00    +0.000 OA
ATOM     10  O   UNL     1       7.347   4.369  18.184  0.00  0.00    +0.000 OA
BRANCH   8  12
ATOM     11  C   UNL     1       7.544   7.128  17.692  0.00  0.00    +0.000 C 
ATOM     12  C   UNL     1       6.459   6.473  16.856  0.00  0.00    +0.000 C 
ENDBRANCH   8  12
ENDBRANCH   1   8
BRANCH   4  13
ATOM     13  C   UNL     1       0.912   3.516  19.511  0.00  0.00    +0.000 C 
BRANCH  13  14
ATOM     14  N   UNL     1       0.968   3.032  20.886  0.00  0.00    +0.000 NA
ATOM     15  H   UNL     1       1.478   3.709  21.453  0.00  0.00    +0.000 HD
ATOM     16  H   UNL     1       1.518   2.175  20.912  0.00  0.00    +0.000 HD
ENDBRANCH  13  14
ENDBRANCH   4  13
TORSDOF 4
ENDMDL
MODEL 8
REMARK VINA RESULT:      -5.8      2.132      2.860
REMARK  Name = 
REMARK  5 active torsions:
REMARK  status: ('A' for Active; 'I' for Inactive)
REMARK    1  A    between atoms: C_1  and  C_2
REMARK    2  A    between atoms: C_2  and  S_3
REMARK    3  A    between atoms: S_3  and  C_6
REMARK    4  A    between atoms: C_9  and  C_10
REMARK    5  A    between atoms: C_10  and  N_11
REMARK                            x       y       z     vdW  Elec       q    Type
REMARK                         _______ _______ _______ _____ _____    ______ ____
ROOT
ATOM      1  C   UNL     1       5.352   4.534  17.302  0.00  0.00    +0.000 A 
ATOM      2  C   UNL     1       4.242   3.955  16.682  0.00  0.00    +0.000 A 
ATOM      3  C   UNL     1       3.298   3.276  17.455  0.00  0.00    +0.000 A 
ATOM      4  C   UNL     1       3.458   3.151  18.844  0.00  0.00    +0.000 A 
ATOM      5  C   UNL     1       4.561   3.776  19.450  0.00  0.00    +0.000 A 
ATOM      6  C   UNL     1       5.502   4.456  18.678  0.00  0.00    +0.000 A 
ATOM      7  F   UNL     1       6.542   5.036  19.293  0.00  0.00    +0.000 F 
ENDROOT
BRANCH   1   8
ATOM      8  S   UNL     1       6.596   5.323  16.330  0.00  0.00    +0.000 S 
ATOM      9  O   UNL     1       7.784   4.495  16.418  0.00  0.00    +0.000 OA
ATOM     10  O   UNL     1       6.640   6.716  16.734  0.00  0.00    +0.000 OA
BRANCH   8  12
ATOM     11  C   UNL     1       6.521   3.968  13.963  0.00  0.00    +0.000 C 
ATOM     12  C   UNL     1       6.008   5.221  14.649  0.00  0.00    +0.000 C 
ENDBRANCH   8  12
ENDBRANCH   1   8
BRANCH   4  13
ATOM     13  C   UNL     1       2.415   2.404  19.643  0.00  0.00    +0.000 C 
BRANCH  13  14
ATOM     14  N   UNL     1       1.432   1.722  18.808  0.00  0.00    +0.000 NA
ATOM     15  H   UNL     1       0.680   1.373  19.402  0.00  0.00    +0.000 HD
ATOM     16  H   UNL     1       1.866   0.900  18.393  0.00  0.00    +0.000 HD
ENDBRANCH  13  14
ENDBRANCH   4  13
TORSDOF 4
ENDMDL
MODEL 9
REMARK VINA RESULT:      -5.8      1.752      2.193
REMARK  Name = 
REMARK  5 active torsions:
REMARK  status: ('A' for Active; 'I' for Inactive)
REMARK    1  A    between atoms: C_1  and  C_2
REMARK    2  A    between atoms: C_2  and  S_3
REMARK    3  A    between atoms: S_3  and  C_6
REMARK    4  A    between atoms: C_9  and  C_10
REMARK    5  A    between atoms: C_10  and  N_11
REMARK                            x       y       z     vdW  Elec       q    Type
REMARK                         _______ _______ _______ _____ _____    ______ ____
ROOT
ATOM      1  C   UNL     1       4.501   4.914  17.073  0.00  0.00    +0.000 A 
ATOM      2  C   UNL     1       4.277   3.540  16.962  0.00  0.00    +0.000 A 
ATOM      3  C   UNL     1       3.132   2.980  17.535  0.00  0.00    +0.000 A 
ATOM      4  C   UNL     1       2.214   3.776  18.237  0.00  0.00    +0.000 A 
ATOM      5  C   UNL     1       2.440   5.162  18.300  0.00  0.00    +0.000 A 
ATOM      6  C   UNL     1       3.581   5.721  17.726  0.00  0.00    +0.000 A 
ATOM      7  F   UNL     1       3.763   7.046  17.811  0.00  0.00    +0.000 F 
ENDROOT
BRANCH   1   8
ATOM      8  S   UNL     1       5.983   5.623  16.427  0.00  0.00    +0.000 S 
ATOM      9  O   UNL     1       5.585   6.768  15.629  0.00  0.00    +0.000 OA
ATOM     10  O   UNL     1       6.753   4.546  15.834  0.00  0.00    +0.000 OA
BRANCH   8  12
ATOM     11  C   UNL     1       7.561   7.558  17.529  0.00  0.00    +0.000 C 
ATOM     12  C   UNL     1       6.856   6.252  17.849  0.00  0.00    +0.000 C 
ENDBRANCH   8  12
ENDBRANCH   1   8
BRANCH   4  13
ATOM     13  C   UNL     1       0.990   3.131  18.844  0.00  0.00    +0.000 C 
BRANCH  13  14
ATOM     14  N   UNL     1       0.666   3.649  20.168  0.00  0.00    +0.000 NA
ATOM     15  H   UNL     1       1.377   4.329  20.440  0.00  0.00    +0.000 HD
ATOM     16  H   UNL     1       0.731   2.891  20.845  0.00  0.00    +0.000 HD
ENDBRANCH  13  14
ENDBRANCH   4  13
TORSDOF 4
ENDMDL
