MODEL 1
REMARK VINA RESULT:      -7.7      0.000      0.000
REMARK  Name = 
REMARK  11 active torsions:
REMARK  status: ('A' for Active; 'I' for Inactive)
REMARK    1  A    between atoms: C_1  and  C_2
REMARK    2  A    between atoms: C_2  and  N_3
REMARK    3  A    between atoms: C_2  and  C_26
REMARK    4  A    between atoms: N_3  and  C_4
REMARK    5  A    between atoms: C_4  and  C_5
REMARK    6  A    between atoms: C_5  and  C_6
REMARK    7  A    between atoms: C_5  and  N_13
REMARK    8  A    between atoms: C_6  and  C_7
REMARK    9  A    between atoms: N_13  and  S_14
REMARK   10  A    between atoms: S_14  and  C_17
REMARK   11  A    between atoms: C_20  and  N_21
REMARK                            x       y       z     vdW  Elec       q    Type
REMARK                         _______ _______ _______ _____ _____    ______ ____
ROOT
ATOM      1  C   UNL     1       1.787   7.283  19.533  0.00  0.00    +0.000 C 
ENDROOT
BRANCH   1   2
ATOM      2  N   UNL     1       1.788   8.737  19.787  0.00  0.00    +0.000 NA
ATOM      3  H   UNL     1       2.731   9.046  20.118  0.00  0.00    +0.000 HD
BRANCH   2   4
ATOM      4  S   UNL     1       1.297   9.758  18.416  0.00  0.00    +0.000 S 
ATOM      5  O   UNL     1       2.239  10.969  18.491  0.00  0.00    +0.000 OA
ATOM      6  O   UNL     1       1.802   9.048  17.149  0.00  0.00    +0.000 OA
BRANCH   4   7
ATOM      7  C   UNL     1      -0.424  10.287  18.343  0.00  0.00    +0.000 A 
ATOM      8  C   UNL     1      -1.285   9.766  17.366  0.00  0.00    +0.000 A 
ATOM      9  C   UNL     1      -2.615  10.193  17.295  0.00  0.00    +0.000 A 
ATOM     10  C   UNL     1      -3.112  11.140  18.212  0.00  0.00    +0.000 A 
ATOM     11  C   UNL     1      -2.240  11.651  19.193  0.00  0.00    +0.000 A 
ATOM     12  C   UNL     1      -0.910  11.228  19.255  0.00  0.00    +0.000 A 
BRANCH  10  13
ATOM     13  N   UNL     1      -4.472  11.573  18.151  0.00  0.00    +0.000 N 
ATOM     14  O   UNL     1      -5.227  11.092  17.361  0.00  0.00    +0.000 OA
ATOM     15  O   UNL     1      -4.913  12.497  18.982  0.00  0.00    +0.000 OA
ENDBRANCH  10  13
ENDBRANCH   4   7
ENDBRANCH   2   4
ENDBRANCH   1   2
BRANCH   1  16
ATOM     16  C   UNL     1       3.197   6.913  19.013  0.00  0.00    +0.000 C 
BRANCH  16  17
ATOM     17  N   UNL     1       3.200   6.394  17.635  0.00  0.00    +0.000 NA
ATOM     18  H   UNL     1       2.289   5.929  17.415  0.00  0.00    +0.000 HD
BRANCH  17  20
ATOM     19  C   UNL     1       3.904   4.010  17.925  0.00  0.00    +0.000 C 
ATOM     20  C   UNL     1       4.279   5.411  17.377  0.00  0.00    +0.000 C 
BRANCH  20  21
ATOM     21  C   UNL     1       5.650   5.921  17.838  0.00  0.00    +0.000 A 
ATOM     22  C   UNL     1       6.344   5.336  18.924  0.00  0.00    +0.000 A 
ATOM     23  C   UNL     1       7.600   5.810  19.310  0.00  0.00    +0.000 A 
ATOM     24  C   UNL     1       8.185   6.879  18.632  0.00  0.00    +0.000 A 
ATOM     25  C   UNL     1       7.521   7.470  17.556  0.00  0.00    +0.000 A 
ATOM     26  C   UNL     1       6.272   6.988  17.153  0.00  0.00    +0.000 A 
ENDBRANCH  20  21
ENDBRANCH  17  20
ENDBRANCH  16  17
ENDBRANCH   1  16
BRANCH   1  27
ATOM     27  C   UNL     1       1.401   6.457  20.798  0.00  0.00    +0.000 C 
BRANCH  27  28
ATOM     28  C   UNL     1       1.514   4.943  20.672  0.00  0.00    +0.000 A 
ATOM     29  C   UNL     1       0.739   4.196  19.759  0.00  0.00    +0.000 A 
ATOM     30  C   UNL     1       0.859   2.813  19.679  0.00  0.00    +0.000 A 
ATOM     31  C   UNL     1       1.755   2.141  20.504  0.00  0.00    +0.000 A 
ATOM     32  C   UNL     1       2.540   2.859  21.411  0.00  0.00    +0.000 A 
ATOM     33  C   UNL     1       2.421   4.250  21.496  0.00  0.00    +0.000 A 
ENDBRANCH  27  28
ENDBRANCH   1  27
TORSDOF 10
ENDMDL
MODEL 2
REMARK VINA RESULT:      -7.6      4.037      7.839
REMARK  Name = 
REMARK  11 active torsions:
REMARK  status: ('A' for Active; 'I' for Inactive)
REMARK    1  A    between atoms: C_1  and  C_2
REMARK    2  A    between atoms: C_2  and  N_3
REMARK    3  A    between atoms: C_2  and  C_26
REMARK    4  A    between atoms: N_3  and  C_4
REMARK    5  A    between atoms: C_4  and  C_5
REMARK    6  A    between atoms: C_5  and  C_6
REMARK    7  A    between atoms: C_5  and  N_13
REMARK    8  A    between atoms: C_6  and  C_7
REMARK    9  A    between atoms: N_13  and  S_14
REMARK   10  A    between atoms: S_14  and  C_17
REMARK   11  A    between atoms: C_20  and  N_21
REMARK                            x       y       z     vdW  Elec       q    Type
REMARK                         _______ _______ _______ _____ _____    ______ ____
ROOT
ATOM      1  C   UNL     1       2.974   7.932  17.903  0.00  0.00    +0.000 C 
ENDROOT
BRANCH   1   2
ATOM      2  N   UNL     1       3.844   8.065  16.718  0.00  0.00    +0.000 NA
ATOM      3  H   UNL     1       4.227   9.036  16.657  0.00  0.00    +0.000 HD
BRANCH   2   4
ATOM      4  S   UNL     1       5.191   6.907  16.620  0.00  0.00    +0.000 S 
ATOM      5  O   UNL     1       5.390   6.686  15.114  0.00  0.00    +0.000 OA
ATOM      6  O   UNL     1       6.460   7.693  16.990  0.00  0.00    +0.000 OA
BRANCH   4   7
ATOM      7  C   UNL     1       5.006   5.335  17.482  0.00  0.00    +0.000 A 
ATOM      8  C   UNL     1       4.484   4.218  16.814  0.00  0.00    +0.000 A 
ATOM      9  C   UNL     1       4.319   3.004  17.488  0.00  0.00    +0.000 A 
ATOM     10  C   UNL     1       4.688   2.882  18.843  0.00  0.00    +0.000 A 
ATOM     11  C   UNL     1       5.218   4.009  19.501  0.00  0.00    +0.000 A 
ATOM     12  C   UNL     1       5.373   5.222  18.826  0.00  0.00    +0.000 A 
BRANCH  10  13
ATOM     13  N   UNL     1       4.532   1.642  19.535  0.00  0.00    +0.000 N 
ATOM     14  O   UNL     1       3.856   0.773  19.075  0.00  0.00    +0.000 OA
ATOM     15  O   UNL     1       5.149   1.439  20.682  0.00  0.00    +0.000 OA
ENDBRANCH  10  13
ENDBRANCH   4   7
ENDBRANCH   2   4
ENDBRANCH   1   2
BRANCH   1  16
ATOM     16  C   UNL     1       2.401   9.339  18.204  0.00  0.00    +0.000 C 
BRANCH  16  17
ATOM     17  N   UNL     1       0.936   9.360  18.346  0.00  0.00    +0.000 NA
ATOM     18  H   UNL     1       0.473   9.286  17.411  0.00  0.00    +0.000 HD
BRANCH  17  20
ATOM     19  C   UNL     1       1.398  11.777  18.803  0.00  0.00    +0.000 C 
ATOM     20  C   UNL     1       0.424  10.587  19.002  0.00  0.00    +0.000 C 
BRANCH  20  21
ATOM     21  C   UNL     1       0.024  10.340  20.463  0.00  0.00    +0.000 A 
ATOM     22  C   UNL     1       0.136   9.066  21.068  0.00  0.00    +0.000 A 
ATOM     23  C   UNL     1      -0.219   8.876  22.405  0.00  0.00    +0.000 A 
ATOM     24  C   UNL     1      -0.702   9.942  23.162  0.00  0.00    +0.000 A 
ATOM     25  C   UNL     1      -0.819  11.208  22.587  0.00  0.00    +0.000 A 
ATOM     26  C   UNL     1      -0.447  11.410  21.255  0.00  0.00    +0.000 A 
ENDBRANCH  20  21
ENDBRANCH  17  20
ENDBRANCH  16  17
ENDBRANCH   1  16
BRANCH   1  27
ATOM     27  C   UNL     1       1.843   6.878  17.698  0.00  0.00    +0.000 C 
BRANCH  27  28
ATOM     28  C   UNL     1       1.748   5.781  18.750  0.00  0.00    +0.000 A 
ATOM     29  C   UNL     1       1.290   4.479  18.452  0.00  0.00    +0.000 A 
ATOM     30  C   UNL     1       1.205   3.504  19.440  0.00  0.00    +0.000 A 
ATOM     31  C   UNL     1       1.577   3.800  20.748  0.00  0.00    +0.000 A 
ATOM     32  C   UNL     1       2.041   5.080  21.067  0.00  0.00    +0.000 A 
ATOM     33  C   UNL     1       2.127   6.065  20.076  0.00  0.00    +0.000 A 
ENDBRANCH  27  28
ENDBRANCH   1  27
TORSDOF 10
ENDMDL
MODEL 3
REMARK VINA RESULT:      -7.6      2.969      4.365
REMARK  Name = 
REMARK  11 active torsions:
REMARK  status: ('A' for Active; 'I' for Inactive)
REMARK    1  A    between atoms: C_1  and  C_2
REMARK    2  A    between atoms: C_2  and  N_3
REMARK    3  A    between atoms: C_2  and  C_26
REMARK    4  A    between atoms: N_3  and  C_4
REMARK    5  A    between atoms: C_4  and  C_5
REMARK    6  A    between atoms: C_5  and  C_6
REMARK    7  A    between atoms: C_5  and  N_13
REMARK    8  A    between atoms: C_6  and  C_7
REMARK    9  A    between atoms: N_13  and  S_14
REMARK   10  A    between atoms: S_14  and  C_17
REMARK   11  A    between atoms: C_20  and  N_21
REMARK                            x       y       z     vdW  Elec       q    Type
REMARK                         _______ _______ _______ _____ _____    ______ ____
ROOT
ATOM      1  C   UNL     1       4.377   4.978  18.093  0.00  0.00    +0.000 C 
ENDROOT
BRANCH   1   2
ATOM      2  N   UNL     1       3.778   5.899  19.079  0.00  0.00    +0.000 NA
ATOM      3  H   UNL     1       4.528   6.413  19.597  0.00  0.00    +0.000 HD
BRANCH   2   4
ATOM      4  S   UNL     1       2.620   7.079  18.424  0.00  0.00    +0.000 S 
ATOM      5  O   UNL     1       3.435   7.878  17.396  0.00  0.00    +0.000 OA
ATOM      6  O   UNL     1       1.666   6.287  17.516  0.00  0.00    +0.000 OA
BRANCH   4   7
ATOM      7  C   UNL     1       1.801   8.182  19.591  0.00  0.00    +0.000 A 
ATOM      8  C   UNL     1       1.308   9.424  19.166  0.00  0.00    +0.000 A 
ATOM      9  C   UNL     1       0.693  10.289  20.076  0.00  0.00    +0.000 A 
ATOM     10  C   UNL     1       0.546   9.919  21.428  0.00  0.00    +0.000 A 
ATOM     11  C   UNL     1       1.038   8.666  21.842  0.00  0.00    +0.000 A 
ATOM     12  C   UNL     1       1.660   7.808  20.931  0.00  0.00    +0.000 A 
BRANCH  10  13
ATOM     13  N   UNL     1      -0.091  10.794  22.361  0.00  0.00    +0.000 N 
ATOM     14  O   UNL     1      -0.109  11.972  22.172  0.00  0.00    +0.000 OA
ATOM     15  O   UNL     1      -0.682  10.305  23.434  0.00  0.00    +0.000 OA
ENDBRANCH  10  13
ENDBRANCH   4   7
ENDBRANCH   2   4
ENDBRANCH   1   2
BRANCH   1  16
ATOM     16  C   UNL     1       5.898   4.935  18.380  0.00  0.00    +0.000 C 
BRANCH  16  17
ATOM     17  N   UNL     1       6.669   4.201  17.363  0.00  0.00    +0.000 NA
ATOM     18  H   UNL     1       7.401   3.606  17.815  0.00  0.00    +0.000 HD
BRANCH  17  20
ATOM     19  C   UNL     1       7.103   6.579  16.716  0.00  0.00    +0.000 C 
ATOM     20  C   UNL     1       7.350   5.085  16.387  0.00  0.00    +0.000 C 
BRANCH  20  21
ATOM     21  C   UNL     1       7.033   4.699  14.936  0.00  0.00    +0.000 A 
ATOM     22  C   UNL     1       5.960   3.839  14.604  0.00  0.00    +0.000 A 
ATOM     23  C   UNL     1       5.685   3.520  13.272  0.00  0.00    +0.000 A 
ATOM     24  C   UNL     1       6.475   4.040  12.248  0.00  0.00    +0.000 A 
ATOM     25  C   UNL     1       7.537   4.893  12.552  0.00  0.00    +0.000 A 
ATOM     26  C   UNL     1       7.807   5.231  13.881  0.00  0.00    +0.000 A 
ENDBRANCH  20  21
ENDBRANCH  17  20
ENDBRANCH  16  17
ENDBRANCH   1  16
BRANCH   1  27
ATOM     27  C   UNL     1       3.739   3.556  18.141  0.00  0.00    +0.000 C 
BRANCH  27  28
ATOM     28  C   UNL     1       2.881   3.245  19.361  0.00  0.00    +0.000 A 
ATOM     29  C   UNL     1       3.424   2.753  20.567  0.00  0.00    +0.000 A 
ATOM     30  C   UNL     1       2.610   2.468  21.658  0.00  0.00    +0.000 A 
ATOM     31  C   UNL     1       1.236   2.670  21.575  0.00  0.00    +0.000 A 
ATOM     32  C   UNL     1       0.674   3.165  20.395  0.00  0.00    +0.000 A 
ATOM     33  C   UNL     1       1.490   3.451  19.294  0.00  0.00    +0.000 A 
ENDBRANCH  27  28
ENDBRANCH   1  27
TORSDOF 10
ENDMDL
MODEL 4
REMARK VINA RESULT:      -7.6      3.135      6.163
REMARK  Name = 
REMARK  11 active torsions:
REMARK  status: ('A' for Active; 'I' for Inactive)
REMARK    1  A    between atoms: C_1  and  C_2
REMARK    2  A    between atoms: C_2  and  N_3
REMARK    3  A    between atoms: C_2  and  C_26
REMARK    4  A    between atoms: N_3  and  C_4
REMARK    5  A    between atoms: C_4  and  C_5
REMARK    6  A    between atoms: C_5  and  C_6
REMARK    7  A    between atoms: C_5  and  N_13
REMARK    8  A    between atoms: C_6  and  C_7
REMARK    9  A    between atoms: N_13  and  S_14
REMARK   10  A    between atoms: S_14  and  C_17
REMARK   11  A    between atoms: C_20  and  N_21
REMARK                            x       y       z     vdW  Elec       q    Type
REMARK                         _______ _______ _______ _____ _____    ______ ____
ROOT
ATOM      1  C   UNL     1       0.951   9.942  19.488  0.00  0.00    +0.000 C 
ENDROOT
BRANCH   1   2
ATOM      2  N   UNL     1      -0.103   9.427  20.384  0.00  0.00    +0.000 NA
ATOM      3  H   UNL     1      -0.082   8.381  20.405  0.00  0.00    +0.000 HD
BRANCH   2   4
ATOM      4  S   UNL     1      -0.056  10.036  22.055  0.00  0.00    +0.000 S 
ATOM      5  O   UNL     1      -0.769   8.950  22.873  0.00  0.00    +0.000 OA
ATOM      6  O   UNL     1       1.398   9.879  22.529  0.00  0.00    +0.000 OA
BRANCH   4   7
ATOM      7  C   UNL     1      -0.777  11.657  22.373  0.00  0.00    +0.000 A 
ATOM      8  C   UNL     1      -0.164  12.816  21.876  0.00  0.00    +0.000 A 
ATOM      9  C   UNL     1      -0.711  14.075  22.141  0.00  0.00    +0.000 A 
ATOM     10  C   UNL     1      -1.892  14.196  22.900  0.00  0.00    +0.000 A 
ATOM     11  C   UNL     1      -2.504  13.025  23.387  0.00  0.00    +0.000 A 
ATOM     12  C   UNL     1      -1.949  11.770  23.127  0.00  0.00    +0.000 A 
BRANCH  10  13
ATOM     13  N   UNL     1      -2.462  15.480  23.166  0.00  0.00    +0.000 N 
ATOM     14  O   UNL     1      -3.350  15.597  23.955  0.00  0.00    +0.000 OA
ATOM     15  O   UNL     1      -1.998  16.552  22.556  0.00  0.00    +0.000 OA
ENDBRANCH  10  13
ENDBRANCH   4   7
ENDBRANCH   2   4
ENDBRANCH   1   2
BRANCH   1  16
ATOM     16  C   UNL     1       1.674   8.712  18.887  0.00  0.00    +0.000 C 
BRANCH  16  17
ATOM     17  N   UNL     1       2.088   7.722  19.894  0.00  0.00    +0.000 NA
ATOM     18  H   UNL     1       2.643   8.179  20.654  0.00  0.00    +0.000 HD
BRANCH  17  20
ATOM     19  C   UNL     1       3.438   6.978  17.922  0.00  0.00    +0.000 C 
ATOM     20  C   UNL     1       2.915   6.624  19.338  0.00  0.00    +0.000 C 
BRANCH  20  21
ATOM     21  C   UNL     1       2.208   5.265  19.426  0.00  0.00    +0.000 A 
ATOM     22  C   UNL     1       1.797   4.710  20.661  0.00  0.00    +0.000 A 
ATOM     23  C   UNL     1       1.138   3.479  20.708  0.00  0.00    +0.000 A 
ATOM     24  C   UNL     1       0.886   2.772  19.533  0.00  0.00    +0.000 A 
ATOM     25  C   UNL     1       1.280   3.301  18.303  0.00  0.00    +0.000 A 
ATOM     26  C   UNL     1       1.923   4.542  18.247  0.00  0.00    +0.000 A 
ENDBRANCH  20  21
ENDBRANCH  17  20
ENDBRANCH  16  17
ENDBRANCH   1  16
BRANCH   1  27
ATOM     27  C   UNL     1       0.383  10.879  18.377  0.00  0.00    +0.000 C 
BRANCH  27  28
ATOM     28  C   UNL     1      -1.121  10.810  18.144  0.00  0.00    +0.000 A 
ATOM     29  C   UNL     1      -1.713   9.873  17.270  0.00  0.00    +0.000 A 
ATOM     30  C   UNL     1      -3.089   9.846  17.072  0.00  0.00    +0.000 A 
ATOM     31  C   UNL     1      -3.909  10.750  17.740  0.00  0.00    +0.000 A 
ATOM     32  C   UNL     1      -3.347  11.683  18.617  0.00  0.00    +0.000 A 
ATOM     33  C   UNL     1      -1.963  11.714  18.818  0.00  0.00    +0.000 A 
ENDBRANCH  27  28
ENDBRANCH   1  27
TORSDOF 10
ENDMDL
MODEL 5
REMARK VINA RESULT:      -7.4      2.699      5.917
REMARK  Name = 
REMARK  11 active torsions:
REMARK  status: ('A' for Active; 'I' for Inactive)
REMARK    1  A    between atoms: C_1  and  C_2
REMARK    2  A    between atoms: C_2  and  N_3
REMARK    3  A    between atoms: C_2  and  C_26
REMARK    4  A    between atoms: N_3  and  C_4
REMARK    5  A    between atoms: C_4  and  C_5
REMARK    6  A    between atoms: C_5  and  C_6
REMARK    7  A    between atoms: C_5  and  N_13
REMARK    8  A    between atoms: C_6  and  C_7
REMARK    9  A    between atoms: N_13  and  S_14
REMARK   10  A    between atoms: S_14  and  C_17
REMARK   11  A    between atoms: C_20  and  N_21
REMARK                            x       y       z     vdW  Elec       q    Type
REMARK                         _______ _______ _______ _____ _____    ______ ____
ROOT
ATOM      1  C   UNL     1       0.464  10.272  18.615  0.00  0.00    +0.000 C 
ENDROOT
BRANCH   1   2
ATOM      2  N   UNL     1       1.109  11.502  19.114  0.00  0.00    +0.000 NA
ATOM      3  H   UNL     1       0.782  12.331  18.566  0.00  0.00    +0.000 HD
BRANCH   2   4
ATOM      4  S   UNL     1       0.888  11.836  20.847  0.00  0.00    +0.000 S 
ATOM      5  O   UNL     1       1.361  10.551  21.543  0.00  0.00    +0.000 OA
ATOM      6  O   UNL     1       1.997  12.827  21.238  0.00  0.00    +0.000 OA
BRANCH   4   7
ATOM      7  C   UNL     1      -0.762  12.300  21.405  0.00  0.00    +0.000 A 
ATOM      8  C   UNL     1      -1.319  11.701  22.544  0.00  0.00    +0.000 A 
ATOM      9  C   UNL     1      -2.608  12.044  22.964  0.00  0.00    +0.000 A 
ATOM     10  C   UNL     1      -3.358  13.005  22.258  0.00  0.00    +0.000 A 
ATOM     11  C   UNL     1      -2.785  13.606  21.121  0.00  0.00    +0.000 A 
ATOM     12  C   UNL     1      -1.501  13.254  20.699  0.00  0.00    +0.000 A 
BRANCH  10  13
ATOM     13  N   UNL     1      -4.672  13.368  22.688  0.00  0.00    +0.000 N 
ATOM     14  O   UNL     1      -5.124  14.438  22.418  0.00  0.00    +0.000 OA
ATOM     15  O   UNL     1      -5.406  12.513  23.373  0.00  0.00    +0.000 OA
ENDBRANCH  10  13
ENDBRANCH   4   7
ENDBRANCH   2   4
ENDBRANCH   1   2
BRANCH   1  16
ATOM     16  C   UNL     1       1.320   9.080  19.107  0.00  0.00    +0.000 C 
BRANCH  16  17
ATOM     17  N   UNL     1       1.834   8.233  18.018  0.00  0.00    +0.000 NA
ATOM     18  H   UNL     1       1.056   7.696  17.571  0.00  0.00    +0.000 HD
BRANCH  17  20
ATOM     19  C   UNL     1       4.008   7.139  17.434  0.00  0.00    +0.000 C 
ATOM     20  C   UNL     1       2.854   7.253  18.463  0.00  0.00    +0.000 C 
BRANCH  20  21
ATOM     21  C   UNL     1       2.232   5.909  18.863  0.00  0.00    +0.000 A 
ATOM     22  C   UNL     1       1.943   4.902  17.912  0.00  0.00    +0.000 A 
ATOM     23  C   UNL     1       1.393   3.681  18.309  0.00  0.00    +0.000 A 
ATOM     24  C   UNL     1       1.110   3.442  19.653  0.00  0.00    +0.000 A 
ATOM     25  C   UNL     1       1.389   4.420  20.608  0.00  0.00    +0.000 A 
ATOM     26  C   UNL     1       1.956   5.637  20.221  0.00  0.00    +0.000 A 
ENDBRANCH  20  21
ENDBRANCH  17  20
ENDBRANCH  16  17
ENDBRANCH   1  16
BRANCH   1  27
ATOM     27  C   UNL     1      -1.021  10.147  19.075  0.00  0.00    +0.000 C 
BRANCH  27  28
ATOM     28  C   UNL     1      -2.079  10.428  18.015  0.00  0.00    +0.000 A 
ATOM     29  C   UNL     1      -3.230  11.203  18.277  0.00  0.00    +0.000 A 
ATOM     30  C   UNL     1      -4.182  11.430  17.289  0.00  0.00    +0.000 A 
ATOM     31  C   UNL     1      -4.010  10.894  16.017  0.00  0.00    +0.000 A 
ATOM     32  C   UNL     1      -2.874  10.130  15.731  0.00  0.00    +0.000 A 
ATOM     33  C   UNL     1      -1.914   9.898  16.722  0.00  0.00    +0.000 A 
ENDBRANCH  27  28
ENDBRANCH   1  27
TORSDOF 10
ENDMDL
MODEL 6
REMARK VINA RESULT:      -7.4      3.137      6.233
REMARK  Name = 
REMARK  11 active torsions:
REMARK  status: ('A' for Active; 'I' for Inactive)
REMARK    1  A    between atoms: C_1  and  C_2
REMARK    2  A    between atoms: C_2  and  N_3
REMARK    3  A    between atoms: C_2  and  C_26
REMARK    4  A    between atoms: N_3  and  C_4
REMARK    5  A    between atoms: C_4  and  C_5
REMARK    6  A    between atoms: C_5  and  C_6
REMARK    7  A    between atoms: C_5  and  N_13
REMARK    8  A    between atoms: C_6  and  C_7
REMARK    9  A    between atoms: N_13  and  S_14
REMARK   10  A    between atoms: S_14  and  C_17
REMARK   11  A    between atoms: C_20  and  N_21
REMARK                            x       y       z     vdW  Elec       q    Type
REMARK                         _______ _______ _______ _____ _____    ______ ____
ROOT
ATOM      1  C   UNL     1       0.818   9.836  19.713  0.00  0.00    +0.000 C 
ENDROOT
BRANCH   1   2
ATOM      2  N   UNL     1      -0.274   9.393  20.602  0.00  0.00    +0.000 NA
ATOM      3  H   UNL     1      -0.288   8.349  20.666  0.00  0.00    +0.000 HD
BRANCH   2   4
ATOM      4  S   UNL     1      -0.248  10.068  22.248  0.00  0.00    +0.000 S 
ATOM      5  O   UNL     1      -0.950   9.003  23.103  0.00  0.00    +0.000 OA
ATOM      6  O   UNL     1       1.205   9.951  22.737  0.00  0.00    +0.000 OA
BRANCH   4   7
ATOM      7  C   UNL     1      -0.995  11.689  22.498  0.00  0.00    +0.000 A 
ATOM      8  C   UNL     1      -2.240  11.805  23.132  0.00  0.00    +0.000 A 
ATOM      9  C   UNL     1      -2.830  13.061  23.306  0.00  0.00    +0.000 A 
ATOM     10  C   UNL     1      -2.176  14.227  22.859  0.00  0.00    +0.000 A 
ATOM     11  C   UNL     1      -0.923  14.098  22.230  0.00  0.00    +0.000 A 
ATOM     12  C   UNL     1      -0.340  12.841  22.051  0.00  0.00    +0.000 A 
BRANCH  10  13
ATOM     13  N   UNL     1      -2.769  15.514  23.043  0.00  0.00    +0.000 N 
ATOM     14  O   UNL     1      -2.708  16.064  24.100  0.00  0.00    +0.000 OA
ATOM     15  O   UNL     1      -3.375  16.115  22.038  0.00  0.00    +0.000 OA
ENDBRANCH  10  13
ENDBRANCH   4   7
ENDBRANCH   2   4
ENDBRANCH   1   2
BRANCH   1  16
ATOM     16  C   UNL     1       1.401   8.567  19.045  0.00  0.00    +0.000 C 
BRANCH  16  17
ATOM     17  N   UNL     1       2.200   7.734  19.958  0.00  0.00    +0.000 NA
ATOM     18  H   UNL     1       2.884   8.321  20.489  0.00  0.00    +0.000 HD
BRANCH  17  20
ATOM     19  C   UNL     1       3.435   7.135  17.865  0.00  0.00    +0.000 C 
ATOM     20  C   UNL     1       2.966   6.669  19.267  0.00  0.00    +0.000 C 
BRANCH  20  21
ATOM     21  C   UNL     1       2.224   5.326  19.269  0.00  0.00    +0.000 A 
ATOM     22  C   UNL     1       2.094   4.537  18.103  0.00  0.00    +0.000 A 
ATOM     23  C   UNL     1       1.428   3.309  18.140  0.00  0.00    +0.000 A 
ATOM     24  C   UNL     1       0.870   2.849  19.331  0.00  0.00    +0.000 A 
ATOM     25  C   UNL     1       0.987   3.610  20.495  0.00  0.00    +0.000 A 
ATOM     26  C   UNL     1       1.669   4.830  20.470  0.00  0.00    +0.000 A 
ENDBRANCH  20  21
ENDBRANCH  17  20
ENDBRANCH  16  17
ENDBRANCH   1  16
BRANCH   1  27
ATOM     27  C   UNL     1       0.341  10.879  18.657  0.00  0.00    +0.000 C 
BRANCH  27  28
ATOM     28  C   UNL     1      -1.148  10.876  18.335  0.00  0.00    +0.000 A 
ATOM     29  C   UNL     1      -2.063  11.754  18.956  0.00  0.00    +0.000 A 
ATOM     30  C   UNL     1      -3.418  11.716  18.647  0.00  0.00    +0.000 A 
ATOM     31  C   UNL     1      -3.895  10.804  17.710  0.00  0.00    +0.000 A 
ATOM     32  C   UNL     1      -3.009   9.929  17.075  0.00  0.00    +0.000 A 
ATOM     33  C   UNL     1      -1.644   9.963  17.384  0.00  0.00    +0.000 A 
ENDBRANCH  27  28
ENDBRANCH   1  27
TORSDOF 10
ENDMDL
MODEL 7
REMARK VINA RESULT:      -7.4      4.556      8.462
REMARK  Name = 
REMARK  11 active torsions:
REMARK  status: ('A' for Active; 'I' for Inactive)
REMARK    1  A    between atoms: C_1  and  C_2
REMARK    2  A    between atoms: C_2  and  N_3
REMARK    3  A    between atoms: C_2  and  C_26
REMARK    4  A    between atoms: N_3  and  C_4
REMARK    5  A    between atoms: C_4  and  C_5
REMARK    6  A    between atoms: C_5  and  C_6
REMARK    7  A    between atoms: C_5  and  N_13
REMARK    8  A    between atoms: C_6  and  C_7
REMARK    9  A    between atoms: N_13  and  S_14
REMARK   10  A    between atoms: S_14  and  C_17
REMARK   11  A    between atoms: C_20  and  N_21
REMARK                            x       y       z     vdW  Elec       q    Type
REMARK                         _______ _______ _______ _____ _____    ______ ____
ROOT
ATOM      1  C   UNL     1       3.543   6.687  18.194  0.00  0.00    +0.000 C 
ENDROOT
BRANCH   1   2
ATOM      2  N   UNL     1       4.545   7.274  17.283  0.00  0.00    +0.000 NA
ATOM      3  H   UNL     1       4.833   8.221  17.622  0.00  0.00    +0.000 HD
BRANCH   2   4
ATOM      4  S   UNL     1       6.005   6.294  17.011  0.00  0.00    +0.000 S 
ATOM      5  O   UNL     1       7.153   7.314  17.026  0.00  0.00    +0.000 OA
ATOM      6  O   UNL     1       6.255   5.523  18.317  0.00  0.00    +0.000 OA
BRANCH   4   7
ATOM      7  C   UNL     1       6.065   5.281  15.521  0.00  0.00    +0.000 A 
ATOM      8  C   UNL     1       5.131   4.254  15.324  0.00  0.00    +0.000 A 
ATOM      9  C   UNL     1       5.191   3.454  14.179  0.00  0.00    +0.000 A 
ATOM     10  C   UNL     1       6.181   3.678  13.200  0.00  0.00    +0.000 A 
ATOM     11  C   UNL     1       7.108   4.718  13.405  0.00  0.00    +0.000 A 
ATOM     12  C   UNL     1       7.050   5.509  14.555  0.00  0.00    +0.000 A 
BRANCH  10  13
ATOM     13  N   UNL     1       6.242   2.870  12.023  0.00  0.00    +0.000 N 
ATOM     14  O   UNL     1       5.241   2.477  11.505  0.00  0.00    +0.000 OA
ATOM     15  O   UNL     1       7.407   2.566  11.486  0.00  0.00    +0.000 OA
ENDBRANCH  10  13
ENDBRANCH   4   7
ENDBRANCH   2   4
ENDBRANCH   1   2
BRANCH   1  16
ATOM     16  C   UNL     1       2.293   7.598  18.140  0.00  0.00    +0.000 C 
BRANCH  16  17
ATOM     17  N   UNL     1       2.009   8.285  19.411  0.00  0.00    +0.000 NA
ATOM     18  H   UNL     1       1.650   7.608  20.123  0.00  0.00    +0.000 HD
BRANCH  17  20
ATOM     19  C   UNL     1       1.595  10.586  18.518  0.00  0.00    +0.000 C 
ATOM     20  C   UNL     1       1.009   9.372  19.283  0.00  0.00    +0.000 C 
BRANCH  20  21
ATOM     21  C   UNL     1       0.365   9.728  20.630  0.00  0.00    +0.000 A 
ATOM     22  C   UNL     1       0.488   8.894  21.766  0.00  0.00    +0.000 A 
ATOM     23  C   UNL     1      -0.093   9.254  22.984  0.00  0.00    +0.000 A 
ATOM     24  C   UNL     1      -0.816  10.441  23.093  0.00  0.00    +0.000 A 
ATOM     25  C   UNL     1      -0.948  11.281  21.987  0.00  0.00    +0.000 A 
ATOM     26  C   UNL     1      -0.353  10.936  20.770  0.00  0.00    +0.000 A 
ENDBRANCH  20  21
ENDBRANCH  17  20
ENDBRANCH  16  17
ENDBRANCH   1  16
BRANCH   1  27
ATOM     27  C   UNL     1       3.199   5.210  17.830  0.00  0.00    +0.000 C 
BRANCH  27  28
ATOM     28  C   UNL     1       2.740   4.324  18.981  0.00  0.00    +0.000 A 
ATOM     29  C   UNL     1       3.623   3.483  19.692  0.00  0.00    +0.000 A 
ATOM     30  C   UNL     1       3.169   2.677  20.730  0.00  0.00    +0.000 A 
ATOM     31  C   UNL     1       1.824   2.691  21.088  0.00  0.00    +0.000 A 
ATOM     32  C   UNL     1       0.931   3.522  20.405  0.00  0.00    +0.000 A 
ATOM     33  C   UNL     1       1.384   4.333  19.358  0.00  0.00    +0.000 A 
ENDBRANCH  27  28
ENDBRANCH   1  27
TORSDOF 10
ENDMDL
MODEL 8
REMARK VINA RESULT:      -7.4      2.925      5.637
REMARK  Name = 
REMARK  11 active torsions:
REMARK  status: ('A' for Active; 'I' for Inactive)
REMARK    1  A    between atoms: C_1  and  C_2
REMARK    2  A    between atoms: C_2  and  N_3
REMARK    3  A    between atoms: C_2  and  C_26
REMARK    4  A    between atoms: N_3  and  C_4
REMARK    5  A    between atoms: C_4  and  C_5
REMARK    6  A    between atoms: C_5  and  C_6
REMARK    7  A    between atoms: C_5  and  N_13
REMARK    8  A    between atoms: C_6  and  C_7
REMARK    9  A    between atoms: N_13  and  S_14
REMARK   10  A    between atoms: S_14  and  C_17
REMARK   11  A    between atoms: C_20  and  N_21
REMARK                            x       y       z     vdW  Elec       q    Type
REMARK                         _______ _______ _______ _____ _____    ______ ____
ROOT
ATOM      1  C   UNL     1       0.453  10.427  18.475  0.00  0.00    +0.000 C 
ENDROOT
BRANCH   1   2
ATOM      2  N   UNL     1       1.276  10.855  19.623  0.00  0.00    +0.000 NA
ATOM      3  H   UNL     1       2.284  10.900  19.350  0.00  0.00    +0.000 HD
BRANCH   2   4
ATOM      4  S   UNL     1       0.812  12.402  20.368  0.00  0.00    +0.000 S 
ATOM      5  O   UNL     1       2.037  12.801  21.203  0.00  0.00    +0.000 OA
ATOM      6  O   UNL     1       0.848  13.448  19.242  0.00  0.00    +0.000 OA
BRANCH   4   7
ATOM      7  C   UNL     1      -0.686  12.431  21.370  0.00  0.00    +0.000 A 
ATOM      8  C   UNL     1      -0.803  11.601  22.494  0.00  0.00    +0.000 A 
ATOM      9  C   UNL     1      -1.974  11.607  23.259  0.00  0.00    +0.000 A 
ATOM     10  C   UNL     1      -3.046  12.457  22.919  0.00  0.00    +0.000 A 
ATOM     11  C   UNL     1      -2.914  13.291  21.793  0.00  0.00    +0.000 A 
ATOM     12  C   UNL     1      -1.746  13.276  21.026  0.00  0.00    +0.000 A 
BRANCH  10  13
ATOM     13  N   UNL     1      -4.241  12.475  23.702  0.00  0.00    +0.000 N 
ATOM     14  O   UNL     1      -4.184  12.495  24.894  0.00  0.00    +0.000 OA
ATOM     15  O   UNL     1      -5.420  12.489  23.113  0.00  0.00    +0.000 OA
ENDBRANCH  10  13
ENDBRANCH   4   7
ENDBRANCH   2   4
ENDBRANCH   1   2
BRANCH   1  16
ATOM     16  C   UNL     1       1.211   9.270  17.780  0.00  0.00    +0.000 C 
BRANCH  16  17
ATOM     17  N   UNL     1       2.270   8.676  18.612  0.00  0.00    +0.000 NA
ATOM     18  H   UNL     1       3.212   8.848  18.189  0.00  0.00    +0.000 HD
BRANCH  17  20
ATOM     19  C   UNL     1       2.090   6.837  20.301  0.00  0.00    +0.000 C 
ATOM     20  C   UNL     1       2.125   7.212  18.797  0.00  0.00    +0.000 C 
BRANCH  20  21
ATOM     21  C   UNL     1       3.148   6.419  17.974  0.00  0.00    +0.000 A 
ATOM     22  C   UNL     1       3.081   5.012  17.844  0.00  0.00    +0.000 A 
ATOM     23  C   UNL     1       4.017   4.319  17.072  0.00  0.00    +0.000 A 
ATOM     24  C   UNL     1       5.042   5.009  16.426  0.00  0.00    +0.000 A 
ATOM     25  C   UNL     1       5.127   6.397  16.538  0.00  0.00    +0.000 A 
ATOM     26  C   UNL     1       4.182   7.099  17.293  0.00  0.00    +0.000 A 
ENDBRANCH  20  21
ENDBRANCH  17  20
ENDBRANCH  16  17
ENDBRANCH   1  16
BRANCH   1  27
ATOM     27  C   UNL     1      -0.987  10.003  18.898  0.00  0.00    +0.000 C 
BRANCH  27  28
ATOM     28  C   UNL     1      -2.110  10.396  17.947  0.00  0.00    +0.000 A 
ATOM     29  C   UNL     1      -3.153  11.270  18.321  0.00  0.00    +0.000 A 
ATOM     30  C   UNL     1      -4.169  11.599  17.431  0.00  0.00    +0.000 A 
ATOM     31  C   UNL     1      -4.171  11.067  16.146  0.00  0.00    +0.000 A 
ATOM     32  C   UNL     1      -3.145  10.204  15.748  0.00  0.00    +0.000 A 
ATOM     33  C   UNL     1      -2.121   9.870  16.641  0.00  0.00    +0.000 A 
ENDBRANCH  27  28
ENDBRANCH   1  27
TORSDOF 10
ENDMDL
MODEL 9
REMARK VINA RESULT:      -7.4      3.899      8.205
REMARK  Name = 
REMARK  11 active torsions:
REMARK  status: ('A' for Active; 'I' for Inactive)
REMARK    1  A    between atoms: C_1  and  C_2
REMARK    2  A    between atoms: C_2  and  N_3
REMARK    3  A    between atoms: C_2  and  C_26
REMARK    4  A    between atoms: N_3  and  C_4
REMARK    5  A    between atoms: C_4  and  C_5
REMARK    6  A    between atoms: C_5  and  C_6
REMARK    7  A    between atoms: C_5  and  N_13
REMARK    8  A    between atoms: C_6  and  C_7
REMARK    9  A    between atoms: N_13  and  S_14
REMARK   10  A    between atoms: S_14  and  C_17
REMARK   11  A    between atoms: C_20  and  N_21
REMARK                            x       y       z     vdW  Elec       q    Type
REMARK                         _______ _______ _______ _____ _____    ______ ____
ROOT
ATOM      1  C   UNL     1       2.969   7.820  17.819  0.00  0.00    +0.000 C 
ENDROOT
BRANCH   1   2
ATOM      2  N   UNL     1       3.894   8.005  16.684  0.00  0.00    +0.000 NA
ATOM      3  H   UNL     1       4.294   8.972  16.697  0.00  0.00    +0.000 HD
BRANCH   2   4
ATOM      4  S   UNL     1       5.228   6.834  16.580  0.00  0.00    +0.000 S 
ATOM      5  O   UNL     1       5.401   6.592  15.073  0.00  0.00    +0.000 OA
ATOM      6  O   UNL     1       6.510   7.611  16.920  0.00  0.00    +0.000 OA
BRANCH   4   7
ATOM      7  C   UNL     1       5.041   5.274  17.463  0.00  0.00    +0.000 A 
ATOM      8  C   UNL     1       4.508   4.151  16.814  0.00  0.00    +0.000 A 
ATOM      9  C   UNL     1       4.342   2.947  17.505  0.00  0.00    +0.000 A 
ATOM     10  C   UNL     1       4.720   2.842  18.859  0.00  0.00    +0.000 A 
ATOM     11  C   UNL     1       5.260   3.974  19.499  0.00  0.00    +0.000 A 
ATOM     12  C   UNL     1       5.416   5.177  18.807  0.00  0.00    +0.000 A 
BRANCH  10  13
ATOM     13  N   UNL     1       4.561   1.611  19.569  0.00  0.00    +0.000 N 
ATOM     14  O   UNL     1       3.850   0.753  19.143  0.00  0.00    +0.000 OA
ATOM     15  O   UNL     1       5.216   1.405  20.695  0.00  0.00    +0.000 OA
ENDBRANCH  10  13
ENDBRANCH   4   7
ENDBRANCH   2   4
ENDBRANCH   1   2
BRANCH   1  16
ATOM     16  C   UNL     1       2.263   9.177  18.055  0.00  0.00    +0.000 C 
BRANCH  16  17
ATOM     17  N   UNL     1       1.030   9.070  18.851  0.00  0.00    +0.000 NA
ATOM     18  H   UNL     1       0.285   8.574  18.311  0.00  0.00    +0.000 HD
BRANCH  17  20
ATOM     19  C   UNL     1       0.583  10.571  20.803  0.00  0.00    +0.000 C 
ATOM     20  C   UNL     1       0.481  10.383  19.268  0.00  0.00    +0.000 C 
BRANCH  20  21
ATOM     21  C   UNL     1      -0.920  10.633  18.695  0.00  0.00    +0.000 A 
ATOM     22  C   UNL     1      -1.811  11.571  19.268  0.00  0.00    +0.000 A 
ATOM     23  C   UNL     1      -3.073  11.791  18.712  0.00  0.00    +0.000 A 
ATOM     24  C   UNL     1      -3.478  11.077  17.585  0.00  0.00    +0.000 A 
ATOM     25  C   UNL     1      -2.616  10.149  17.001  0.00  0.00    +0.000 A 
ATOM     26  C   UNL     1      -1.343   9.938  17.541  0.00  0.00    +0.000 A 
ENDBRANCH  20  21
ENDBRANCH  17  20
ENDBRANCH  16  17
ENDBRANCH   1  16
BRANCH   1  27
ATOM     27  C   UNL     1       1.944   6.671  17.571  0.00  0.00    +0.000 C 
BRANCH  27  28
ATOM     28  C   UNL     1       1.806   5.641  18.686  0.00  0.00    +0.000 A 
ATOM     29  C   UNL     1       2.166   5.916  20.023  0.00  0.00    +0.000 A 
ATOM     30  C   UNL     1       2.039   4.949  21.014  0.00  0.00    +0.000 A 
ATOM     31  C   UNL     1       1.548   3.686  20.698  0.00  0.00    +0.000 A 
ATOM     32  C   UNL     1       1.177   3.392  19.382  0.00  0.00    +0.000 A 
ATOM     33  C   UNL     1       1.305   4.362  18.382  0.00  0.00    +0.000 A 
ENDBRANCH  27  28
ENDBRANCH   1  27
TORSDOF 10
ENDMDL
