MODEL 1
REMARK VINA RESULT:      -7.5      0.000      0.000
REMARK  Name = 
REMARK  10 active torsions:
REMARK  status: ('A' for Active; 'I' for Inactive)
REMARK    1  A    between atoms: C_1  and  O_2
REMARK    2  A    between atoms: O_2  and  C_3
REMARK    3  A    between atoms: C_3  and  C_4
REMARK    4  A    between atoms: C_6  and  C_7
REMARK    5  A    between atoms: C_7  and  N_8
REMARK    6  A    between atoms: N_8  and  C_9
REMARK    7  A    between atoms: C_12  and  C_13
REMARK    8  A    between atoms: C_13  and  C_14
REMARK    9  A    between atoms: C_13  and  C_15
REMARK   10  A    between atoms: C_17  and  C_18
REMARK                            x       y       z     vdW  Elec       q    Type
REMARK                         _______ _______ _______ _____ _____    ______ ____
ROOT
ATOM      1  N   UNL     1       6.295   5.862  17.805  0.00  0.00    +0.000 N 
ATOM      2  C   UNL     1       6.978   7.146  17.819  0.00  0.00    +0.000 C 
ATOM      3  C   UNL     1       4.902   5.918  17.764  0.00  0.00    +0.000 A 
ATOM      4  C   UNL     1       4.123   4.781  17.854  0.00  0.00    +0.000 A 
ATOM      5  C   UNL     1       2.754   4.925  18.000  0.00  0.00    +0.000 A 
ATOM      6  N   UNL     1       2.160   6.131  17.995  0.00  0.00    +0.000 NA
ATOM      7  C   UNL     1       2.967   7.190  17.843  0.00  0.00    +0.000 A 
ATOM      8  C   UNL     1       2.342   8.549  17.830  0.00  0.00    +0.000 C 
ATOM      9  N   UNL     1       4.308   7.129  17.741  0.00  0.00    +0.000 NA
ENDROOT
BRANCH   5  10
ATOM     10  C   UNL     1       1.916   3.705  18.334  0.00  0.00    +0.000 C 
ATOM     11  C   UNL     1       2.741   2.437  18.089  0.00  0.00    +0.000 C 
ATOM     12  C   UNL     1       1.385   3.730  19.767  0.00  0.00    +0.000 C 
ENDBRANCH   5  10
BRANCH   1  13
ATOM     13  C   UNL     1       7.009   4.715  17.214  0.00  0.00    +0.000 C 
BRANCH  13  16
ATOM     14  C   UNL     1       6.310   4.017  13.652  0.00  0.00    +0.000 A 
ATOM     15  C   UNL     1       6.126   3.674  14.973  0.00  0.00    +0.000 A 
ATOM     16  C   UNL     1       6.937   4.570  15.710  0.00  0.00    +0.000 A 
ATOM     17  N   UNL     1       7.642   5.372  14.893  0.00  0.00    +0.000 NA
ATOM     18  N   UNL     1       7.264   4.997  13.656  0.00  0.00    +0.000 N 
ATOM     19  H   UNL     1       7.674   5.462  12.856  0.00  0.00    +0.000 HD
BRANCH  14  20
ATOM     20  C   UNL     1       5.664   3.550  12.406  0.00  0.00    +0.000 C 
BRANCH  20  22
ATOM     21  C   UNL     1       5.981   1.486  11.337  0.00  0.00    +0.000 C 
ATOM     22  O   UNL     1       6.596   2.703  11.746  0.00  0.00    +0.000 OA
ENDBRANCH  20  22
ENDBRANCH  14  20
ENDBRANCH  13  16
ENDBRANCH   1  13
TORSDOF 5
ENDMDL
MODEL 2
REMARK VINA RESULT:      -7.3      0.927      1.080
REMARK  Name = 
REMARK  10 active torsions:
REMARK  status: ('A' for Active; 'I' for Inactive)
REMARK    1  A    between atoms: C_1  and  O_2
REMARK    2  A    between atoms: O_2  and  C_3
REMARK    3  A    between atoms: C_3  and  C_4
REMARK    4  A    between atoms: C_6  and  C_7
REMARK    5  A    between atoms: C_7  and  N_8
REMARK    6  A    between atoms: N_8  and  C_9
REMARK    7  A    between atoms: C_12  and  C_13
REMARK    8  A    between atoms: C_13  and  C_14
REMARK    9  A    between atoms: C_13  and  C_15
REMARK   10  A    between atoms: C_17  and  C_18
REMARK                            x       y       z     vdW  Elec       q    Type
REMARK                         _______ _______ _______ _____ _____    ______ ____
ROOT
ATOM      1  N   UNL     1       6.364   5.903  17.631  0.00  0.00    +0.000 N 
ATOM      2  C   UNL     1       6.840   7.260  17.410  0.00  0.00    +0.000 C 
ATOM      3  C   UNL     1       4.986   5.766  17.799  0.00  0.00    +0.000 A 
ATOM      4  C   UNL     1       4.408   4.553  18.122  0.00  0.00    +0.000 A 
ATOM      5  C   UNL     1       3.066   4.528  18.460  0.00  0.00    +0.000 A 
ATOM      6  N   UNL     1       2.302   5.633  18.425  0.00  0.00    +0.000 NA
ATOM      7  C   UNL     1       2.911   6.766  18.045  0.00  0.00    +0.000 A 
ATOM      8  C   UNL     1       2.091   8.016  17.991  0.00  0.00    +0.000 C 
ATOM      9  N   UNL     1       4.219   6.873  17.745  0.00  0.00    +0.000 NA
ENDROOT
BRANCH   5  10
ATOM     10  C   UNL     1       2.476   3.256  19.041  0.00  0.00    +0.000 C 
ATOM     11  C   UNL     1       2.760   3.203  20.545  0.00  0.00    +0.000 C 
ATOM     12  C   UNL     1       0.976   3.127  18.774  0.00  0.00    +0.000 C 
ENDBRANCH   5  10
BRANCH   1  13
ATOM     13  C   UNL     1       7.155   4.799  17.056  0.00  0.00    +0.000 C 
BRANCH  13  16
ATOM     14  C   UNL     1       6.529   3.967  13.509  0.00  0.00    +0.000 A 
ATOM     15  C   UNL     1       6.402   3.620  14.836  0.00  0.00    +0.000 A 
ATOM     16  C   UNL     1       7.092   4.626  15.554  0.00  0.00    +0.000 A 
ATOM     17  N   UNL     1       7.678   5.504  14.722  0.00  0.00    +0.000 NA
ATOM     18  N   UNL     1       7.345   5.066  13.493  0.00  0.00    +0.000 N 
ATOM     19  H   UNL     1       7.682   5.571  12.684  0.00  0.00    +0.000 HD
BRANCH  14  20
ATOM     20  C   UNL     1       5.942   3.403  12.275  0.00  0.00    +0.000 C 
BRANCH  20  22
ATOM     21  C   UNL     1       3.899   3.204  11.139  0.00  0.00    +0.000 C 
ATOM     22  O   UNL     1       4.544   3.665  12.322  0.00  0.00    +0.000 OA
ENDBRANCH  20  22
ENDBRANCH  14  20
ENDBRANCH  13  16
ENDBRANCH   1  13
TORSDOF 5
ENDMDL
MODEL 3
REMARK VINA RESULT:      -7.3      2.759      6.517
REMARK  Name = 
REMARK  10 active torsions:
REMARK  status: ('A' for Active; 'I' for Inactive)
REMARK    1  A    between atoms: C_1  and  O_2
REMARK    2  A    between atoms: O_2  and  C_3
REMARK    3  A    between atoms: C_3  and  C_4
REMARK    4  A    between atoms: C_6  and  C_7
REMARK    5  A    between atoms: C_7  and  N_8
REMARK    6  A    between atoms: N_8  and  C_9
REMARK    7  A    between atoms: C_12  and  C_13
REMARK    8  A    between atoms: C_13  and  C_14
REMARK    9  A    between atoms: C_13  and  C_15
REMARK   10  A    between atoms: C_17  and  C_18
REMARK                            x       y       z     vdW  Elec       q    Type
REMARK                         _______ _______ _______ _____ _____    ______ ____
ROOT
ATOM      1  N   UNL     1       6.211   5.083  16.269  0.00  0.00    +0.000 N 
ATOM      2  C   UNL     1       6.884   6.249  16.820  0.00  0.00    +0.000 C 
ATOM      3  C   UNL     1       6.573   4.735  14.968  0.00  0.00    +0.000 A 
ATOM      4  C   UNL     1       5.939   3.717  14.283  0.00  0.00    +0.000 A 
ATOM      5  C   UNL     1       6.215   3.552  12.936  0.00  0.00    +0.000 A 
ATOM      6  N   UNL     1       7.121   4.312  12.297  0.00  0.00    +0.000 NA
ATOM      7  C   UNL     1       7.744   5.242  13.035  0.00  0.00    +0.000 A 
ATOM      8  C   UNL     1       8.761   6.105  12.358  0.00  0.00    +0.000 C 
ATOM      9  N   UNL     1       7.495   5.487  14.335  0.00  0.00    +0.000 NA
ENDROOT
BRANCH   5  10
ATOM     10  C   UNL     1       5.361   2.600  12.119  0.00  0.00    +0.000 C 
ATOM     11  C   UNL     1       4.317   3.399  11.333  0.00  0.00    +0.000 C 
ATOM     12  C   UNL     1       6.189   1.727  11.177  0.00  0.00    +0.000 C 
ENDBRANCH   5  10
BRANCH   1  13
ATOM     13  C   UNL     1       5.756   4.047  17.215  0.00  0.00    +0.000 C 
BRANCH  13  16
ATOM     14  C   UNL     1       2.252   3.312  18.133  0.00  0.00    +0.000 A 
ATOM     15  C   UNL     1       3.516   2.840  17.859  0.00  0.00    +0.000 A 
ATOM     16  C   UNL     1       4.270   3.981  17.491  0.00  0.00    +0.000 A 
ATOM     17  N   UNL     1       3.502   5.084  17.464  0.00  0.00    +0.000 NA
ATOM     18  N   UNL     1       2.283   4.645  17.829  0.00  0.00    +0.000 N 
ATOM     19  H   UNL     1       1.517   5.306  17.876  0.00  0.00    +0.000 HD
BRANCH  14  20
ATOM     20  C   UNL     1       1.044   2.655  18.678  0.00  0.00    +0.000 C 
BRANCH  20  22
ATOM     21  C   UNL     1       1.285   3.085  20.972  0.00  0.00    +0.000 C 
ATOM     22  O   UNL     1       1.402   2.109  19.942  0.00  0.00    +0.000 OA
ENDBRANCH  20  22
ENDBRANCH  14  20
ENDBRANCH  13  16
ENDBRANCH   1  13
TORSDOF 5
ENDMDL
MODEL 4
REMARK VINA RESULT:      -7.1      2.954      6.766
REMARK  Name = 
REMARK  10 active torsions:
REMARK  status: ('A' for Active; 'I' for Inactive)
REMARK    1  A    between atoms: C_1  and  O_2
REMARK    2  A    between atoms: O_2  and  C_3
REMARK    3  A    between atoms: C_3  and  C_4
REMARK    4  A    between atoms: C_6  and  C_7
REMARK    5  A    between atoms: C_7  and  N_8
REMARK    6  A    between atoms: N_8  and  C_9
REMARK    7  A    between atoms: C_12  and  C_13
REMARK    8  A    between atoms: C_13  and  C_14
REMARK    9  A    between atoms: C_13  and  C_15
REMARK   10  A    between atoms: C_17  and  C_18
REMARK                            x       y       z     vdW  Elec       q    Type
REMARK                         _______ _______ _______ _____ _____    ______ ____
ROOT
ATOM      1  N   UNL     1       6.187   5.062  16.346  0.00  0.00    +0.000 N 
ATOM      2  C   UNL     1       6.868   6.217  16.911  0.00  0.00    +0.000 C 
ATOM      3  C   UNL     1       6.551   4.724  15.043  0.00  0.00    +0.000 A 
ATOM      4  C   UNL     1       5.911   3.718  14.345  0.00  0.00    +0.000 A 
ATOM      5  C   UNL     1       6.190   3.565  12.997  0.00  0.00    +0.000 A 
ATOM      6  N   UNL     1       7.104   4.323  12.369  0.00  0.00    +0.000 NA
ATOM      7  C   UNL     1       7.733   5.240  13.118  0.00  0.00    +0.000 A 
ATOM      8  C   UNL     1       8.759   6.101  12.454  0.00  0.00    +0.000 C 
ATOM      9  N   UNL     1       7.481   5.474  14.420  0.00  0.00    +0.000 NA
ENDROOT
BRANCH   5  10
ATOM     10  C   UNL     1       5.331   2.628  12.169  0.00  0.00    +0.000 C 
ATOM     11  C   UNL     1       4.320   3.446  11.358  0.00  0.00    +0.000 C 
ATOM     12  C   UNL     1       6.157   1.732  11.246  0.00  0.00    +0.000 C 
ENDBRANCH   5  10
BRANCH   1  13
ATOM     13  C   UNL     1       5.720   4.021  17.280  0.00  0.00    +0.000 C 
BRANCH  13  16
ATOM     14  C   UNL     1       2.913   4.646  19.601  0.00  0.00    +0.000 A 
ATOM     15  C   UNL     1       4.178   4.143  19.400  0.00  0.00    +0.000 A 
ATOM     16  C   UNL     1       4.426   4.294  18.014  0.00  0.00    +0.000 A 
ATOM     17  N   UNL     1       3.351   4.793  17.379  0.00  0.00    +0.000 NA
ATOM     18  N   UNL     1       2.443   4.969  18.357  0.00  0.00    +0.000 N 
ATOM     19  H   UNL     1       1.530   5.336  18.119  0.00  0.00    +0.000 HD
BRANCH  14  20
ATOM     20  C   UNL     1       2.124   4.887  20.829  0.00  0.00    +0.000 C 
BRANCH  20  22
ATOM     21  C   UNL     1       1.317   2.758  21.398  0.00  0.00    +0.000 C 
ATOM     22  O   UNL     1       2.302   3.751  21.667  0.00  0.00    +0.000 OA
ENDBRANCH  20  22
ENDBRANCH  14  20
ENDBRANCH  13  16
ENDBRANCH   1  13
TORSDOF 5
ENDMDL
MODEL 5
REMARK VINA RESULT:      -7.0      1.360      1.419
REMARK  Name = 
REMARK  10 active torsions:
REMARK  status: ('A' for Active; 'I' for Inactive)
REMARK    1  A    between atoms: C_1  and  O_2
REMARK    2  A    between atoms: O_2  and  C_3
REMARK    3  A    between atoms: C_3  and  C_4
REMARK    4  A    between atoms: C_6  and  C_7
REMARK    5  A    between atoms: C_7  and  N_8
REMARK    6  A    between atoms: N_8  and  C_9
REMARK    7  A    between atoms: C_12  and  C_13
REMARK    8  A    between atoms: C_13  and  C_14
REMARK    9  A    between atoms: C_13  and  C_15
REMARK   10  A    between atoms: C_17  and  C_18
REMARK                            x       y       z     vdW  Elec       q    Type
REMARK                         _______ _______ _______ _____ _____    ______ ____
ROOT
ATOM      1  N   UNL     1       6.560   5.676  18.067  0.00  0.00    +0.000 N 
ATOM      2  C   UNL     1       6.834   7.080  17.801  0.00  0.00    +0.000 C 
ATOM      3  C   UNL     1       5.268   5.384  18.503  0.00  0.00    +0.000 A 
ATOM      4  C   UNL     1       4.901   4.111  18.894  0.00  0.00    +0.000 A 
ATOM      5  C   UNL     1       3.666   3.932  19.495  0.00  0.00    +0.000 A 
ATOM      6  N   UNL     1       2.798   4.946  19.652  0.00  0.00    +0.000 NA
ATOM      7  C   UNL     1       3.192   6.144  19.196  0.00  0.00    +0.000 A 
ATOM      8  C   UNL     1       2.250   7.295  19.351  0.00  0.00    +0.000 C 
ATOM      9  N   UNL     1       4.392   6.400  18.643  0.00  0.00    +0.000 NA
ENDROOT
BRANCH   5  10
ATOM     10  C   UNL     1       3.346   2.596  20.138  0.00  0.00    +0.000 C 
ATOM     11  C   UNL     1       4.650   1.852  20.444  0.00  0.00    +0.000 C 
ATOM     12  C   UNL     1       2.501   2.739  21.404  0.00  0.00    +0.000 C 
ENDBRANCH   5  10
BRANCH   1  13
ATOM     13  C   UNL     1       7.331   4.675  17.307  0.00  0.00    +0.000 C 
BRANCH  13  16
ATOM     14  C   UNL     1       6.098   4.100  13.870  0.00  0.00    +0.000 A 
ATOM     15  C   UNL     1       6.085   3.734  15.197  0.00  0.00    +0.000 A 
ATOM     16  C   UNL     1       7.039   4.570  15.826  0.00  0.00    +0.000 A 
ATOM     17  N   UNL     1       7.662   5.356  14.931  0.00  0.00    +0.000 NA
ATOM     18  N   UNL     1       7.094   5.031  13.755  0.00  0.00    +0.000 N 
ATOM     19  H   UNL     1       7.409   5.496  12.912  0.00  0.00    +0.000 HD
BRANCH  14  20
ATOM     20  C   UNL     1       5.258   3.697  12.722  0.00  0.00    +0.000 C 
BRANCH  20  22
ATOM     21  C   UNL     1       5.822   1.792  11.473  0.00  0.00    +0.000 C 
ATOM     22  O   UNL     1       6.131   3.157  11.737  0.00  0.00    +0.000 OA
ENDBRANCH  20  22
ENDBRANCH  14  20
ENDBRANCH  13  16
ENDBRANCH   1  13
TORSDOF 5
ENDMDL
MODEL 6
REMARK VINA RESULT:      -6.8      1.679      3.176
REMARK  Name = 
REMARK  10 active torsions:
REMARK  status: ('A' for Active; 'I' for Inactive)
REMARK    1  A    between atoms: C_1  and  O_2
REMARK    2  A    between atoms: O_2  and  C_3
REMARK    3  A    between atoms: C_3  and  C_4
REMARK    4  A    between atoms: C_6  and  C_7
REMARK    5  A    between atoms: C_7  and  N_8
REMARK    6  A    between atoms: N_8  and  C_9
REMARK    7  A    between atoms: C_12  and  C_13
REMARK    8  A    between atoms: C_13  and  C_14
REMARK    9  A    between atoms: C_13  and  C_15
REMARK   10  A    between atoms: C_17  and  C_18
REMARK                            x       y       z     vdW  Elec       q    Type
REMARK                         _______ _______ _______ _____ _____    ______ ____
ROOT
ATOM      1  N   UNL     1       4.557   4.067  17.800  0.00  0.00    +0.000 N 
ATOM      2  C   UNL     1       4.496   2.631  17.568  0.00  0.00    +0.000 C 
ATOM      3  C   UNL     1       3.662   4.564  18.746  0.00  0.00    +0.000 A 
ATOM      4  C   UNL     1       3.537   5.919  18.989  0.00  0.00    +0.000 A 
ATOM      5  C   UNL     1       2.500   6.354  19.798  0.00  0.00    +0.000 A 
ATOM      6  N   UNL     1       1.657   5.496  20.397  0.00  0.00    +0.000 NA
ATOM      7  C   UNL     1       1.871   4.193  20.168  0.00  0.00    +0.000 A 
ATOM      8  C   UNL     1       0.954   3.208  20.821  0.00  0.00    +0.000 C 
ATOM      9  N   UNL     1       2.829   3.700  19.360  0.00  0.00    +0.000 NA
ENDROOT
BRANCH   5  10
ATOM     10  C   UNL     1       2.207   7.840  19.885  0.00  0.00    +0.000 C 
ATOM     11  C   UNL     1       1.878   8.377  18.488  0.00  0.00    +0.000 C 
ATOM     12  C   UNL     1       1.077   8.162  20.863  0.00  0.00    +0.000 C 
ENDBRANCH   5  10
BRANCH   1  13
ATOM     13  C   UNL     1       5.849   4.740  17.573  0.00  0.00    +0.000 C 
BRANCH  13  16
ATOM     14  C   UNL     1       6.644   4.361  13.983  0.00  0.00    +0.000 A 
ATOM     15  C   UNL     1       5.960   3.905  15.087  0.00  0.00    +0.000 A 
ATOM     16  C   UNL     1       6.385   4.727  16.158  0.00  0.00    +0.000 A 
ATOM     17  N   UNL     1       7.333   5.593  15.760  0.00  0.00    +0.000 NA
ATOM     18  N   UNL     1       7.489   5.331  14.449  0.00  0.00    +0.000 N 
ATOM     19  H   UNL     1       8.170   5.861  13.919  0.00  0.00    +0.000 HD
BRANCH  14  20
ATOM     20  C   UNL     1       6.560   4.009  12.549  0.00  0.00    +0.000 C 
BRANCH  20  22
ATOM     21  C   UNL     1       4.567   3.240  11.581  0.00  0.00    +0.000 C 
ATOM     22  O   UNL     1       5.655   2.918  12.440  0.00  0.00    +0.000 OA
ENDBRANCH  20  22
ENDBRANCH  14  20
ENDBRANCH  13  16
ENDBRANCH   1  13
TORSDOF 5
ENDMDL
MODEL 7
REMARK VINA RESULT:      -6.7      2.931      6.809
REMARK  Name = 
REMARK  10 active torsions:
REMARK  status: ('A' for Active; 'I' for Inactive)
REMARK    1  A    between atoms: C_1  and  O_2
REMARK    2  A    between atoms: O_2  and  C_3
REMARK    3  A    between atoms: C_3  and  C_4
REMARK    4  A    between atoms: C_6  and  C_7
REMARK    5  A    between atoms: C_7  and  N_8
REMARK    6  A    between atoms: N_8  and  C_9
REMARK    7  A    between atoms: C_12  and  C_13
REMARK    8  A    between atoms: C_13  and  C_14
REMARK    9  A    between atoms: C_13  and  C_15
REMARK   10  A    between atoms: C_17  and  C_18
REMARK                            x       y       z     vdW  Elec       q    Type
REMARK                         _______ _______ _______ _____ _____    ______ ____
ROOT
ATOM      1  N   UNL     1       5.552   4.971  15.792  0.00  0.00    +0.000 N 
ATOM      2  C   UNL     1       6.161   6.011  16.607  0.00  0.00    +0.000 C 
ATOM      3  C   UNL     1       6.199   4.691  14.588  0.00  0.00    +0.000 A 
ATOM      4  C   UNL     1       5.674   3.803  13.668  0.00  0.00    +0.000 A 
ATOM      5  C   UNL     1       6.264   3.718  12.419  0.00  0.00    +0.000 A 
ATOM      6  N   UNL     1       7.362   4.424  12.100  0.00  0.00    +0.000 NA
ATOM      7  C   UNL     1       7.856   5.221  13.059  0.00  0.00    +0.000 A 
ATOM      8  C   UNL     1       9.079   6.021  12.741  0.00  0.00    +0.000 C 
ATOM      9  N   UNL     1       7.310   5.387  14.278  0.00  0.00    +0.000 NA
ENDROOT
BRANCH   5  10
ATOM     10  C   UNL     1       5.566   2.930  11.326  0.00  0.00    +0.000 C 
ATOM     11  C   UNL     1       5.916   1.445  11.465  0.00  0.00    +0.000 C 
ATOM     12  C   UNL     1       4.050   3.126  11.335  0.00  0.00    +0.000 C 
ENDBRANCH   5  10
BRANCH   1  13
ATOM     13  C   UNL     1       4.789   3.918  16.487  0.00  0.00    +0.000 C 
BRANCH  13  16
ATOM     14  C   UNL     1       2.927   4.801  19.556  0.00  0.00    +0.000 A 
ATOM     15  C   UNL     1       2.994   4.811  18.181  0.00  0.00    +0.000 A 
ATOM     16  C   UNL     1       4.257   4.256  17.862  0.00  0.00    +0.000 A 
ATOM     17  N   UNL     1       4.964   3.987  18.973  0.00  0.00    +0.000 NA
ATOM     18  N   UNL     1       4.148   4.351  19.980  0.00  0.00    +0.000 N 
ATOM     19  H   UNL     1       4.469   4.247  20.935  0.00  0.00    +0.000 HD
BRANCH  14  20
ATOM     20  C   UNL     1       1.837   5.130  20.499  0.00  0.00    +0.000 C 
BRANCH  20  22
ATOM     21  C   UNL     1       1.175   2.931  20.979  0.00  0.00    +0.000 C 
ATOM     22  O   UNL     1       0.825   4.146  20.324  0.00  0.00    +0.000 OA
ENDBRANCH  20  22
ENDBRANCH  14  20
ENDBRANCH  13  16
ENDBRANCH   1  13
TORSDOF 5
ENDMDL
MODEL 8
REMARK VINA RESULT:      -6.7      1.796      3.343
REMARK  Name = 
REMARK  10 active torsions:
REMARK  status: ('A' for Active; 'I' for Inactive)
REMARK    1  A    between atoms: C_1  and  O_2
REMARK    2  A    between atoms: O_2  and  C_3
REMARK    3  A    between atoms: C_3  and  C_4
REMARK    4  A    between atoms: C_6  and  C_7
REMARK    5  A    between atoms: C_7  and  N_8
REMARK    6  A    between atoms: N_8  and  C_9
REMARK    7  A    between atoms: C_12  and  C_13
REMARK    8  A    between atoms: C_13  and  C_14
REMARK    9  A    between atoms: C_13  and  C_15
REMARK   10  A    between atoms: C_17  and  C_18
REMARK                            x       y       z     vdW  Elec       q    Type
REMARK                         _______ _______ _______ _____ _____    ______ ____
ROOT
ATOM      1  N   UNL     1       4.135   4.862  17.575  0.00  0.00    +0.000 N 
ATOM      2  C   UNL     1       4.534   3.465  17.495  0.00  0.00    +0.000 C 
ATOM      3  C   UNL     1       3.427   5.223  18.721  0.00  0.00    +0.000 A 
ATOM      4  C   UNL     1       2.895   6.488  18.880  0.00  0.00    +0.000 A 
ATOM      5  C   UNL     1       2.045   6.720  19.949  0.00  0.00    +0.000 A 
ATOM      6  N   UNL     1       1.774   5.771  20.862  0.00  0.00    +0.000 NA
ATOM      7  C   UNL     1       2.371   4.585  20.682  0.00  0.00    +0.000 A 
ATOM      8  C   UNL     1       2.096   3.505  21.680  0.00  0.00    +0.000 C 
ATOM      9  N   UNL     1       3.172   4.275  19.645  0.00  0.00    +0.000 NA
ENDROOT
BRANCH   5  10
ATOM     10  C   UNL     1       1.271   8.024  20.006  0.00  0.00    +0.000 C 
ATOM     11  C   UNL     1       1.444   8.659  21.390  0.00  0.00    +0.000 C 
ATOM     12  C   UNL     1       1.690   9.006  18.911  0.00  0.00    +0.000 C 
ENDBRANCH   5  10
BRANCH   1  13
ATOM     13  C   UNL     1       4.976   5.853  16.878  0.00  0.00    +0.000 C 
BRANCH  13  16
ATOM     14  C   UNL     1       6.543   4.449  13.840  0.00  0.00    +0.000 A 
ATOM     15  C   UNL     1       5.441   4.528  14.661  0.00  0.00    +0.000 A 
ATOM     16  C   UNL     1       5.843   5.340  15.750  0.00  0.00    +0.000 A 
ATOM     17  N   UNL     1       7.139   5.681  15.650  0.00  0.00    +0.000 NA
ATOM     18  N   UNL     1       7.543   5.106  14.502  0.00  0.00    +0.000 N 
ATOM     19  H   UNL     1       8.506   5.218  14.209  0.00  0.00    +0.000 HD
BRANCH  14  20
ATOM     20  C   UNL     1       6.740   3.858  12.499  0.00  0.00    +0.000 C 
BRANCH  20  22
ATOM     21  C   UNL     1       5.747   2.015  11.439  0.00  0.00    +0.000 C 
ATOM     22  O   UNL     1       5.514   3.236  12.133  0.00  0.00    +0.000 OA
ENDBRANCH  20  22
ENDBRANCH  14  20
ENDBRANCH  13  16
ENDBRANCH   1  13
TORSDOF 5
ENDMDL
MODEL 9
REMARK VINA RESULT:      -6.7      2.972      6.816
REMARK  Name = 
REMARK  10 active torsions:
REMARK  status: ('A' for Active; 'I' for Inactive)
REMARK    1  A    between atoms: C_1  and  O_2
REMARK    2  A    between atoms: O_2  and  C_3
REMARK    3  A    between atoms: C_3  and  C_4
REMARK    4  A    between atoms: C_6  and  C_7
REMARK    5  A    between atoms: C_7  and  N_8
REMARK    6  A    between atoms: N_8  and  C_9
REMARK    7  A    between atoms: C_12  and  C_13
REMARK    8  A    between atoms: C_13  and  C_14
REMARK    9  A    between atoms: C_13  and  C_15
REMARK   10  A    between atoms: C_17  and  C_18
REMARK                            x       y       z     vdW  Elec       q    Type
REMARK                         _______ _______ _______ _____ _____    ______ ____
ROOT
ATOM      1  N   UNL     1       5.805   4.647  15.998  0.00  0.00    +0.000 N 
ATOM      2  C   UNL     1       6.425   5.647  16.854  0.00  0.00    +0.000 C 
ATOM      3  C   UNL     1       6.371   4.500  14.733  0.00  0.00    +0.000 A 
ATOM      4  C   UNL     1       5.819   3.666  13.779  0.00  0.00    +0.000 A 
ATOM      5  C   UNL     1       6.317   3.714  12.488  0.00  0.00    +0.000 A 
ATOM      6  N   UNL     1       7.354   4.501  12.154  0.00  0.00    +0.000 NA
ATOM      7  C   UNL     1       7.882   5.240  13.140  0.00  0.00    +0.000 A 
ATOM      8  C   UNL     1       9.040   6.126  12.806  0.00  0.00    +0.000 C 
ATOM      9  N   UNL     1       7.423   5.277  14.405  0.00  0.00    +0.000 NA
ENDROOT
BRANCH   5  10
ATOM     10  C   UNL     1       5.575   2.983  11.384  0.00  0.00    +0.000 C 
ATOM     11  C   UNL     1       5.887   1.486  11.465  0.00  0.00    +0.000 C 
ATOM     12  C   UNL     1       4.065   3.220  11.433  0.00  0.00    +0.000 C 
ENDBRANCH   5  10
BRANCH   1  13
ATOM     13  C   UNL     1       5.145   3.502  16.653  0.00  0.00    +0.000 C 
BRANCH  13  16
ATOM     14  C   UNL     1       2.629   4.488  19.176  0.00  0.00    +0.000 A 
ATOM     15  C   UNL     1       3.938   4.176  18.884  0.00  0.00    +0.000 A 
ATOM     16  C   UNL     1       3.941   3.811  17.516  0.00  0.00    +0.000 A 
ATOM     17  N   UNL     1       2.698   3.823  17.007  0.00  0.00    +0.000 NA
ATOM     18  N   UNL     1       1.923   4.208  18.038  0.00  0.00    +0.000 N 
ATOM     19  H   UNL     1       0.923   4.285  17.899  0.00  0.00    +0.000 HD
BRANCH  14  20
ATOM     20  C   UNL     1       1.988   5.049  20.385  0.00  0.00    +0.000 C 
BRANCH  20  22
ATOM     21  C   UNL     1       1.454   2.998  21.392  0.00  0.00    +0.000 C 
ATOM     22  O   UNL     1       2.274   4.160  21.458  0.00  0.00    +0.000 OA
ENDBRANCH  20  22
ENDBRANCH  14  20
ENDBRANCH  13  16
ENDBRANCH   1  13
TORSDOF 5
ENDMDL
