MODEL 1
REMARK VINA RESULT:      -8.4      0.000      0.000
REMARK  Name = 
REMARK  6 active torsions:
REMARK  status: ('A' for Active; 'I' for Inactive)
REMARK    1  A    between atoms: C_2  and  C_3
REMARK    2  A    between atoms: C_2  and  C_22
REMARK    3  A    between atoms: C_3  and  C_4
REMARK    4  A    between atoms: C_4  and  C_5
REMARK    5  A    between atoms: C_5  and  N_6
REMARK    6  A    between atoms: N_9  and  C_10
REMARK                            x       y       z     vdW  Elec       q    Type
REMARK                         _______ _______ _______ _____ _____    ______ ____
ROOT
ATOM      1  N   UNL     1       7.456   6.487  16.944  0.00  0.00    +0.000 NA
ATOM      2  C   UNL     1       7.480   5.532  18.082  0.00  0.00    +0.000 C 
ATOM      3  C   UNL     1       6.163   5.482  18.881  0.00  0.00    +0.000 C 
ATOM      4  N   UNL     1       5.055   5.154  17.977  0.00  0.00    +0.000 N 
ATOM      5  C   UNL     1       4.951   5.974  16.759  0.00  0.00    +0.000 C 
ATOM      6  C   UNL     1       6.329   6.092  16.061  0.00  0.00    +0.000 C 
ENDROOT
BRANCH   4   7
ATOM      7  C   UNL     1       4.198   4.090  18.208  0.00  0.00    +0.000 A 
ATOM      8  C   UNL     1       4.373   2.880  17.508  0.00  0.00    +0.000 A 
ATOM      9  C   UNL     1       3.538   1.777  17.701  0.00  0.00    +0.000 A 
ATOM     10  C   UNL     1       2.480   1.860  18.595  0.00  0.00    +0.000 A 
ATOM     11  C   UNL     1       2.260   3.041  19.292  0.00  0.00    +0.000 A 
ATOM     12  C   UNL     1       3.120   4.142  19.124  0.00  0.00    +0.000 A 
ATOM     13  O   UNL     1       2.955   5.297  19.861  0.00  0.00    +0.000 OA
ATOM     14  C   UNL     1       2.056   5.139  20.957  0.00  0.00    +0.000 C 
ATOM     15  C   UNL     1       0.823   4.369  20.528  0.00  0.00    +0.000 C 
ATOM     16  O   UNL     1       1.179   3.041  20.137  0.00  0.00    +0.000 OA
ENDBRANCH   4   7
BRANCH   1  17
ATOM     17  C   UNL     1       7.292   7.890  17.374  0.00  0.00    +0.000 C 
BRANCH  17  18
ATOM     18  C   UNL     1       8.385   8.369  18.330  0.00  0.00    +0.000 C 
BRANCH  18  19
ATOM     19  C   UNL     1       8.868   9.764  17.959  0.00  0.00    +0.000 C 
BRANCH  19  21
ATOM     20  O   UNL     1       9.042  10.278  20.306  0.00  0.00    +0.000 OA
ATOM     21  C   UNL     1       9.387  10.531  19.154  0.00  0.00    +0.000 C 
BRANCH  21  22
ATOM     22  C   UNL     1      10.361  11.631  18.894  0.00  0.00    +0.000 A 
ATOM     23  C   UNL     1      10.214  12.388  17.728  0.00  0.00    +0.000 A 
ATOM     24  C   UNL     1      11.118  13.410  17.435  0.00  0.00    +0.000 A 
ATOM     25  C   UNL     1      12.172  13.679  18.308  0.00  0.00    +0.000 A 
ATOM     26  C   UNL     1      12.318  12.937  19.477  0.00  0.00    +0.000 A 
ATOM     27  C   UNL     1      11.415  11.916  19.774  0.00  0.00    +0.000 A 
ENDBRANCH  21  22
ENDBRANCH  19  21
ENDBRANCH  18  19
ENDBRANCH  17  18
ENDBRANCH   1  17
TORSDOF 6
ENDMDL
MODEL 2
REMARK VINA RESULT:      -8.3      0.764      1.049
REMARK  Name = 
REMARK  6 active torsions:
REMARK  status: ('A' for Active; 'I' for Inactive)
REMARK    1  A    between atoms: C_2  and  C_3
REMARK    2  A    between atoms: C_2  and  C_22
REMARK    3  A    between atoms: C_3  and  C_4
REMARK    4  A    between atoms: C_4  and  C_5
REMARK    5  A    between atoms: C_5  and  N_6
REMARK    6  A    between atoms: N_9  and  C_10
REMARK                            x       y       z     vdW  Elec       q    Type
REMARK                         _______ _______ _______ _____ _____    ______ ____
ROOT
ATOM      1  N   UNL     1       7.427   6.162  16.801  0.00  0.00    +0.000 NA
ATOM      2  C   UNL     1       7.377   5.419  18.088  0.00  0.00    +0.000 C 
ATOM      3  C   UNL     1       6.008   5.484  18.791  0.00  0.00    +0.000 C 
ATOM      4  N   UNL     1       4.968   4.982  17.884  0.00  0.00    +0.000 N 
ATOM      5  C   UNL     1       4.946   5.576  16.537  0.00  0.00    +0.000 C 
ATOM      6  C   UNL     1       6.369   5.597  15.926  0.00  0.00    +0.000 C 
ENDROOT
BRANCH   4   7
ATOM      7  C   UNL     1       4.104   3.959  18.238  0.00  0.00    +0.000 A 
ATOM      8  C   UNL     1       4.275   2.673  17.690  0.00  0.00    +0.000 A 
ATOM      9  C   UNL     1       3.433   1.605  18.010  0.00  0.00    +0.000 A 
ATOM     10  C   UNL     1       2.373   1.800  18.884  0.00  0.00    +0.000 A 
ATOM     11  C   UNL     1       2.157   3.058  19.433  0.00  0.00    +0.000 A 
ATOM     12  C   UNL     1       3.024   4.127  19.137  0.00  0.00    +0.000 A 
ATOM     13  O   UNL     1       2.863   5.363  19.729  0.00  0.00    +0.000 OA
ATOM     14  C   UNL     1       1.959   5.342  20.832  0.00  0.00    +0.000 C 
ATOM     15  C   UNL     1       0.724   4.532  20.495  0.00  0.00    +0.000 C 
ATOM     16  O   UNL     1       1.073   3.166  20.268  0.00  0.00    +0.000 OA
ENDBRANCH   4   7
BRANCH   1  17
ATOM     17  C   UNL     1       7.224   7.614  16.967  0.00  0.00    +0.000 C 
BRANCH  17  18
ATOM     18  C   UNL     1       8.168   8.252  17.987  0.00  0.00    +0.000 C 
BRANCH  18  19
ATOM     19  C   UNL     1       8.090   9.772  17.933  0.00  0.00    +0.000 C 
BRANCH  19  21
ATOM     20  O   UNL     1       9.560   9.975  19.831  0.00  0.00    +0.000 OA
ATOM     21  C   UNL     1       9.169  10.433  18.760  0.00  0.00    +0.000 C 
BRANCH  21  22
ATOM     22  C   UNL     1       9.770  11.691  18.226  0.00  0.00    +0.000 A 
ATOM     23  C   UNL     1      11.115  11.675  17.842  0.00  0.00    +0.000 A 
ATOM     24  C   UNL     1      11.721  12.836  17.361  0.00  0.00    +0.000 A 
ATOM     25  C   UNL     1      10.985  14.016  17.260  0.00  0.00    +0.000 A 
ATOM     26  C   UNL     1       9.643  14.037  17.629  0.00  0.00    +0.000 A 
ATOM     27  C   UNL     1       9.032  12.878  18.109  0.00  0.00    +0.000 A 
ENDBRANCH  21  22
ENDBRANCH  19  21
ENDBRANCH  18  19
ENDBRANCH  17  18
ENDBRANCH   1  17
TORSDOF 6
ENDMDL
MODEL 3
REMARK VINA RESULT:      -7.7      0.568      1.110
REMARK  Name = 
REMARK  6 active torsions:
REMARK  status: ('A' for Active; 'I' for Inactive)
REMARK    1  A    between atoms: C_2  and  C_3
REMARK    2  A    between atoms: C_2  and  C_22
REMARK    3  A    between atoms: C_3  and  C_4
REMARK    4  A    between atoms: C_4  and  C_5
REMARK    5  A    between atoms: C_5  and  N_6
REMARK    6  A    between atoms: N_9  and  C_10
REMARK                            x       y       z     vdW  Elec       q    Type
REMARK                         _______ _______ _______ _____ _____    ______ ____
ROOT
ATOM      1  N   UNL     1       6.520   7.205  16.734  0.00  0.00    +0.000 NA
ATOM      2  C   UNL     1       7.027   5.873  17.157  0.00  0.00    +0.000 C 
ATOM      3  C   UNL     1       6.334   5.314  18.414  0.00  0.00    +0.000 C 
ATOM      4  N   UNL     1       4.885   5.249  18.185  0.00  0.00    +0.000 N 
ATOM      5  C   UNL     1       4.254   6.483  17.688  0.00  0.00    +0.000 C 
ATOM      6  C   UNL     1       5.060   7.068  16.502  0.00  0.00    +0.000 C 
ENDROOT
BRANCH   4   7
ATOM      7  C   UNL     1       4.159   4.081  18.352  0.00  0.00    +0.000 A 
ATOM      8  C   UNL     1       4.437   2.958  17.549  0.00  0.00    +0.000 A 
ATOM      9  C   UNL     1       3.736   1.756  17.673  0.00  0.00    +0.000 A 
ATOM     10  C   UNL     1       2.712   1.649  18.603  0.00  0.00    +0.000 A 
ATOM     11  C   UNL     1       2.391   2.738  19.402  0.00  0.00    +0.000 A 
ATOM     12  C   UNL     1       3.118   3.939  19.302  0.00  0.00    +0.000 A 
ATOM     13  O   UNL     1       2.857   5.005  20.137  0.00  0.00    +0.000 OA
ATOM     14  C   UNL     1       2.024   4.661  21.242  0.00  0.00    +0.000 C 
ATOM     15  C   UNL     1       0.867   3.794  20.788  0.00  0.00    +0.000 C 
ATOM     16  O   UNL     1       1.350   2.550  20.277  0.00  0.00    +0.000 OA
ENDBRANCH   4   7
BRANCH   1  17
ATOM     17  C   UNL     1       6.776   8.261  17.733  0.00  0.00    +0.000 C 
BRANCH  17  18
ATOM     18  C   UNL     1       8.262   8.531  17.973  0.00  0.00    +0.000 C 
BRANCH  18  19
ATOM     19  C   UNL     1       8.583  10.013  17.830  0.00  0.00    +0.000 C 
BRANCH  19  21
ATOM     20  O   UNL     1       9.170  10.162  20.161  0.00  0.00    +0.000 OA
ATOM     21  C   UNL     1       9.358  10.551  19.011  0.00  0.00    +0.000 C 
BRANCH  21  22
ATOM     22  C   UNL     1      10.391  11.592  18.738  0.00  0.00    +0.000 A 
ATOM     23  C   UNL     1      11.364  11.835  19.713  0.00  0.00    +0.000 A 
ATOM     24  C   UNL     1      12.333  12.818  19.507  0.00  0.00    +0.000 A 
ATOM     25  C   UNL     1      12.333  13.560  18.327  0.00  0.00    +0.000 A 
ATOM     26  C   UNL     1      11.375  13.316  17.347  0.00  0.00    +0.000 A 
ATOM     27  C   UNL     1      10.405  12.333  17.548  0.00  0.00    +0.000 A 
ENDBRANCH  21  22
ENDBRANCH  19  21
ENDBRANCH  18  19
ENDBRANCH  17  18
ENDBRANCH   1  17
TORSDOF 6
ENDMDL
MODEL 4
REMARK VINA RESULT:      -7.6      1.638      1.897
REMARK  Name = 
REMARK  6 active torsions:
REMARK  status: ('A' for Active; 'I' for Inactive)
REMARK    1  A    between atoms: C_2  and  C_3
REMARK    2  A    between atoms: C_2  and  C_22
REMARK    3  A    between atoms: C_3  and  C_4
REMARK    4  A    between atoms: C_4  and  C_5
REMARK    5  A    between atoms: C_5  and  N_6
REMARK    6  A    between atoms: N_9  and  C_10
REMARK                            x       y       z     vdW  Elec       q    Type
REMARK                         _______ _______ _______ _____ _____    ______ ____
ROOT
ATOM      1  N   UNL     1       7.419   6.707  17.033  0.00  0.00    +0.000 NA
ATOM      2  C   UNL     1       7.520   5.302  17.510  0.00  0.00    +0.000 C 
ATOM      3  C   UNL     1       6.485   4.935  18.590  0.00  0.00    +0.000 C 
ATOM      4  N   UNL     1       5.133   5.193  18.079  0.00  0.00    +0.000 N 
ATOM      5  C   UNL     1       4.905   6.528  17.502  0.00  0.00    +0.000 C 
ATOM      6  C   UNL     1       6.041   6.897  16.514  0.00  0.00    +0.000 C 
ENDROOT
BRANCH   4   7
ATOM      7  C   UNL     1       4.145   4.222  18.067  0.00  0.00    +0.000 A 
ATOM      8  C   UNL     1       4.130   3.246  17.051  0.00  0.00    +0.000 A 
ATOM      9  C   UNL     1       3.158   2.245  16.989  0.00  0.00    +0.000 A 
ATOM     10  C   UNL     1       2.151   2.202  17.943  0.00  0.00    +0.000 A 
ATOM     11  C   UNL     1       2.117   3.156  18.951  0.00  0.00    +0.000 A 
ATOM     12  C   UNL     1       3.115   4.145  19.034  0.00  0.00    +0.000 A 
ATOM     13  O   UNL     1       3.133   5.057  20.070  0.00  0.00    +0.000 OA
ATOM     14  C   UNL     1       2.256   4.708  21.139  0.00  0.00    +0.000 C 
ATOM     15  C   UNL     1       0.916   4.248  20.601  0.00  0.00    +0.000 C 
ATOM     16  O   UNL     1       1.074   3.051  19.836  0.00  0.00    +0.000 OA
ENDBRANCH   4   7
BRANCH   1  17
ATOM     17  C   UNL     1       7.701   7.695  18.092  0.00  0.00    +0.000 C 
BRANCH  17  18
ATOM     18  C   UNL     1       8.117   9.066  17.556  0.00  0.00    +0.000 C 
BRANCH  18  19
ATOM     19  C   UNL     1       8.867   9.865  18.613  0.00  0.00    +0.000 C 
BRANCH  19  21
ATOM     20  O   UNL     1      10.516  11.143  17.409  0.00  0.00    +0.000 OA
ATOM     21  C   UNL     1       9.471  11.134  18.055  0.00  0.00    +0.000 C 
BRANCH  21  22
ATOM     22  C   UNL     1       8.742  12.411  18.309  0.00  0.00    +0.000 A 
ATOM     23  C   UNL     1       7.817  12.850  17.357  0.00  0.00    +0.000 A 
ATOM     24  C   UNL     1       7.133  14.051  17.545  0.00  0.00    +0.000 A 
ATOM     25  C   UNL     1       7.370  14.818  18.686  0.00  0.00    +0.000 A 
ATOM     26  C   UNL     1       8.281  14.381  19.644  0.00  0.00    +0.000 A 
ATOM     27  C   UNL     1       8.966  13.180  19.461  0.00  0.00    +0.000 A 
ENDBRANCH  21  22
ENDBRANCH  19  21
ENDBRANCH  18  19
ENDBRANCH  17  18
ENDBRANCH   1  17
TORSDOF 6
ENDMDL
MODEL 5
REMARK VINA RESULT:      -7.5      1.399      1.692
REMARK  Name = 
REMARK  6 active torsions:
REMARK  status: ('A' for Active; 'I' for Inactive)
REMARK    1  A    between atoms: C_2  and  C_3
REMARK    2  A    between atoms: C_2  and  C_22
REMARK    3  A    between atoms: C_3  and  C_4
REMARK    4  A    between atoms: C_4  and  C_5
REMARK    5  A    between atoms: C_5  and  N_6
REMARK    6  A    between atoms: N_9  and  C_10
REMARK                            x       y       z     vdW  Elec       q    Type
REMARK                         _______ _______ _______ _____ _____    ______ ____
ROOT
ATOM      1  N   UNL     1       7.347   6.919  17.184  0.00  0.00    +0.000 NA
ATOM      2  C   UNL     1       7.456   5.810  18.169  0.00  0.00    +0.000 C 
ATOM      3  C   UNL     1       6.187   5.605  19.018  0.00  0.00    +0.000 C 
ATOM      4  N   UNL     1       5.038   5.377  18.133  0.00  0.00    +0.000 N 
ATOM      5  C   UNL     1       4.849   6.362  17.055  0.00  0.00    +0.000 C 
ATOM      6  C   UNL     1       6.183   6.621  16.312  0.00  0.00    +0.000 C 
ENDROOT
BRANCH   4   7
ATOM      7  C   UNL     1       4.219   4.266  18.250  0.00  0.00    +0.000 A 
ATOM      8  C   UNL     1       4.438   3.141  17.431  0.00  0.00    +0.000 A 
ATOM      9  C   UNL     1       3.643   1.995  17.506  0.00  0.00    +0.000 A 
ATOM     10  C   UNL     1       2.583   1.948  18.399  0.00  0.00    +0.000 A 
ATOM     11  C   UNL     1       2.319   3.043  19.213  0.00  0.00    +0.000 A 
ATOM     12  C   UNL     1       3.140   4.185  19.162  0.00  0.00    +0.000 A 
ATOM     13  O   UNL     1       2.933   5.252  20.013  0.00  0.00    +0.000 OA
ATOM     14  C   UNL     1       2.039   4.951  21.083  0.00  0.00    +0.000 C 
ATOM     15  C   UNL     1       0.835   4.185  20.572  0.00  0.00    +0.000 C 
ATOM     16  O   UNL     1       1.238   2.918  20.049  0.00  0.00    +0.000 OA
ENDBRANCH   4   7
BRANCH   1  17
ATOM     17  C   UNL     1       7.176   8.239  17.822  0.00  0.00    +0.000 C 
BRANCH  17  18
ATOM     18  C   UNL     1       8.337   9.200  17.564  0.00  0.00    +0.000 C 
BRANCH  18  19
ATOM     19  C   UNL     1       8.998   9.627  18.867  0.00  0.00    +0.000 C 
BRANCH  19  21
ATOM     20  O   UNL     1      10.383  11.236  17.730  0.00  0.00    +0.000 OA
ATOM     21  C   UNL     1       9.741  10.936  18.734  0.00  0.00    +0.000 C 
BRANCH  21  22
ATOM     22  C   UNL     1       9.672  11.886  19.883  0.00  0.00    +0.000 A 
ATOM     23  C   UNL     1      10.152  13.187  19.700  0.00  0.00    +0.000 A 
ATOM     24  C   UNL     1      10.128  14.098  20.757  0.00  0.00    +0.000 A 
ATOM     25  C   UNL     1       9.622  13.714  21.998  0.00  0.00    +0.000 A 
ATOM     26  C   UNL     1       9.131  12.424  22.183  0.00  0.00    +0.000 A 
ATOM     27  C   UNL     1       9.152  11.510  21.130  0.00  0.00    +0.000 A 
ENDBRANCH  21  22
ENDBRANCH  19  21
ENDBRANCH  18  19
ENDBRANCH  17  18
ENDBRANCH   1  17
TORSDOF 6
ENDMDL
MODEL 6
REMARK VINA RESULT:      -7.3      3.806      7.452
REMARK  Name = 
REMARK  6 active torsions:
REMARK  status: ('A' for Active; 'I' for Inactive)
REMARK    1  A    between atoms: C_2  and  C_3
REMARK    2  A    between atoms: C_2  and  C_22
REMARK    3  A    between atoms: C_3  and  C_4
REMARK    4  A    between atoms: C_4  and  C_5
REMARK    5  A    between atoms: C_5  and  N_6
REMARK    6  A    between atoms: N_9  and  C_10
REMARK                            x       y       z     vdW  Elec       q    Type
REMARK                         _______ _______ _______ _____ _____    ______ ____
ROOT
ATOM      1  N   UNL     1       2.209   1.839  18.787  0.00  0.00    +0.000 NA
ATOM      2  C   UNL     1       1.982   2.592  17.525  0.00  0.00    +0.000 C 
ATOM      3  C   UNL     1       2.750   3.926  17.450  0.00  0.00    +0.000 C 
ATOM      4  N   UNL     1       4.185   3.675  17.630  0.00  0.00    +0.000 N 
ATOM      5  C   UNL     1       4.556   2.870  18.806  0.00  0.00    +0.000 C 
ATOM      6  C   UNL     1       3.670   1.602  18.901  0.00  0.00    +0.000 C 
ENDROOT
BRANCH   4   7
ATOM      7  C   UNL     1       5.134   4.101  16.716  0.00  0.00    +0.000 A 
ATOM      8  C   UNL     1       5.351   3.367  15.534  0.00  0.00    +0.000 A 
ATOM      9  C   UNL     1       6.296   3.749  14.578  0.00  0.00    +0.000 A 
ATOM     10  C   UNL     1       7.073   4.879  14.790  0.00  0.00    +0.000 A 
ATOM     11  C   UNL     1       6.905   5.621  15.952  0.00  0.00    +0.000 A 
ATOM     12  C   UNL     1       5.930   5.257  16.900  0.00  0.00    +0.000 A 
ATOM     13  O   UNL     1       5.704   6.024  18.025  0.00  0.00    +0.000 OA
ATOM     14  C   UNL     1       6.324   7.306  17.962  0.00  0.00    +0.000 C 
ATOM     15  C   UNL     1       7.740   7.190  17.435  0.00  0.00    +0.000 C 
ATOM     16  O   UNL     1       7.730   6.709  16.089  0.00  0.00    +0.000 OA
ENDBRANCH   4   7
BRANCH   1  17
ATOM     17  C   UNL     1       1.718   2.555  19.980  0.00  0.00    +0.000 C 
BRANCH  17  18
ATOM     18  C   UNL     1       1.007   3.870  19.656  0.00  0.00    +0.000 C 
BRANCH  18  19
ATOM     19  C   UNL     1       1.318   4.935  20.699  0.00  0.00    +0.000 C 
BRANCH  19  21
ATOM     20  O   UNL     1       3.592   5.585  20.241  0.00  0.00    +0.000 OA
ATOM     21  C   UNL     1       2.401   5.887  20.244  0.00  0.00    +0.000 C 
BRANCH  21  22
ATOM     22  C   UNL     1       1.976   7.241  19.781  0.00  0.00    +0.000 A 
ATOM     23  C   UNL     1       2.328   7.642  18.489  0.00  0.00    +0.000 A 
ATOM     24  C   UNL     1       1.972   8.909  18.026  0.00  0.00    +0.000 A 
ATOM     25  C   UNL     1       1.261   9.779  18.853  0.00  0.00    +0.000 A 
ATOM     26  C   UNL     1       0.897   9.382  20.136  0.00  0.00    +0.000 A 
ATOM     27  C   UNL     1       1.250   8.115  20.603  0.00  0.00    +0.000 A 
ENDBRANCH  21  22
ENDBRANCH  19  21
ENDBRANCH  18  19
ENDBRANCH  17  18
ENDBRANCH   1  17
TORSDOF 6
ENDMDL
MODEL 7
REMARK VINA RESULT:      -7.2      1.636      2.023
REMARK  Name = 
REMARK  6 active torsions:
REMARK  status: ('A' for Active; 'I' for Inactive)
REMARK    1  A    between atoms: C_2  and  C_3
REMARK    2  A    between atoms: C_2  and  C_22
REMARK    3  A    between atoms: C_3  and  C_4
REMARK    4  A    between atoms: C_4  and  C_5
REMARK    5  A    between atoms: C_5  and  N_6
REMARK    6  A    between atoms: N_9  and  C_10
REMARK                            x       y       z     vdW  Elec       q    Type
REMARK                         _______ _______ _______ _____ _____    ______ ____
ROOT
ATOM      1  N   UNL     1       7.685   6.709  17.456  0.00  0.00    +0.000 NA
ATOM      2  C   UNL     1       7.687   5.326  18.001  0.00  0.00    +0.000 C 
ATOM      3  C   UNL     1       6.511   5.028  18.951  0.00  0.00    +0.000 C 
ATOM      4  N   UNL     1       5.244   5.289  18.257  0.00  0.00    +0.000 N 
ATOM      5  C   UNL     1       5.128   6.601  17.598  0.00  0.00    +0.000 C 
ATOM      6  C   UNL     1       6.391   6.903  16.754  0.00  0.00    +0.000 C 
ENDROOT
BRANCH   4   7
ATOM      7  C   UNL     1       4.243   4.338  18.157  0.00  0.00    +0.000 A 
ATOM      8  C   UNL     1       4.243   3.426  17.083  0.00  0.00    +0.000 A 
ATOM      9  C   UNL     1       3.257   2.447  16.932  0.00  0.00    +0.000 A 
ATOM     10  C   UNL     1       2.221   2.364  17.851  0.00  0.00    +0.000 A 
ATOM     11  C   UNL     1       2.172   3.256  18.915  0.00  0.00    +0.000 A 
ATOM     12  C   UNL     1       3.182   4.221  19.087  0.00  0.00    +0.000 A 
ATOM     13  O   UNL     1       3.184   5.068  20.177  0.00  0.00    +0.000 OA
ATOM     14  C   UNL     1       2.270   4.670  21.197  0.00  0.00    +0.000 C 
ATOM     15  C   UNL     1       0.940   4.266  20.593  0.00  0.00    +0.000 C 
ATOM     16  O   UNL     1       1.101   3.116  19.761  0.00  0.00    +0.000 OA
ENDBRANCH   4   7
BRANCH   1  17
ATOM     17  C   UNL     1       7.852   7.738  18.500  0.00  0.00    +0.000 C 
BRANCH  17  18
ATOM     18  C   UNL     1       8.408   9.062  17.972  0.00  0.00    +0.000 C 
BRANCH  18  19
ATOM     19  C   UNL     1       9.234   9.774  19.035  0.00  0.00    +0.000 C 
BRANCH  19  21
ATOM     20  O   UNL     1       9.788  11.611  17.578  0.00  0.00    +0.000 OA
ATOM     21  C   UNL     1       9.469  11.230  18.702  0.00  0.00    +0.000 C 
BRANCH  21  22
ATOM     22  C   UNL     1       9.294  12.222  19.802  0.00  0.00    +0.000 A 
ATOM     23  C   UNL     1       9.528  11.807  21.117  0.00  0.00    +0.000 A 
ATOM     24  C   UNL     1       9.352  12.697  22.176  0.00  0.00    +0.000 A 
ATOM     25  C   UNL     1       8.942  14.007  21.926  0.00  0.00    +0.000 A 
ATOM     26  C   UNL     1       8.718  14.431  20.619  0.00  0.00    +0.000 A 
ATOM     27  C   UNL     1       8.894  13.544  19.556  0.00  0.00    +0.000 A 
ENDBRANCH  21  22
ENDBRANCH  19  21
ENDBRANCH  18  19
ENDBRANCH  17  18
ENDBRANCH   1  17
TORSDOF 6
ENDMDL
MODEL 8
REMARK VINA RESULT:      -7.2      1.157      2.212
REMARK  Name = 
REMARK  6 active torsions:
REMARK  status: ('A' for Active; 'I' for Inactive)
REMARK    1  A    between atoms: C_2  and  C_3
REMARK    2  A    between atoms: C_2  and  C_22
REMARK    3  A    between atoms: C_3  and  C_4
REMARK    4  A    between atoms: C_4  and  C_5
REMARK    5  A    between atoms: C_5  and  N_6
REMARK    6  A    between atoms: N_9  and  C_10
REMARK                            x       y       z     vdW  Elec       q    Type
REMARK                         _______ _______ _______ _____ _____    ______ ____
ROOT
ATOM      1  N   UNL     1       6.500   6.735  17.025  0.00  0.00    +0.000 NA
ATOM      2  C   UNL     1       6.606   5.810  18.184  0.00  0.00    +0.000 C 
ATOM      3  C   UNL     1       5.555   6.064  19.281  0.00  0.00    +0.000 C 
ATOM      4  N   UNL     1       4.210   5.983  18.698  0.00  0.00    +0.000 N 
ATOM      5  C   UNL     1       3.980   6.793  17.491  0.00  0.00    +0.000 C 
ATOM      6  C   UNL     1       5.129   6.592  16.471  0.00  0.00    +0.000 C 
ENDROOT
BRANCH   4   7
ATOM      7  C   UNL     1       3.232   5.140  19.202  0.00  0.00    +0.000 A 
ATOM      8  C   UNL     1       2.243   5.647  20.066  0.00  0.00    +0.000 A 
ATOM      9  C   UNL     1       1.235   4.844  20.604  0.00  0.00    +0.000 A 
ATOM     10  C   UNL     1       1.199   3.490  20.303  0.00  0.00    +0.000 A 
ATOM     11  C   UNL     1       2.167   2.944  19.470  0.00  0.00    +0.000 A 
ATOM     12  C   UNL     1       3.163   3.759  18.901  0.00  0.00    +0.000 A 
ATOM     13  O   UNL     1       4.088   3.244  18.016  0.00  0.00    +0.000 OA
ATOM     14  C   UNL     1       3.749   1.941  17.545  0.00  0.00    +0.000 C 
ATOM     15  C   UNL     1       3.273   1.068  18.688  0.00  0.00    +0.000 C 
ATOM     16  O   UNL     1       2.067   1.594  19.245  0.00  0.00    +0.000 OA
ENDBRANCH   4   7
BRANCH   1  17
ATOM     17  C   UNL     1       6.754   8.143  17.388  0.00  0.00    +0.000 C 
BRANCH  17  18
ATOM     18  C   UNL     1       8.158   8.389  17.941  0.00  0.00    +0.000 C 
BRANCH  18  19
ATOM     19  C   UNL     1       8.690   9.748  17.506  0.00  0.00    +0.000 C 
BRANCH  19  21
ATOM     20  O   UNL     1       9.225  10.148  19.821  0.00  0.00    +0.000 OA
ATOM     21  C   UNL     1       9.305  10.519  18.652  0.00  0.00    +0.000 C 
BRANCH  21  22
ATOM     22  C   UNL     1      10.037  11.776  18.320  0.00  0.00    +0.000 A 
ATOM     23  C   UNL     1       9.329  12.982  18.339  0.00  0.00    +0.000 A 
ATOM     24  C   UNL     1       9.971  14.177  18.010  0.00  0.00    +0.000 A 
ATOM     25  C   UNL     1      11.322  14.171  17.663  0.00  0.00    +0.000 A 
ATOM     26  C   UNL     1      12.035  12.976  17.654  0.00  0.00    +0.000 A 
ATOM     27  C   UNL     1      11.398  11.779  17.983  0.00  0.00    +0.000 A 
ENDBRANCH  21  22
ENDBRANCH  19  21
ENDBRANCH  18  19
ENDBRANCH  17  18
ENDBRANCH   1  17
TORSDOF 6
ENDMDL
MODEL 9
REMARK VINA RESULT:      -7.0      7.668     11.273
REMARK  Name = 
REMARK  6 active torsions:
REMARK  status: ('A' for Active; 'I' for Inactive)
REMARK    1  A    between atoms: C_2  and  C_3
REMARK    2  A    between atoms: C_2  and  C_22
REMARK    3  A    between atoms: C_3  and  C_4
REMARK    4  A    between atoms: C_4  and  C_5
REMARK    5  A    between atoms: C_5  and  N_6
REMARK    6  A    between atoms: N_9  and  C_10
REMARK                            x       y       z     vdW  Elec       q    Type
REMARK                         _______ _______ _______ _____ _____    ______ ____
ROOT
ATOM      1  N   UNL     1       0.453   9.773  19.411  0.00  0.00    +0.000 NA
ATOM      2  C   UNL     1       0.793  10.589  20.606  0.00  0.00    +0.000 C 
ATOM      3  C   UNL     1       0.924  12.096  20.314  0.00  0.00    +0.000 C 
ATOM      4  N   UNL     1      -0.321  12.587  19.711  0.00  0.00    +0.000 N 
ATOM      5  C   UNL     1      -0.824  11.824  18.557  0.00  0.00    +0.000 C 
ATOM      6  C   UNL     1      -0.819  10.305  18.862  0.00  0.00    +0.000 C 
ENDROOT
BRANCH   4   7
ATOM      7  C   UNL     1      -1.029  13.657  20.236  0.00  0.00    +0.000 A 
ATOM      8  C   UNL     1      -1.922  13.453  21.305  0.00  0.00    +0.000 A 
ATOM      9  C   UNL     1      -2.662  14.494  21.872  0.00  0.00    +0.000 A 
ATOM     10  C   UNL     1      -2.541  15.780  21.365  0.00  0.00    +0.000 A 
ATOM     11  C   UNL     1      -1.686  16.022  20.298  0.00  0.00    +0.000 A 
ATOM     12  C   UNL     1      -0.915  14.981  19.748  0.00  0.00    +0.000 A 
ATOM     13  O   UNL     1      -0.009  15.220  18.734  0.00  0.00    +0.000 OA
ATOM     14  C   UNL     1       0.254  16.607  18.533  0.00  0.00    +0.000 C 
ATOM     15  C   UNL     1      -1.035  17.403  18.559  0.00  0.00    +0.000 C 
ATOM     16  O   UNL     1      -1.646  17.318  19.847  0.00  0.00    +0.000 OA
ENDBRANCH   4   7
BRANCH   1  17
ATOM     17  C   UNL     1       1.503   9.805  18.375  0.00  0.00    +0.000 C 
BRANCH  17  18
ATOM     18  C   UNL     1       1.811   8.434  17.771  0.00  0.00    +0.000 C 
BRANCH  18  19
ATOM     19  C   UNL     1       2.780   7.652  18.648  0.00  0.00    +0.000 C 
BRANCH  19  21
ATOM     20  O   UNL     1       3.899   6.052  17.236  0.00  0.00    +0.000 OA
ATOM     21  C   UNL     1       3.058   6.268  18.106  0.00  0.00    +0.000 C 
BRANCH  21  22
ATOM     22  C   UNL     1       2.267   5.137  18.673  0.00  0.00    +0.000 A 
ATOM     23  C   UNL     1       1.942   5.169  20.033  0.00  0.00    +0.000 A 
ATOM     24  C   UNL     1       1.226   4.118  20.608  0.00  0.00    +0.000 A 
ATOM     25  C   UNL     1       0.830   3.033  19.826  0.00  0.00    +0.000 A 
ATOM     26  C   UNL     1       1.140   3.000  18.469  0.00  0.00    +0.000 A 
ATOM     27  C   UNL     1       1.856   4.049  17.890  0.00  0.00    +0.000 A 
ENDBRANCH  21  22
ENDBRANCH  19  21
ENDBRANCH  18  19
ENDBRANCH  17  18
ENDBRANCH   1  17
TORSDOF 6
ENDMDL
