MODEL 1
REMARK VINA RESULT:      -7.3      0.000      0.000
REMARK  Name = 
REMARK  2 active torsions:
REMARK  status: ('A' for Active; 'I' for Inactive)
REMARK    1  A    between atoms: N_1  and  N_2
REMARK    2  A    between atoms: C_6  and  C_7
REMARK                            x       y       z     vdW  Elec       q    Type
REMARK                         _______ _______ _______ _____ _____    ______ ____
ROOT
ATOM      1  N   UNL     1       7.737   4.602  16.145  0.00  0.00    +0.000 N 
ATOM      2  C   UNL     1       6.791   4.498  17.127  0.00  0.00    +0.000 A 
ATOM      3  N   UNL     1       7.096   4.484  18.410  0.00  0.00    +0.000 NA
ATOM      4  N   UNL     1       5.994   4.322  19.228  0.00  0.00    +0.000 NA
ATOM      5  C   UNL     1       4.876   4.171  18.544  0.00  0.00    +0.000 A 
ATOM      6  S   UNL     1       5.097   4.338  16.847  0.00  0.00    +0.000 S 
ATOM      7  H   UNL     1       8.670   4.823  16.498  0.00  0.00    +0.000 HD
ENDROOT
BRANCH   5   8
ATOM      8  C   UNL     1       3.552   3.954  19.137  0.00  0.00    +0.000 A 
ATOM      9  C   UNL     1       2.972   4.966  19.925  0.00  0.00    +0.000 A 
ATOM     10  C   UNL     1       1.712   4.790  20.509  0.00  0.00    +0.000 A 
ATOM     11  C   UNL     1       1.013   3.600  20.321  0.00  0.00    +0.000 A 
ATOM     12  C   UNL     1       1.578   2.583  19.557  0.00  0.00    +0.000 A 
ATOM     13  C   UNL     1       2.833   2.762  18.979  0.00  0.00    +0.000 A 
ATOM     14  F   UNL     1       3.342   1.734  18.284  0.00  0.00    +0.000 F 
ENDBRANCH   5   8
BRANCH   1  15
ATOM     15  N   UNL     1       7.305   5.237  14.960  0.00  0.00    +0.000 NA
ATOM     16  H   UNL     1       6.841   4.570  14.339  0.00  0.00    +0.000 HD
ATOM     17  H   UNL     1       8.093   5.630  14.440  0.00  0.00    +0.000 HD
ENDBRANCH   1  15
TORSDOF 2
ENDMDL
MODEL 2
REMARK VINA RESULT:      -7.2      1.304      1.805
REMARK  Name = 
REMARK  2 active torsions:
REMARK  status: ('A' for Active; 'I' for Inactive)
REMARK    1  A    between atoms: N_1  and  N_2
REMARK    2  A    between atoms: C_6  and  C_7
REMARK                            x       y       z     vdW  Elec       q    Type
REMARK                         _______ _______ _______ _____ _____    ______ ____
ROOT
ATOM      1  N   UNL     1       7.751   4.623  16.210  0.00  0.00    +0.000 N 
ATOM      2  C   UNL     1       6.830   4.520  17.216  0.00  0.00    +0.000 A 
ATOM      3  N   UNL     1       7.169   4.483  18.490  0.00  0.00    +0.000 NA
ATOM      4  N   UNL     1       6.087   4.326  19.336  0.00  0.00    +0.000 NA
ATOM      5  C   UNL     1       4.949   4.203  18.680  0.00  0.00    +0.000 A 
ATOM      6  S   UNL     1       5.127   4.390  16.980  0.00  0.00    +0.000 S 
ATOM      7  H   UNL     1       8.697   4.824  16.542  0.00  0.00    +0.000 HD
ENDROOT
BRANCH   5   8
ATOM      8  C   UNL     1       3.637   3.998  19.305  0.00  0.00    +0.000 A 
ATOM      9  C   UNL     1       3.141   2.691  19.459  0.00  0.00    +0.000 A 
ATOM     10  C   UNL     1       1.891   2.460  20.047  0.00  0.00    +0.000 A 
ATOM     11  C   UNL     1       1.116   3.530  20.487  0.00  0.00    +0.000 A 
ATOM     12  C   UNL     1       1.585   4.831  20.329  0.00  0.00    +0.000 A 
ATOM     13  C   UNL     1       2.829   5.055  19.741  0.00  0.00    +0.000 A 
ATOM     14  F   UNL     1       3.212   6.331  19.583  0.00  0.00    +0.000 F 
ENDBRANCH   5   8
BRANCH   1  15
ATOM     15  N   UNL     1       7.297   5.282  15.047  0.00  0.00    +0.000 NA
ATOM     16  H   UNL     1       7.243   4.632  14.259  0.00  0.00    +0.000 HD
ATOM     17  H   UNL     1       7.936   6.032  14.771  0.00  0.00    +0.000 HD
ENDBRANCH   1  15
TORSDOF 2
ENDMDL
MODEL 3
REMARK VINA RESULT:      -6.8      1.400      1.400
REMARK  Name = 
REMARK  2 active torsions:
REMARK  status: ('A' for Active; 'I' for Inactive)
REMARK    1  A    between atoms: N_1  and  N_2
REMARK    2  A    between atoms: C_6  and  C_7
REMARK                            x       y       z     vdW  Elec       q    Type
REMARK                         _______ _______ _______ _____ _____    ______ ____
ROOT
ATOM      1  N   UNL     1       7.595   6.348  17.253  0.00  0.00    +0.000 N 
ATOM      2  C   UNL     1       6.618   5.646  17.903  0.00  0.00    +0.000 A 
ATOM      3  N   UNL     1       6.880   4.616  18.684  0.00  0.00    +0.000 NA
ATOM      4  N   UNL     1       5.744   4.023  19.201  0.00  0.00    +0.000 NA
ATOM      5  C   UNL     1       4.636   4.591  18.765  0.00  0.00    +0.000 A 
ATOM      6  S   UNL     1       4.928   5.969  17.781  0.00  0.00    +0.000 S 
ATOM      7  H   UNL     1       8.541   6.100  17.549  0.00  0.00    +0.000 HD
ENDROOT
BRANCH   5   8
ATOM      8  C   UNL     1       3.278   4.163  19.120  0.00  0.00    +0.000 A 
ATOM      9  C   UNL     1       2.744   4.525  20.370  0.00  0.00    +0.000 A 
ATOM     10  C   UNL     1       1.453   4.130  20.743  0.00  0.00    +0.000 A 
ATOM     11  C   UNL     1       0.678   3.364  19.876  0.00  0.00    +0.000 A 
ATOM     12  C   UNL     1       1.196   2.985  18.641  0.00  0.00    +0.000 A 
ATOM     13  C   UNL     1       2.482   3.379  18.276  0.00  0.00    +0.000 A 
ATOM     14  F   UNL     1       2.942   2.953  17.089  0.00  0.00    +0.000 F 
ENDBRANCH   5   8
BRANCH   1  15
ATOM     15  N   UNL     1       7.303   7.710  17.021  0.00  0.00    +0.000 NA
ATOM     16  H   UNL     1       7.153   8.204  17.903  0.00  0.00    +0.000 HD
ATOM     17  H   UNL     1       6.447   7.817  16.470  0.00  0.00    +0.000 HD
ENDBRANCH   1  15
TORSDOF 2
ENDMDL
MODEL 4
REMARK VINA RESULT:      -6.7      1.741      1.761
REMARK  Name = 
REMARK  2 active torsions:
REMARK  status: ('A' for Active; 'I' for Inactive)
REMARK    1  A    between atoms: N_1  and  N_2
REMARK    2  A    between atoms: C_6  and  C_7
REMARK                            x       y       z     vdW  Elec       q    Type
REMARK                         _______ _______ _______ _____ _____    ______ ____
ROOT
ATOM      1  N   UNL     1       7.169   6.199  16.083  0.00  0.00    +0.000 N 
ATOM      2  C   UNL     1       5.959   6.028  16.697  0.00  0.00    +0.000 A 
ATOM      3  N   UNL     1       5.162   7.036  16.993  0.00  0.00    +0.000 NA
ATOM      4  N   UNL     1       4.013   6.645  17.655  0.00  0.00    +0.000 NA
ATOM      5  C   UNL     1       3.984   5.347  17.887  0.00  0.00    +0.000 A 
ATOM      6  S   UNL     1       5.317   4.508  17.200  0.00  0.00    +0.000 S 
ATOM      7  H   UNL     1       7.322   7.149  15.740  0.00  0.00    +0.000 HD
ENDROOT
BRANCH   5   8
ATOM      8  C   UNL     1       2.906   4.645  18.594  0.00  0.00    +0.000 A 
ATOM      9  C   UNL     1       2.613   4.989  19.926  0.00  0.00    +0.000 A 
ATOM     10  C   UNL     1       1.594   4.336  20.631  0.00  0.00    +0.000 A 
ATOM     11  C   UNL     1       0.855   3.327  20.018  0.00  0.00    +0.000 A 
ATOM     12  C   UNL     1       1.141   2.964  18.705  0.00  0.00    +0.000 A 
ATOM     13  C   UNL     1       2.157   3.615  18.009  0.00  0.00    +0.000 A 
ATOM     14  F   UNL     1       2.411   3.198  16.759  0.00  0.00    +0.000 F 
ENDBRANCH   5   8
BRANCH   1  15
ATOM     15  N   UNL     1       7.588   5.121  15.273  0.00  0.00    +0.000 NA
ATOM     16  H   UNL     1       7.368   4.226  15.716  0.00  0.00    +0.000 HD
ATOM     17  H   UNL     1       8.600   5.139  15.124  0.00  0.00    +0.000 HD
ENDBRANCH   1  15
TORSDOF 2
ENDMDL
MODEL 5
REMARK VINA RESULT:      -6.6      1.876      2.049
REMARK  Name = 
REMARK  2 active torsions:
REMARK  status: ('A' for Active; 'I' for Inactive)
REMARK    1  A    between atoms: N_1  and  N_2
REMARK    2  A    between atoms: C_6  and  C_7
REMARK                            x       y       z     vdW  Elec       q    Type
REMARK                         _______ _______ _______ _____ _____    ______ ____
ROOT
ATOM      1  N   UNL     1       6.672   5.907  15.908  0.00  0.00    +0.000 N 
ATOM      2  C   UNL     1       5.775   5.131  16.588  0.00  0.00    +0.000 A 
ATOM      3  N   UNL     1       5.346   3.970  16.130  0.00  0.00    +0.000 NA
ATOM      4  N   UNL     1       4.407   3.375  16.950  0.00  0.00    +0.000 NA
ATOM      5  C   UNL     1       4.108   4.120  17.997  0.00  0.00    +0.000 A 
ATOM      6  S   UNL     1       5.055   5.551  18.098  0.00  0.00    +0.000 S 
ATOM      7  H   UNL     1       7.090   5.438  15.103  0.00  0.00    +0.000 HD
ENDROOT
BRANCH   5   8
ATOM      8  C   UNL     1       3.127   3.764  19.028  0.00  0.00    +0.000 A 
ATOM      9  C   UNL     1       3.559   3.115  20.199  0.00  0.00    +0.000 A 
ATOM     10  C   UNL     1       2.648   2.756  21.201  0.00  0.00    +0.000 A 
ATOM     11  C   UNL     1       1.293   3.036  21.048  0.00  0.00    +0.000 A 
ATOM     12  C   UNL     1       0.846   3.665  19.889  0.00  0.00    +0.000 A 
ATOM     13  C   UNL     1       1.755   4.018  18.894  0.00  0.00    +0.000 A 
ATOM     14  F   UNL     1       1.262   4.589  17.785  0.00  0.00    +0.000 F 
ENDBRANCH   5   8
BRANCH   1  15
ATOM     15  N   UNL     1       7.504   6.711  16.718  0.00  0.00    +0.000 NA
ATOM     16  H   UNL     1       7.459   6.412  17.695  0.00  0.00    +0.000 HD
ATOM     17  H   UNL     1       7.211   7.691  16.692  0.00  0.00    +0.000 HD
ENDBRANCH   1  15
TORSDOF 2
ENDMDL
MODEL 6
REMARK VINA RESULT:      -6.6      1.798      1.902
REMARK  Name = 
REMARK  2 active torsions:
REMARK  status: ('A' for Active; 'I' for Inactive)
REMARK    1  A    between atoms: N_1  and  N_2
REMARK    2  A    between atoms: C_6  and  C_7
REMARK                            x       y       z     vdW  Elec       q    Type
REMARK                         _______ _______ _______ _____ _____    ______ ____
ROOT
ATOM      1  N   UNL     1       6.505   6.012  15.901  0.00  0.00    +0.000 N 
ATOM      2  C   UNL     1       5.615   5.243  16.599  0.00  0.00    +0.000 A 
ATOM      3  N   UNL     1       5.037   4.176  16.082  0.00  0.00    +0.000 NA
ATOM      4  N   UNL     1       4.136   3.575  16.942  0.00  0.00    +0.000 NA
ATOM      5  C   UNL     1       4.016   4.229  18.081  0.00  0.00    +0.000 A 
ATOM      6  S   UNL     1       5.096   5.560  18.213  0.00  0.00    +0.000 S 
ATOM      7  H   UNL     1       6.793   5.597  15.012  0.00  0.00    +0.000 HD
ENDROOT
BRANCH   5   8
ATOM      8  C   UNL     1       3.118   3.846  19.177  0.00  0.00    +0.000 A 
ATOM      9  C   UNL     1       1.830   4.409  19.243  0.00  0.00    +0.000 A 
ATOM     10  C   UNL     1       0.949   4.070  20.277  0.00  0.00    +0.000 A 
ATOM     11  C   UNL     1       1.341   3.168  21.264  0.00  0.00    +0.000 A 
ATOM     12  C   UNL     1       2.617   2.614  21.222  0.00  0.00    +0.000 A 
ATOM     13  C   UNL     1       3.491   2.956  20.192  0.00  0.00    +0.000 A 
ATOM     14  F   UNL     1       4.719   2.418  20.223  0.00  0.00    +0.000 F 
ENDBRANCH   5   8
BRANCH   1  15
ATOM     15  N   UNL     1       7.485   6.657  16.686  0.00  0.00    +0.000 NA
ATOM     16  H   UNL     1       7.763   6.069  17.475  0.00  0.00    +0.000 HD
ATOM     17  H   UNL     1       7.130   7.533  17.077  0.00  0.00    +0.000 HD
ENDBRANCH   1  15
TORSDOF 2
ENDMDL
MODEL 7
REMARK VINA RESULT:      -6.6      1.758      2.171
REMARK  Name = 
REMARK  2 active torsions:
REMARK  status: ('A' for Active; 'I' for Inactive)
REMARK    1  A    between atoms: N_1  and  N_2
REMARK    2  A    between atoms: C_6  and  C_7
REMARK                            x       y       z     vdW  Elec       q    Type
REMARK                         _______ _______ _______ _____ _____    ______ ____
ROOT
ATOM      1  N   UNL     1       7.553   6.282  17.304  0.00  0.00    +0.000 N 
ATOM      2  C   UNL     1       6.583   5.550  17.930  0.00  0.00    +0.000 A 
ATOM      3  N   UNL     1       6.859   4.576  18.775  0.00  0.00    +0.000 NA
ATOM      4  N   UNL     1       5.732   3.936  19.255  0.00  0.00    +0.000 NA
ATOM      5  C   UNL     1       4.621   4.411  18.727  0.00  0.00    +0.000 A 
ATOM      6  S   UNL     1       4.887   5.758  17.693  0.00  0.00    +0.000 S 
ATOM      7  H   UNL     1       8.493   6.109  17.666  0.00  0.00    +0.000 HD
ENDROOT
BRANCH   5   8
ATOM      8  C   UNL     1       3.272   3.914  19.023  0.00  0.00    +0.000 A 
ATOM      9  C   UNL     1       2.818   2.735  18.405  0.00  0.00    +0.000 A 
ATOM     10  C   UNL     1       1.535   2.235  18.661  0.00  0.00    +0.000 A 
ATOM     11  C   UNL     1       0.684   2.908  19.535  0.00  0.00    +0.000 A 
ATOM     12  C   UNL     1       1.111   4.084  20.144  0.00  0.00    +0.000 A 
ATOM     13  C   UNL     1       2.388   4.578  19.884  0.00  0.00    +0.000 A 
ATOM     14  F   UNL     1       2.731   5.734  20.471  0.00  0.00    +0.000 F 
ENDBRANCH   5   8
BRANCH   1  15
ATOM     15  N   UNL     1       7.193   7.610  16.988  0.00  0.00    +0.000 NA
ATOM     16  H   UNL     1       7.183   8.193  17.827  0.00  0.00    +0.000 HD
ATOM     17  H   UNL     1       6.254   7.654  16.583  0.00  0.00    +0.000 HD
ENDBRANCH   1  15
TORSDOF 2
ENDMDL
MODEL 8
REMARK VINA RESULT:      -6.6      1.962      2.251
REMARK  Name = 
REMARK  2 active torsions:
REMARK  status: ('A' for Active; 'I' for Inactive)
REMARK    1  A    between atoms: N_1  and  N_2
REMARK    2  A    between atoms: C_6  and  C_7
REMARK                            x       y       z     vdW  Elec       q    Type
REMARK                         _______ _______ _______ _____ _____    ______ ____
ROOT
ATOM      1  N   UNL     1       7.595   5.877  15.569  0.00  0.00    +0.000 N 
ATOM      2  C   UNL     1       6.472   5.580  16.290  0.00  0.00    +0.000 A 
ATOM      3  N   UNL     1       6.021   6.355  17.257  0.00  0.00    +0.000 NA
ATOM      4  N   UNL     1       4.902   5.844  17.887  0.00  0.00    +0.000 NA
ATOM      5  C   UNL     1       4.551   4.665  17.411  0.00  0.00    +0.000 A 
ATOM      6  S   UNL     1       5.510   4.165  16.075  0.00  0.00    +0.000 S 
ATOM      7  H   UNL     1       7.956   6.817  15.743  0.00  0.00    +0.000 HD
ENDROOT
BRANCH   5   8
ATOM      8  C   UNL     1       3.421   3.866  17.898  0.00  0.00    +0.000 A 
ATOM      9  C   UNL     1       3.626   2.519  18.249  0.00  0.00    +0.000 A 
ATOM     10  C   UNL     1       2.568   1.727  18.713  0.00  0.00    +0.000 A 
ATOM     11  C   UNL     1       1.289   2.265  18.828  0.00  0.00    +0.000 A 
ATOM     12  C   UNL     1       1.065   3.591  18.470  0.00  0.00    +0.000 A 
ATOM     13  C   UNL     1       2.120   4.375  18.007  0.00  0.00    +0.000 A 
ATOM     14  F   UNL     1       1.837   5.635  17.643  0.00  0.00    +0.000 F 
ENDBRANCH   5   8
BRANCH   1  15
ATOM     15  N   UNL     1       7.602   5.394  14.242  0.00  0.00    +0.000 NA
ATOM     16  H   UNL     1       7.391   6.146  13.581  0.00  0.00    +0.000 HD
ATOM     17  H   UNL     1       6.891   4.671  14.107  0.00  0.00    +0.000 HD
ENDBRANCH   1  15
TORSDOF 2
ENDMDL
MODEL 9
REMARK VINA RESULT:      -6.5      2.070      2.424
REMARK  Name = 
REMARK  2 active torsions:
REMARK  status: ('A' for Active; 'I' for Inactive)
REMARK    1  A    between atoms: N_1  and  N_2
REMARK    2  A    between atoms: C_6  and  C_7
REMARK                            x       y       z     vdW  Elec       q    Type
REMARK                         _______ _______ _______ _____ _____    ______ ____
ROOT
ATOM      1  N   UNL     1       7.109   6.150  15.988  0.00  0.00    +0.000 N 
ATOM      2  C   UNL     1       5.904   5.952  16.603  0.00  0.00    +0.000 A 
ATOM      3  N   UNL     1       5.122   6.947  16.974  0.00  0.00    +0.000 NA
ATOM      4  N   UNL     1       3.976   6.526  17.621  0.00  0.00    +0.000 NA
ATOM      5  C   UNL     1       3.933   5.216  17.769  0.00  0.00    +0.000 A 
ATOM      6  S   UNL     1       5.250   4.409  17.012  0.00  0.00    +0.000 S 
ATOM      7  H   UNL     1       7.269   7.119  15.706  0.00  0.00    +0.000 HD
ENDROOT
BRANCH   5   8
ATOM      8  C   UNL     1       2.855   4.481  18.439  0.00  0.00    +0.000 A 
ATOM      9  C   UNL     1       2.344   3.311  17.849  0.00  0.00    +0.000 A 
ATOM     10  C   UNL     1       1.311   2.588  18.459  0.00  0.00    +0.000 A 
ATOM     11  C   UNL     1       0.770   3.024  19.666  0.00  0.00    +0.000 A 
ATOM     12  C   UNL     1       1.253   4.188  20.257  0.00  0.00    +0.000 A 
ATOM     13  C   UNL     1       2.279   4.905  19.644  0.00  0.00    +0.000 A 
ATOM     14  F   UNL     1       2.679   6.038  20.241  0.00  0.00    +0.000 F 
ENDBRANCH   5   8
BRANCH   1  15
ATOM     15  N   UNL     1       7.507   5.123  15.104  0.00  0.00    +0.000 NA
ATOM     16  H   UNL     1       8.379   5.369  14.630  0.00  0.00    +0.000 HD
ATOM     17  H   UNL     1       6.806   4.967  14.376  0.00  0.00    +0.000 HD
ENDBRANCH   1  15
TORSDOF 2
ENDMDL
