MODEL 1
REMARK VINA RESULT:      -6.5      0.000      0.000
REMARK  Name = 
REMARK  8 active torsions:
REMARK  status: ('A' for Active; 'I' for Inactive)
REMARK    1  A    between atoms: C_1  and  C_2
REMARK    2  A    between atoms: C_2  and  C_3
REMARK    3  A    between atoms: C_2  and  C_4
REMARK    4  A    between atoms: C_4  and  C_5
REMARK    5  A    between atoms: C_5  and  C_6
REMARK    6  A    between atoms: C_6  and  C_7
REMARK    7  A    between atoms: C_7  and  C_8
REMARK    8  A    between atoms: C_8  and  O_9
REMARK                            x       y       z     vdW  Elec       q    Type
REMARK                         _______ _______ _______ _____ _____    ______ ____
ROOT
ATOM      1  C   UNL     1       3.931   4.915  18.150  0.00  0.00    +0.000 C 
ATOM      2  C   UNL     1       4.271   6.024  17.174  0.00  0.00    +0.000 C 
ATOM      3  O   UNL     1       4.017   7.205  17.395  0.00  0.00    +0.000 OA
ATOM      4  N   UNL     1       4.917   5.670  16.023  0.00  0.00    +0.000 N 
ATOM      5  C   UNL     1       5.257   4.411  15.647  0.00  0.00    +0.000 C 
ATOM      6  S   UNL     1       6.071   4.131  14.224  0.00  0.00    +0.000 S 
ATOM      7  N   UNL     1       4.892   3.393  16.465  0.00  0.00    +0.000 N 
ATOM      8  C   UNL     1       4.273   3.513  17.677  0.00  0.00    +0.000 C 
ATOM      9  O   UNL     1       4.045   2.513  18.357  0.00  0.00    +0.000 OA
ATOM     10  H   UNL     1       5.163   6.432  15.403  0.00  0.00    +0.000 HD
ATOM     11  H   UNL     1       5.170   2.456  16.204  0.00  0.00    +0.000 HD
ENDROOT
BRANCH   1  12
ATOM     12  C   UNL     1       2.404   4.971  18.456  0.00  0.00    +0.000 C 
BRANCH  12  13
ATOM     13  C   UNL     1       2.068   5.229  19.937  0.00  0.00    +0.000 C 
BRANCH  13  15
ATOM     14  C   UNL     1       0.846   3.070  19.550  0.00  0.00    +0.000 C 
ATOM     15  C   UNL     1       1.280   4.088  20.610  0.00  0.00    +0.000 C 
ATOM     16  C   UNL     1       2.080   3.378  21.702  0.00  0.00    +0.000 C 
ENDBRANCH  13  15
ENDBRANCH  12  13
ENDBRANCH   1  12
BRANCH   1  17
ATOM     17  C   UNL     1       4.711   5.191  19.469  0.00  0.00    +0.000 C 
BRANCH  17  18
ATOM     18  C   UNL     1       6.213   5.429  19.291  0.00  0.00    +0.000 C 
BRANCH  18  19
ATOM     19  O   UNL     1       6.857   4.291  18.742  0.00  0.00    +0.000 OA
ATOM     20  H   UNL     1       7.687   4.586  18.321  0.00  0.00    +0.000 HD
ENDBRANCH  18  19
ENDBRANCH  17  18
ENDBRANCH   1  17
TORSDOF 6
ENDMDL
MODEL 2
REMARK VINA RESULT:      -6.2      3.019      5.554
REMARK  Name = 
REMARK  8 active torsions:
REMARK  status: ('A' for Active; 'I' for Inactive)
REMARK    1  A    between atoms: C_1  and  C_2
REMARK    2  A    between atoms: C_2  and  C_3
REMARK    3  A    between atoms: C_2  and  C_4
REMARK    4  A    between atoms: C_4  and  C_5
REMARK    5  A    between atoms: C_5  and  C_6
REMARK    6  A    between atoms: C_6  and  C_7
REMARK    7  A    between atoms: C_7  and  C_8
REMARK    8  A    between atoms: C_8  and  O_9
REMARK                            x       y       z     vdW  Elec       q    Type
REMARK                         _______ _______ _______ _____ _____    ______ ____
ROOT
ATOM      1  C   UNL     1       6.603   5.708  16.641  0.00  0.00    +0.000 C 
ATOM      2  C   UNL     1       7.104   4.502  17.412  0.00  0.00    +0.000 C 
ATOM      3  O   UNL     1       8.260   4.095  17.329  0.00  0.00    +0.000 OA
ATOM      4  N   UNL     1       6.221   3.882  18.250  0.00  0.00    +0.000 N 
ATOM      5  C   UNL     1       4.921   4.219  18.439  0.00  0.00    +0.000 C 
ATOM      6  S   UNL     1       3.968   3.389  19.520  0.00  0.00    +0.000 S 
ATOM      7  N   UNL     1       4.425   5.244  17.702  0.00  0.00    +0.000 N 
ATOM      8  C   UNL     1       5.130   6.026  16.831  0.00  0.00    +0.000 C 
ATOM      9  O   UNL     1       4.580   6.968  16.261  0.00  0.00    +0.000 OA
ATOM     10  H   UNL     1       6.590   3.101  18.779  0.00  0.00    +0.000 HD
ATOM     11  H   UNL     1       3.465   5.518  17.862  0.00  0.00    +0.000 HD
ENDROOT
BRANCH   1  12
ATOM     12  C   UNL     1       6.863   5.473  15.123  0.00  0.00    +0.000 C 
BRANCH  12  13
ATOM     13  C   UNL     1       5.956   4.402  14.488  0.00  0.00    +0.000 C 
BRANCH  13  15
ATOM     14  C   UNL     1       5.347   3.352  12.290  0.00  0.00    +0.000 C 
ATOM     15  C   UNL     1       6.510   3.806  13.178  0.00  0.00    +0.000 C 
ATOM     16  C   UNL     1       7.389   4.790  12.405  0.00  0.00    +0.000 C 
ENDBRANCH  13  15
ENDBRANCH  12  13
ENDBRANCH   1  12
BRANCH   1  17
ATOM     17  C   UNL     1       7.433   6.941  17.102  0.00  0.00    +0.000 C 
BRANCH  17  18
ATOM     18  C   UNL     1       7.890   6.902  18.563  0.00  0.00    +0.000 C 
BRANCH  18  19
ATOM     19  O   UNL     1       8.687   8.028  18.888  0.00  0.00    +0.000 OA
ATOM     20  H   UNL     1       8.150   8.831  18.745  0.00  0.00    +0.000 HD
ENDBRANCH  18  19
ENDBRANCH  17  18
ENDBRANCH   1  17
TORSDOF 6
ENDMDL
MODEL 3
REMARK VINA RESULT:      -6.2      1.004      1.200
REMARK  Name = 
REMARK  8 active torsions:
REMARK  status: ('A' for Active; 'I' for Inactive)
REMARK    1  A    between atoms: C_1  and  C_2
REMARK    2  A    between atoms: C_2  and  C_3
REMARK    3  A    between atoms: C_2  and  C_4
REMARK    4  A    between atoms: C_4  and  C_5
REMARK    5  A    between atoms: C_5  and  C_6
REMARK    6  A    between atoms: C_6  and  C_7
REMARK    7  A    between atoms: C_7  and  C_8
REMARK    8  A    between atoms: C_8  and  O_9
REMARK                            x       y       z     vdW  Elec       q    Type
REMARK                         _______ _______ _______ _____ _____    ______ ____
ROOT
ATOM      1  C   UNL     1       4.588   5.187  18.344  0.00  0.00    +0.000 C 
ATOM      2  C   UNL     1       4.669   6.153  17.178  0.00  0.00    +0.000 C 
ATOM      3  O   UNL     1       4.358   7.337  17.274  0.00  0.00    +0.000 OA
ATOM      4  N   UNL     1       5.142   5.666  15.993  0.00  0.00    +0.000 N 
ATOM      5  C   UNL     1       5.519   4.387  15.742  0.00  0.00    +0.000 C 
ATOM      6  S   UNL     1       6.106   3.941  14.252  0.00  0.00    +0.000 S 
ATOM      7  N   UNL     1       5.380   3.485  16.745  0.00  0.00    +0.000 N 
ATOM      8  C   UNL     1       4.963   3.752  18.019  0.00  0.00    +0.000 C 
ATOM      9  O   UNL     1       4.933   2.855  18.862  0.00  0.00    +0.000 OA
ATOM     10  H   UNL     1       5.219   6.338  15.239  0.00  0.00    +0.000 HD
ATOM     11  H   UNL     1       5.688   2.537  16.573  0.00  0.00    +0.000 HD
ENDROOT
BRANCH   1  12
ATOM     12  C   UNL     1       3.133   5.200  18.903  0.00  0.00    +0.000 C 
BRANCH  12  13
ATOM     13  C   UNL     1       2.103   4.512  17.989  0.00  0.00    +0.000 C 
BRANCH  13  15
ATOM     14  C   UNL     1       1.527   2.142  18.590  0.00  0.00    +0.000 C 
ATOM     15  C   UNL     1       1.104   3.607  18.739  0.00  0.00    +0.000 C 
ATOM     16  C   UNL     1       0.986   3.957  20.223  0.00  0.00    +0.000 C 
ENDBRANCH  13  15
ENDBRANCH  12  13
ENDBRANCH   1  12
BRANCH   1  17
ATOM     17  C   UNL     1       5.550   5.705  19.453  0.00  0.00    +0.000 C 
BRANCH  17  18
ATOM     18  C   UNL     1       7.039   5.613  19.109  0.00  0.00    +0.000 C 
BRANCH  18  19
ATOM     19  O   UNL     1       7.834   5.491  20.277  0.00  0.00    +0.000 OA
ATOM     20  H   UNL     1       8.742   5.257  20.003  0.00  0.00    +0.000 HD
ENDBRANCH  18  19
ENDBRANCH  17  18
ENDBRANCH   1  17
TORSDOF 6
ENDMDL
MODEL 4
REMARK VINA RESULT:      -6.1      0.609      1.051
REMARK  Name = 
REMARK  8 active torsions:
REMARK  status: ('A' for Active; 'I' for Inactive)
REMARK    1  A    between atoms: C_1  and  C_2
REMARK    2  A    between atoms: C_2  and  C_3
REMARK    3  A    between atoms: C_2  and  C_4
REMARK    4  A    between atoms: C_4  and  C_5
REMARK    5  A    between atoms: C_5  and  C_6
REMARK    6  A    between atoms: C_6  and  C_7
REMARK    7  A    between atoms: C_7  and  C_8
REMARK    8  A    between atoms: C_8  and  O_9
REMARK                            x       y       z     vdW  Elec       q    Type
REMARK                         _______ _______ _______ _____ _____    ______ ____
ROOT
ATOM      1  C   UNL     1       3.996   4.900  17.803  0.00  0.00    +0.000 C 
ATOM      2  C   UNL     1       4.390   6.115  16.986  0.00  0.00    +0.000 C 
ATOM      3  O   UNL     1       4.044   7.256  17.284  0.00  0.00    +0.000 OA
ATOM      4  N   UNL     1       5.189   5.908  15.898  0.00  0.00    +0.000 N 
ATOM      5  C   UNL     1       5.644   4.710  15.452  0.00  0.00    +0.000 C 
ATOM      6  S   UNL     1       6.639   4.611  14.124  0.00  0.00    +0.000 S 
ATOM      7  N   UNL     1       5.241   3.599  16.117  0.00  0.00    +0.000 N 
ATOM      8  C   UNL     1       4.473   3.569  17.247  0.00  0.00    +0.000 C 
ATOM      9  O   UNL     1       4.221   2.496  17.796  0.00  0.00    +0.000 OA
ATOM     10  H   UNL     1       5.466   6.739  15.390  0.00  0.00    +0.000 HD
ATOM     11  H   UNL     1       5.601   2.707  15.807  0.00  0.00    +0.000 HD
ENDROOT
BRANCH   1  12
ATOM     12  C   UNL     1       2.443   4.856  17.917  0.00  0.00    +0.000 C 
BRANCH  12  13
ATOM     13  C   UNL     1       1.924   4.653  19.353  0.00  0.00    +0.000 C 
BRANCH  13  15
ATOM     14  C   UNL     1       1.253   3.088  21.199  0.00  0.00    +0.000 C 
ATOM     15  C   UNL     1       1.694   3.177  19.734  0.00  0.00    +0.000 C 
ATOM     16  C   UNL     1       0.656   2.490  18.846  0.00  0.00    +0.000 C 
ENDBRANCH  13  15
ENDBRANCH  12  13
ENDBRANCH   1  12
BRANCH   1  17
ATOM     17  C   UNL     1       4.594   5.077  19.230  0.00  0.00    +0.000 C 
BRANCH  17  18
ATOM     18  C   UNL     1       6.107   5.305  19.272  0.00  0.00    +0.000 C 
BRANCH  18  19
ATOM     19  O   UNL     1       6.812   4.216  18.699  0.00  0.00    +0.000 OA
ATOM     20  H   UNL     1       7.664   4.550  18.361  0.00  0.00    +0.000 HD
ENDBRANCH  18  19
ENDBRANCH  17  18
ENDBRANCH   1  17
TORSDOF 6
ENDMDL
MODEL 5
REMARK VINA RESULT:      -6.1      3.036      5.697
REMARK  Name = 
REMARK  8 active torsions:
REMARK  status: ('A' for Active; 'I' for Inactive)
REMARK    1  A    between atoms: C_1  and  C_2
REMARK    2  A    between atoms: C_2  and  C_3
REMARK    3  A    between atoms: C_2  and  C_4
REMARK    4  A    between atoms: C_4  and  C_5
REMARK    5  A    between atoms: C_5  and  C_6
REMARK    6  A    between atoms: C_6  and  C_7
REMARK    7  A    between atoms: C_7  and  C_8
REMARK    8  A    between atoms: C_8  and  O_9
REMARK                            x       y       z     vdW  Elec       q    Type
REMARK                         _______ _______ _______ _____ _____    ______ ____
ROOT
ATOM      1  C   UNL     1       6.842   5.481  16.381  0.00  0.00    +0.000 C 
ATOM      2  C   UNL     1       7.160   4.472  17.467  0.00  0.00    +0.000 C 
ATOM      3  O   UNL     1       8.295   4.043  17.663  0.00  0.00    +0.000 OA
ATOM      4  N   UNL     1       6.130   4.065  18.266  0.00  0.00    +0.000 N 
ATOM      5  C   UNL     1       4.833   4.451  18.165  0.00  0.00    +0.000 C 
ATOM      6  S   UNL     1       3.686   3.894  19.232  0.00  0.00    +0.000 S 
ATOM      7  N   UNL     1       4.507   5.291  17.152  0.00  0.00    +0.000 N 
ATOM      8  C   UNL     1       5.374   5.851  16.256  0.00  0.00    +0.000 C 
ATOM      9  O   UNL     1       4.964   6.648  15.412  0.00  0.00    +0.000 OA
ATOM     10  H   UNL     1       6.375   3.417  19.006  0.00  0.00    +0.000 HD
ATOM     11  H   UNL     1       3.548   5.605  17.090  0.00  0.00    +0.000 HD
ENDROOT
BRANCH   1  12
ATOM     12  C   UNL     1       7.323   4.911  15.013  0.00  0.00    +0.000 C 
BRANCH  12  13
ATOM     13  C   UNL     1       6.340   3.916  14.366  0.00  0.00    +0.000 C 
BRANCH  13  15
ATOM     14  C   UNL     1       7.421   4.715  12.245  0.00  0.00    +0.000 C 
ATOM     15  C   UNL     1       6.145   4.122  12.851  0.00  0.00    +0.000 C 
ATOM     16  C   UNL     1       5.786   2.829  12.118  0.00  0.00    +0.000 C 
ENDBRANCH  13  15
ENDBRANCH  12  13
ENDBRANCH   1  12
BRANCH   1  17
ATOM     17  C   UNL     1       7.648   6.776  16.689  0.00  0.00    +0.000 C 
BRANCH  17  18
ATOM     18  C   UNL     1       7.353   7.411  18.050  0.00  0.00    +0.000 C 
BRANCH  18  19
ATOM     19  O   UNL     1       8.519   7.480  18.854  0.00  0.00    +0.000 OA
ATOM     20  H   UNL     1       8.563   6.668  19.394  0.00  0.00    +0.000 HD
ENDBRANCH  18  19
ENDBRANCH  17  18
ENDBRANCH   1  17
TORSDOF 6
ENDMDL
MODEL 6
REMARK VINA RESULT:      -6.1      2.277      3.044
REMARK  Name = 
REMARK  8 active torsions:
REMARK  status: ('A' for Active; 'I' for Inactive)
REMARK    1  A    between atoms: C_1  and  C_2
REMARK    2  A    between atoms: C_2  and  C_3
REMARK    3  A    between atoms: C_2  and  C_4
REMARK    4  A    between atoms: C_4  and  C_5
REMARK    5  A    between atoms: C_5  and  C_6
REMARK    6  A    between atoms: C_6  and  C_7
REMARK    7  A    between atoms: C_7  and  C_8
REMARK    8  A    between atoms: C_8  and  O_9
REMARK                            x       y       z     vdW  Elec       q    Type
REMARK                         _______ _______ _______ _____ _____    ______ ____
ROOT
ATOM      1  C   UNL     1       6.297   5.320  17.422  0.00  0.00    +0.000 C 
ATOM      2  C   UNL     1       7.073   5.988  16.303  0.00  0.00    +0.000 C 
ATOM      3  O   UNL     1       7.783   6.973  16.483  0.00  0.00    +0.000 OA
ATOM      4  N   UNL     1       6.986   5.428  15.059  0.00  0.00    +0.000 N 
ATOM      5  C   UNL     1       6.242   4.347  14.715  0.00  0.00    +0.000 C 
ATOM      6  S   UNL     1       6.256   3.756  13.161  0.00  0.00    +0.000 S 
ATOM      7  N   UNL     1       5.476   3.779  15.680  0.00  0.00    +0.000 N 
ATOM      8  C   UNL     1       5.432   4.147  16.995  0.00  0.00    +0.000 C 
ATOM      9  O   UNL     1       4.737   3.515  17.792  0.00  0.00    +0.000 OA
ATOM     10  H   UNL     1       7.540   5.872  14.337  0.00  0.00    +0.000 HD
ATOM     11  H   UNL     1       4.944   2.955  15.435  0.00  0.00    +0.000 HD
ENDROOT
BRANCH   1  12
ATOM     12  C   UNL     1       5.382   6.385  18.099  0.00  0.00    +0.000 C 
BRANCH  12  13
ATOM     13  C   UNL     1       4.228   6.880  17.207  0.00  0.00    +0.000 C 
BRANCH  13  15
ATOM     14  C   UNL     1       2.983   6.292  19.308  0.00  0.00    +0.000 C 
ATOM     15  C   UNL     1       2.862   6.931  17.920  0.00  0.00    +0.000 C 
ATOM     16  C   UNL     1       2.319   8.354  18.059  0.00  0.00    +0.000 C 
ENDBRANCH  13  15
ENDBRANCH  12  13
ENDBRANCH   1  12
BRANCH   1  17
ATOM     17  C   UNL     1       7.327   4.812  18.472  0.00  0.00    +0.000 C 
BRANCH  17  18
ATOM     18  C   UNL     1       7.796   5.866  19.479  0.00  0.00    +0.000 C 
BRANCH  18  19
ATOM     19  O   UNL     1       8.159   5.277  20.716  0.00  0.00    +0.000 OA
ATOM     20  H   UNL     1       7.897   4.336  20.693  0.00  0.00    +0.000 HD
ENDBRANCH  18  19
ENDBRANCH  17  18
ENDBRANCH   1  17
TORSDOF 6
ENDMDL
MODEL 7
REMARK VINA RESULT:      -6.1      3.059      4.821
REMARK  Name = 
REMARK  8 active torsions:
REMARK  status: ('A' for Active; 'I' for Inactive)
REMARK    1  A    between atoms: C_1  and  C_2
REMARK    2  A    between atoms: C_2  and  C_3
REMARK    3  A    between atoms: C_2  and  C_4
REMARK    4  A    between atoms: C_4  and  C_5
REMARK    5  A    between atoms: C_5  and  C_6
REMARK    6  A    between atoms: C_6  and  C_7
REMARK    7  A    between atoms: C_7  and  C_8
REMARK    8  A    between atoms: C_8  and  O_9
REMARK                            x       y       z     vdW  Elec       q    Type
REMARK                         _______ _______ _______ _____ _____    ______ ____
ROOT
ATOM      1  C   UNL     1       3.673   4.647  18.613  0.00  0.00    +0.000 C 
ATOM      2  C   UNL     1       3.642   6.008  17.946  0.00  0.00    +0.000 C 
ATOM      3  O   UNL     1       4.168   6.227  16.858  0.00  0.00    +0.000 OA
ATOM      4  N   UNL     1       2.966   7.006  18.588  0.00  0.00    +0.000 N 
ATOM      5  C   UNL     1       2.342   6.910  19.789  0.00  0.00    +0.000 C 
ATOM      6  S   UNL     1       1.528   8.206  20.440  0.00  0.00    +0.000 S 
ATOM      7  N   UNL     1       2.423   5.725  20.445  0.00  0.00    +0.000 N 
ATOM      8  C   UNL     1       3.015   4.585  19.980  0.00  0.00    +0.000 C 
ATOM      9  O   UNL     1       2.974   3.550  20.646  0.00  0.00    +0.000 OA
ATOM     10  H   UNL     1       2.930   7.896  18.106  0.00  0.00    +0.000 HD
ATOM     11  H   UNL     1       1.934   5.639  21.326  0.00  0.00    +0.000 HD
ENDROOT
BRANCH   1  12
ATOM     12  C   UNL     1       5.158   4.198  18.761  0.00  0.00    +0.000 C 
BRANCH  12  13
ATOM     13  C   UNL     1       6.094   5.293  19.305  0.00  0.00    +0.000 C 
BRANCH  13  15
ATOM     14  C   UNL     1       7.348   4.587  17.247  0.00  0.00    +0.000 C 
ATOM     15  C   UNL     1       7.412   5.441  18.518  0.00  0.00    +0.000 C 
ATOM     16  C   UNL     1       7.719   6.891  18.143  0.00  0.00    +0.000 C 
ENDBRANCH  13  15
ENDBRANCH  12  13
ENDBRANCH   1  12
BRANCH   1  17
ATOM     17  C   UNL     1       2.944   3.644  17.672  0.00  0.00    +0.000 C 
BRANCH  17  18
ATOM     18  C   UNL     1       3.523   2.227  17.667  0.00  0.00    +0.000 C 
BRANCH  18  19
ATOM     19  O   UNL     1       2.765   1.353  18.488  0.00  0.00    +0.000 OA
ATOM     20  H   UNL     1       3.192   0.476  18.473  0.00  0.00    +0.000 HD
ENDBRANCH  18  19
ENDBRANCH  17  18
ENDBRANCH   1  17
TORSDOF 6
ENDMDL
MODEL 8
REMARK VINA RESULT:      -6.0      3.041      5.194
REMARK  Name = 
REMARK  8 active torsions:
REMARK  status: ('A' for Active; 'I' for Inactive)
REMARK    1  A    between atoms: C_1  and  C_2
REMARK    2  A    between atoms: C_2  and  C_3
REMARK    3  A    between atoms: C_2  and  C_4
REMARK    4  A    between atoms: C_4  and  C_5
REMARK    5  A    between atoms: C_5  and  C_6
REMARK    6  A    between atoms: C_6  and  C_7
REMARK    7  A    between atoms: C_7  and  C_8
REMARK    8  A    between atoms: C_8  and  O_9
REMARK                            x       y       z     vdW  Elec       q    Type
REMARK                         _______ _______ _______ _____ _____    ______ ____
ROOT
ATOM      1  C   UNL     1       3.476   4.291  18.047  0.00  0.00    +0.000 C 
ATOM      2  C   UNL     1       4.264   3.816  19.253  0.00  0.00    +0.000 C 
ATOM      3  O   UNL     1       5.488   3.883  19.315  0.00  0.00    +0.000 OA
ATOM      4  N   UNL     1       3.553   3.327  20.312  0.00  0.00    +0.000 N 
ATOM      5  C   UNL     1       2.205   3.192  20.383  0.00  0.00    +0.000 C 
ATOM      6  S   UNL     1       1.471   2.607  21.755  0.00  0.00    +0.000 S 
ATOM      7  N   UNL     1       1.483   3.535  19.287  0.00  0.00    +0.000 N 
ATOM      8  C   UNL     1       1.975   4.076  18.133  0.00  0.00    +0.000 C 
ATOM      9  O   UNL     1       1.209   4.401  17.225  0.00  0.00    +0.000 OA
ATOM     10  H   UNL     1       4.100   3.048  21.118  0.00  0.00    +0.000 HD
ATOM     11  H   UNL     1       0.476   3.466  19.345  0.00  0.00    +0.000 HD
ENDROOT
BRANCH   1  12
ATOM     12  C   UNL     1       4.007   3.553  16.782  0.00  0.00    +0.000 C 
BRANCH  12  13
ATOM     13  C   UNL     1       4.768   4.461  15.797  0.00  0.00    +0.000 C 
BRANCH  13  15
ATOM     14  C   UNL     1       6.557   4.317  14.041  0.00  0.00    +0.000 C 
ATOM     15  C   UNL     1       6.207   3.993  15.497  0.00  0.00    +0.000 C 
ATOM     16  C   UNL     1       7.243   4.630  16.424  0.00  0.00    +0.000 C 
ENDBRANCH  13  15
ENDBRANCH  12  13
ENDBRANCH   1  12
BRANCH   1  17
ATOM     17  C   UNL     1       3.744   5.816  17.880  0.00  0.00    +0.000 C 
BRANCH  17  18
ATOM     18  C   UNL     1       2.921   6.719  18.802  0.00  0.00    +0.000 C 
BRANCH  18  19
ATOM     19  O   UNL     1       2.004   7.513  18.067  0.00  0.00    +0.000 OA
ATOM     20  H   UNL     1       2.512   8.183  17.572  0.00  0.00    +0.000 HD
ENDBRANCH  18  19
ENDBRANCH  17  18
ENDBRANCH   1  17
TORSDOF 6
ENDMDL
MODEL 9
REMARK VINA RESULT:      -6.0      3.005      4.814
REMARK  Name = 
REMARK  8 active torsions:
REMARK  status: ('A' for Active; 'I' for Inactive)
REMARK    1  A    between atoms: C_1  and  C_2
REMARK    2  A    between atoms: C_2  and  C_3
REMARK    3  A    between atoms: C_2  and  C_4
REMARK    4  A    between atoms: C_4  and  C_5
REMARK    5  A    between atoms: C_5  and  C_6
REMARK    6  A    between atoms: C_6  and  C_7
REMARK    7  A    between atoms: C_7  and  C_8
REMARK    8  A    between atoms: C_8  and  O_9
REMARK                            x       y       z     vdW  Elec       q    Type
REMARK                         _______ _______ _______ _____ _____    ______ ____
ROOT
ATOM      1  C   UNL     1       3.866   3.877  18.123  0.00  0.00    +0.000 C 
ATOM      2  C   UNL     1       2.423   4.281  17.893  0.00  0.00    +0.000 C 
ATOM      3  O   UNL     1       1.708   3.743  17.052  0.00  0.00    +0.000 OA
ATOM      4  N   UNL     1       1.913   5.265  18.692  0.00  0.00    +0.000 N 
ATOM      5  C   UNL     1       2.583   5.946  19.656  0.00  0.00    +0.000 C 
ATOM      6  S   UNL     1       1.822   7.104  20.575  0.00  0.00    +0.000 S 
ATOM      7  N   UNL     1       3.898   5.659  19.827  0.00  0.00    +0.000 N 
ATOM      8  C   UNL     1       4.605   4.694  19.168  0.00  0.00    +0.000 C 
ATOM      9  O   UNL     1       5.786   4.488  19.453  0.00  0.00    +0.000 OA
ATOM     10  H   UNL     1       0.937   5.493  18.543  0.00  0.00    +0.000 HD
ATOM     11  H   UNL     1       4.394   6.142  20.563  0.00  0.00    +0.000 HD
ENDROOT
BRANCH   1  12
ATOM     12  C   UNL     1       4.637   3.992  16.773  0.00  0.00    +0.000 C 
BRANCH  12  13
ATOM     13  C   UNL     1       4.917   5.441  16.332  0.00  0.00    +0.000 C 
BRANCH  13  15
ATOM     14  C   UNL     1       6.819   6.863  17.148  0.00  0.00    +0.000 C 
ATOM     15  C   UNL     1       6.415   5.765  16.158  0.00  0.00    +0.000 C 
ATOM     16  C   UNL     1       7.313   4.544  16.356  0.00  0.00    +0.000 C 
ENDBRANCH  13  15
ENDBRANCH  12  13
ENDBRANCH   1  12
BRANCH   1  17
ATOM     17  C   UNL     1       3.873   2.386  18.572  0.00  0.00    +0.000 C 
BRANCH  17  18
ATOM     18  C   UNL     1       4.026   2.168  20.079  0.00  0.00    +0.000 C 
BRANCH  18  19
ATOM     19  O   UNL     1       5.277   1.580  20.393  0.00  0.00    +0.000 OA
ATOM     20  H   UNL     1       5.169   0.610  20.380  0.00  0.00    +0.000 HD
ENDBRANCH  18  19
ENDBRANCH  17  18
ENDBRANCH   1  17
TORSDOF 6
ENDMDL
