MODEL 1
REMARK VINA RESULT:      -8.4      0.000      0.000
REMARK  Name = 
REMARK  7 active torsions:
REMARK  status: ('A' for Active; 'I' for Inactive)
REMARK    1  A    between atoms: C_1  and  C_2
REMARK    2  A    between atoms: C_7  and  N_8
REMARK    3  A    between atoms: N_8  and  C_9
REMARK    4  A    between atoms: C_9  and  C_10
REMARK    5  A    between atoms: C_12  and  C_13
REMARK    6  A    between atoms: C_20  and  C_21
REMARK    7  A    between atoms: C_20  and  C_22
REMARK                            x       y       z     vdW  Elec       q    Type
REMARK                         _______ _______ _______ _____ _____    ______ ____
ROOT
ATOM      1  N   UNL     1       3.107   5.931  18.512  0.00  0.00    +0.000 NA
ATOM      2  H   UNL     1       3.622   5.774  19.378  0.00  0.00    +0.000 HD
ENDROOT
BRANCH   1   9
ATOM      3  C   UNL     1       4.228   2.566  17.409  0.00  0.00    +0.000 C 
ATOM      4  C   UNL     1       3.709   3.521  18.502  0.00  0.00    +0.000 C 
ATOM      5  C   UNL     1       2.963   2.699  19.600  0.00  0.00    +0.000 C 
ATOM      6  C   UNL     1       1.711   1.985  19.001  0.00  0.00    +0.000 C 
ATOM      7  C   UNL     1       1.013   3.363  19.216  0.00  0.00    +0.000 C 
ATOM      8  C   UNL     1       1.307   4.234  17.983  0.00  0.00    +0.000 C 
ATOM      9  C   UNL     1       2.794   4.635  17.880  0.00  0.00    +0.000 C 
ATOM     10  C   UNL     1       1.911   3.467  20.539  0.00  0.00    +0.000 C 
ATOM     11  C   UNL     1       2.345   4.813  21.121  0.00  0.00    +0.000 C 
ATOM     12  C   UNL     1       1.282   2.691  21.723  0.00  0.00    +0.000 C 
ENDBRANCH   1   9
BRANCH   1  13
ATOM     13  C   UNL     1       3.844   6.906  17.715  0.00  0.00    +0.000 C 
BRANCH  13  14
ATOM     14  C   UNL     1       5.072   6.276  17.098  0.00  0.00    +0.000 A 
ATOM     15  C   UNL     1       5.241   5.787  15.810  0.00  0.00    +0.000 A 
ATOM     16  C   UNL     1       6.491   5.102  15.610  0.00  0.00    +0.000 A 
ATOM     17  C   UNL     1       7.269   5.198  16.751  0.00  0.00    +0.000 A 
ATOM     18  S   UNL     1       6.489   6.031  18.027  0.00  0.00    +0.000 S 
BRANCH  16  19
ATOM     19  C   UNL     1       6.863   4.361  14.346  0.00  0.00    +0.000 C 
ATOM     20  C   UNL     1       5.694   3.765  13.562  0.00  0.00    +0.000 C 
ATOM     21  C   UNL     1       6.290   3.469  12.187  0.00  0.00    +0.000 C 
ATOM     22  C   UNL     1       7.387   4.508  11.974  0.00  0.00    +0.000 C 
ATOM     23  C   UNL     1       7.548   5.246  13.300  0.00  0.00    +0.000 C 
ENDBRANCH  16  19
ENDBRANCH  13  14
ENDBRANCH   1  13
TORSDOF 4
ENDMDL
MODEL 2
REMARK VINA RESULT:      -7.6      1.104      2.322
REMARK  Name = 
REMARK  7 active torsions:
REMARK  status: ('A' for Active; 'I' for Inactive)
REMARK    1  A    between atoms: C_1  and  C_2
REMARK    2  A    between atoms: C_7  and  N_8
REMARK    3  A    between atoms: N_8  and  C_9
REMARK    4  A    between atoms: C_9  and  C_10
REMARK    5  A    between atoms: C_12  and  C_13
REMARK    6  A    between atoms: C_20  and  C_21
REMARK    7  A    between atoms: C_20  and  C_22
REMARK                            x       y       z     vdW  Elec       q    Type
REMARK                         _______ _______ _______ _____ _____    ______ ____
ROOT
ATOM      1  N   UNL     1       3.187   6.452  17.956  0.00  0.00    +0.000 NA
ATOM      2  H   UNL     1       2.305   6.855  17.644  0.00  0.00    +0.000 HD
ENDROOT
BRANCH   1   9
ATOM      3  C   UNL     1       1.488   7.003  21.212  0.00  0.00    +0.000 C 
ATOM      4  C   UNL     1       1.656   6.216  19.897  0.00  0.00    +0.000 C 
ATOM      5  C   UNL     1       1.137   4.757  20.094  0.00  0.00    +0.000 C 
ATOM      6  C   UNL     1       1.982   4.009  21.171  0.00  0.00    +0.000 C 
ATOM      7  C   UNL     1       2.975   3.755  19.995  0.00  0.00    +0.000 C 
ATOM      8  C   UNL     1       3.897   4.981  19.888  0.00  0.00    +0.000 C 
ATOM      9  C   UNL     1       3.151   6.247  19.416  0.00  0.00    +0.000 C 
ATOM     10  C   UNL     1       1.662   3.622  19.086  0.00  0.00    +0.000 C 
ATOM     11  C   UNL     1       1.670   3.960  17.595  0.00  0.00    +0.000 C 
ATOM     12  C   UNL     1       1.035   2.209  19.184  0.00  0.00    +0.000 C 
ENDBRANCH   1   9
BRANCH   1  13
ATOM     13  C   UNL     1       4.274   7.263  17.419  0.00  0.00    +0.000 C 
BRANCH  13  14
ATOM     14  C   UNL     1       5.330   6.389  16.781  0.00  0.00    +0.000 A 
ATOM     15  C   UNL     1       5.325   5.801  15.523  0.00  0.00    +0.000 A 
ATOM     16  C   UNL     1       6.421   4.894  15.303  0.00  0.00    +0.000 A 
ATOM     17  C   UNL     1       7.279   4.920  16.389  0.00  0.00    +0.000 A 
ATOM     18  S   UNL     1       6.743   5.954  17.644  0.00  0.00    +0.000 S 
BRANCH  16  19
ATOM     19  C   UNL     1       6.573   4.025  14.077  0.00  0.00    +0.000 C 
ATOM     20  C   UNL     1       5.273   3.669  13.354  0.00  0.00    +0.000 C 
ATOM     21  C   UNL     1       5.739   3.175  11.986  0.00  0.00    +0.000 C 
ATOM     22  C   UNL     1       7.034   3.926  11.689  0.00  0.00    +0.000 C 
ATOM     23  C   UNL     1       7.402   4.677  12.966  0.00  0.00    +0.000 C 
ENDBRANCH  16  19
ENDBRANCH  13  14
ENDBRANCH   1  13
TORSDOF 4
ENDMDL
MODEL 3
REMARK VINA RESULT:      -7.5      1.022      2.302
REMARK  Name = 
REMARK  7 active torsions:
REMARK  status: ('A' for Active; 'I' for Inactive)
REMARK    1  A    between atoms: C_1  and  C_2
REMARK    2  A    between atoms: C_7  and  N_8
REMARK    3  A    between atoms: N_8  and  C_9
REMARK    4  A    between atoms: C_9  and  C_10
REMARK    5  A    between atoms: C_12  and  C_13
REMARK    6  A    between atoms: C_20  and  C_21
REMARK    7  A    between atoms: C_20  and  C_22
REMARK                            x       y       z     vdW  Elec       q    Type
REMARK                         _______ _______ _______ _____ _____    ______ ____
ROOT
ATOM      1  N   UNL     1       3.083   6.222  17.862  0.00  0.00    +0.000 NA
ATOM      2  H   UNL     1       2.167   6.600  17.622  0.00  0.00    +0.000 HD
ENDROOT
BRANCH   1   9
ATOM      3  C   UNL     1       1.164   5.130  20.848  0.00  0.00    +0.000 C 
ATOM      4  C   UNL     1       1.824   4.829  19.488  0.00  0.00    +0.000 C 
ATOM      5  C   UNL     1       2.195   3.314  19.414  0.00  0.00    +0.000 C 
ATOM      6  C   UNL     1       3.243   2.947  20.510  0.00  0.00    +0.000 C 
ATOM      7  C   UNL     1       4.281   3.500  19.484  0.00  0.00    +0.000 C 
ATOM      8  C   UNL     1       4.368   5.023  19.681  0.00  0.00    +0.000 C 
ATOM      9  C   UNL     1       3.074   5.751  19.260  0.00  0.00    +0.000 C 
ATOM     10  C   UNL     1       3.326   2.861  18.368  0.00  0.00    +0.000 C 
ATOM     11  C   UNL     1       3.238   3.431  16.952  0.00  0.00    +0.000 C 
ATOM     12  C   UNL     1       3.589   1.345  18.185  0.00  0.00    +0.000 C 
ENDBRANCH   1   9
BRANCH   1  13
ATOM     13  C   UNL     1       4.094   7.205  17.491  0.00  0.00    +0.000 C 
BRANCH  13  14
ATOM     14  C   UNL     1       5.271   6.536  16.818  0.00  0.00    +0.000 A 
ATOM     15  C   UNL     1       5.315   5.888  15.591  0.00  0.00    +0.000 A 
ATOM     16  C   UNL     1       6.563   5.219  15.334  0.00  0.00    +0.000 A 
ATOM     17  C   UNL     1       7.459   5.486  16.354  0.00  0.00    +0.000 A 
ATOM     18  S   UNL     1       6.793   6.456  17.598  0.00  0.00    +0.000 S 
BRANCH  16  19
ATOM     19  C   UNL     1       6.822   4.331  14.139  0.00  0.00    +0.000 C 
ATOM     20  C   UNL     1       5.580   3.722  13.487  0.00  0.00    +0.000 C 
ATOM     21  C   UNL     1       6.078   3.252  12.122  0.00  0.00    +0.000 C 
ATOM     22  C   UNL     1       7.211   4.200  11.740  0.00  0.00    +0.000 C 
ATOM     23  C   UNL     1       7.486   5.063  12.968  0.00  0.00    +0.000 C 
ENDBRANCH  16  19
ENDBRANCH  13  14
ENDBRANCH   1  13
TORSDOF 4
ENDMDL
MODEL 4
REMARK VINA RESULT:      -7.4      3.875      7.234
REMARK  Name = 
REMARK  7 active torsions:
REMARK  status: ('A' for Active; 'I' for Inactive)
REMARK    1  A    between atoms: C_1  and  C_2
REMARK    2  A    between atoms: C_7  and  N_8
REMARK    3  A    between atoms: N_8  and  C_9
REMARK    4  A    between atoms: C_9  and  C_10
REMARK    5  A    between atoms: C_12  and  C_13
REMARK    6  A    between atoms: C_20  and  C_21
REMARK    7  A    between atoms: C_20  and  C_22
REMARK                            x       y       z     vdW  Elec       q    Type
REMARK                         _______ _______ _______ _____ _____    ______ ____
ROOT
ATOM      1  N   UNL     1       2.150   5.999  18.065  0.00  0.00    +0.000 NA
ATOM      2  H   UNL     1       1.614   5.882  18.925  0.00  0.00    +0.000 HD
ENDROOT
BRANCH   1   9
ATOM      3  C   UNL     1       5.235   3.931  18.103  0.00  0.00    +0.000 C 
ATOM      4  C   UNL     1       3.959   4.458  18.789  0.00  0.00    +0.000 C 
ATOM      5  C   UNL     1       3.498   3.442  19.881  0.00  0.00    +0.000 C 
ATOM      6  C   UNL     1       3.125   2.070  19.239  0.00  0.00    +0.000 C 
ATOM      7  C   UNL     1       1.752   2.753  18.950  0.00  0.00    +0.000 C 
ATOM      8  C   UNL     1       1.881   3.522  17.625  0.00  0.00    +0.000 C 
ATOM      9  C   UNL     1       2.832   4.733  17.731  0.00  0.00    +0.000 C 
ATOM     10  C   UNL     1       1.965   3.486  20.359  0.00  0.00    +0.000 C 
ATOM     11  C   UNL     1       1.364   4.859  20.659  0.00  0.00    +0.000 C 
ATOM     12  C   UNL     1       1.543   2.584  21.546  0.00  0.00    +0.000 C 
ENDBRANCH   1   9
BRANCH   1  13
ATOM     13  C   UNL     1       2.978   7.191  18.202  0.00  0.00    +0.000 C 
BRANCH  13  14
ATOM     14  C   UNL     1       2.160   8.356  18.710  0.00  0.00    +0.000 A 
ATOM     15  C   UNL     1       1.423   8.452  19.883  0.00  0.00    +0.000 A 
ATOM     16  C   UNL     1       0.628   9.648  19.973  0.00  0.00    +0.000 A 
ATOM     17  C   UNL     1       0.888  10.468  18.889  0.00  0.00    +0.000 A 
ATOM     18  S   UNL     1       2.000   9.785  17.781  0.00  0.00    +0.000 S 
BRANCH  16  19
ATOM     19  C   UNL     1      -0.363   9.931  21.078  0.00  0.00    +0.000 C 
ATOM     20  C   UNL     1       0.072   9.503  22.480  0.00  0.00    +0.000 C 
ATOM     21  C   UNL     1      -0.879  10.260  23.404  0.00  0.00    +0.000 C 
ATOM     22  C   UNL     1      -1.236  11.550  22.671  0.00  0.00    +0.000 C 
ATOM     23  C   UNL     1      -0.660  11.422  21.264  0.00  0.00    +0.000 C 
ENDBRANCH  16  19
ENDBRANCH  13  14
ENDBRANCH   1  13
TORSDOF 4
ENDMDL
MODEL 5
REMARK VINA RESULT:      -7.4      0.910      1.753
REMARK  Name = 
REMARK  7 active torsions:
REMARK  status: ('A' for Active; 'I' for Inactive)
REMARK    1  A    between atoms: C_1  and  C_2
REMARK    2  A    between atoms: C_7  and  N_8
REMARK    3  A    between atoms: N_8  and  C_9
REMARK    4  A    between atoms: C_9  and  C_10
REMARK    5  A    between atoms: C_12  and  C_13
REMARK    6  A    between atoms: C_20  and  C_21
REMARK    7  A    between atoms: C_20  and  C_22
REMARK                            x       y       z     vdW  Elec       q    Type
REMARK                         _______ _______ _______ _____ _____    ______ ____
ROOT
ATOM      1  N   UNL     1       3.641   6.356  18.933  0.00  0.00    +0.000 NA
ATOM      2  H   UNL     1       4.457   5.763  19.085  0.00  0.00    +0.000 HD
ENDROOT
BRANCH   1   9
ATOM      3  C   UNL     1       1.027   4.245  17.350  0.00  0.00    +0.000 C 
ATOM      4  C   UNL     1       2.423   4.410  17.984  0.00  0.00    +0.000 C 
ATOM      5  C   UNL     1       2.888   3.045  18.581  0.00  0.00    +0.000 C 
ATOM      6  C   UNL     1       1.932   2.586  19.724  0.00  0.00    +0.000 C 
ATOM      7  C   UNL     1       2.785   3.541  20.614  0.00  0.00    +0.000 C 
ATOM      8  C   UNL     1       2.202   4.957  20.474  0.00  0.00    +0.000 C 
ATOM      9  C   UNL     1       2.412   5.550  19.064  0.00  0.00    +0.000 C 
ATOM     10  C   UNL     1       4.023   3.062  19.717  0.00  0.00    +0.000 C 
ATOM     11  C   UNL     1       5.243   3.951  19.475  0.00  0.00    +0.000 C 
ATOM     12  C   UNL     1       4.593   1.705  20.202  0.00  0.00    +0.000 C 
ENDBRANCH   1   9
BRANCH   1  13
ATOM     13  C   UNL     1       3.834   7.087  17.686  0.00  0.00    +0.000 C 
BRANCH  13  14
ATOM     14  C   UNL     1       5.015   6.537  16.920  0.00  0.00    +0.000 A 
ATOM     15  C   UNL     1       5.016   5.766  15.765  0.00  0.00    +0.000 A 
ATOM     16  C   UNL     1       6.318   5.275  15.397  0.00  0.00    +0.000 A 
ATOM     17  C   UNL     1       7.276   5.795  16.251  0.00  0.00    +0.000 A 
ATOM     18  S   UNL     1       6.614   6.786  17.480  0.00  0.00    +0.000 S 
BRANCH  16  19
ATOM     19  C   UNL     1       6.574   4.307  14.266  0.00  0.00    +0.000 C 
ATOM     20  C   UNL     1       5.332   3.823  13.517  0.00  0.00    +0.000 C 
ATOM     21  C   UNL     1       5.892   3.231  12.225  0.00  0.00    +0.000 C 
ATOM     22  C   UNL     1       7.166   4.015  11.923  0.00  0.00    +0.000 C 
ATOM     23  C   UNL     1       7.432   4.896  13.141  0.00  0.00    +0.000 C 
ENDBRANCH  16  19
ENDBRANCH  13  14
ENDBRANCH   1  13
TORSDOF 4
ENDMDL
MODEL 6
REMARK VINA RESULT:      -7.3      4.644      7.071
REMARK  Name = 
REMARK  7 active torsions:
REMARK  status: ('A' for Active; 'I' for Inactive)
REMARK    1  A    between atoms: C_1  and  C_2
REMARK    2  A    between atoms: C_7  and  N_8
REMARK    3  A    between atoms: N_8  and  C_9
REMARK    4  A    between atoms: C_9  and  C_10
REMARK    5  A    between atoms: C_12  and  C_13
REMARK    6  A    between atoms: C_20  and  C_21
REMARK    7  A    between atoms: C_20  and  C_22
REMARK                            x       y       z     vdW  Elec       q    Type
REMARK                         _______ _______ _______ _____ _____    ______ ____
ROOT
ATOM      1  N   UNL     1       2.580   6.845  18.823  0.00  0.00    +0.000 NA
ATOM      2  H   UNL     1       3.230   6.883  19.608  0.00  0.00    +0.000 HD
ENDROOT
BRANCH   1   9
ATOM      3  C   UNL     1       5.026   4.320  17.627  0.00  0.00    +0.000 C 
ATOM      4  C   UNL     1       4.012   4.821  18.674  0.00  0.00    +0.000 C 
ATOM      5  C   UNL     1       3.438   3.604  19.467  0.00  0.00    +0.000 C 
ATOM      6  C   UNL     1       2.660   2.643  18.517  0.00  0.00    +0.000 C 
ATOM      7  C   UNL     1       1.480   3.643  18.722  0.00  0.00    +0.000 C 
ATOM      8  C   UNL     1       1.646   4.780  17.700  0.00  0.00    +0.000 C 
ATOM      9  C   UNL     1       2.877   5.664  17.990  0.00  0.00    +0.000 C 
ATOM     10  C   UNL     1       2.031   3.786  20.220  0.00  0.00    +0.000 C 
ATOM     11  C   UNL     1       1.835   5.062  21.038  0.00  0.00    +0.000 C 
ATOM     12  C   UNL     1       1.533   2.634  21.128  0.00  0.00    +0.000 C 
ENDBRANCH   1   9
BRANCH   1  13
ATOM     13  C   UNL     1       2.582   8.147  18.167  0.00  0.00    +0.000 C 
BRANCH  13  14
ATOM     14  C   UNL     1       1.320   8.913  18.492  0.00  0.00    +0.000 A 
ATOM     15  C   UNL     1       0.319   9.343  17.631  0.00  0.00    +0.000 A 
ATOM     16  C   UNL     1      -0.660  10.192  18.256  0.00  0.00    +0.000 A 
ATOM     17  C   UNL     1      -0.406  10.282  19.614  0.00  0.00    +0.000 A 
ATOM     18  S   UNL     1       0.995   9.422  20.094  0.00  0.00    +0.000 S 
BRANCH  16  19
ATOM     19  C   UNL     1      -1.770  10.900  17.516  0.00  0.00    +0.000 C 
ATOM     20  C   UNL     1      -2.464  10.082  16.426  0.00  0.00    +0.000 C 
ATOM     21  C   UNL     1      -3.755  10.852  16.158  0.00  0.00    +0.000 C 
ATOM     22  C   UNL     1      -4.121  11.527  17.476  0.00  0.00    +0.000 C 
ATOM     23  C   UNL     1      -2.939  11.311  18.417  0.00  0.00    +0.000 C 
ENDBRANCH  16  19
ENDBRANCH  13  14
ENDBRANCH   1  13
TORSDOF 4
ENDMDL
MODEL 7
REMARK VINA RESULT:      -7.2      1.402      2.442
REMARK  Name = 
REMARK  7 active torsions:
REMARK  status: ('A' for Active; 'I' for Inactive)
REMARK    1  A    between atoms: C_1  and  C_2
REMARK    2  A    between atoms: C_7  and  N_8
REMARK    3  A    between atoms: N_8  and  C_9
REMARK    4  A    between atoms: C_9  and  C_10
REMARK    5  A    between atoms: C_12  and  C_13
REMARK    6  A    between atoms: C_20  and  C_21
REMARK    7  A    between atoms: C_20  and  C_22
REMARK                            x       y       z     vdW  Elec       q    Type
REMARK                         _______ _______ _______ _____ _____    ______ ____
ROOT
ATOM      1  N   UNL     1       4.829   4.147  19.646  0.00  0.00    +0.000 NA
ATOM      2  H   UNL     1       4.497   3.556  18.884  0.00  0.00    +0.000 HD
ENDROOT
BRANCH   1   9
ATOM      3  C   UNL     1       2.196   6.766  19.709  0.00  0.00    +0.000 C 
ATOM      4  C   UNL     1       2.712   5.387  19.252  0.00  0.00    +0.000 C 
ATOM      5  C   UNL     1       1.500   4.450  18.952  0.00  0.00    +0.000 C 
ATOM      6  C   UNL     1       0.657   4.205  20.241  0.00  0.00    +0.000 C 
ATOM      7  C   UNL     1       1.731   3.117  20.552  0.00  0.00    +0.000 C 
ATOM      8  C   UNL     1       2.908   3.810  21.258  0.00  0.00    +0.000 C 
ATOM      9  C   UNL     1       3.678   4.771  20.327  0.00  0.00    +0.000 C 
ATOM     10  C   UNL     1       1.745   2.863  18.970  0.00  0.00    +0.000 C 
ATOM     11  C   UNL     1       2.984   2.338  18.243  0.00  0.00    +0.000 C 
ATOM     12  C   UNL     1       0.585   1.938  18.525  0.00  0.00    +0.000 C 
ENDBRANCH   1   9
BRANCH   1  13
ATOM     13  C   UNL     1       5.858   5.035  19.119  0.00  0.00    +0.000 C 
BRANCH  13  14
ATOM     14  C   UNL     1       5.736   5.167  17.618  0.00  0.00    +0.000 A 
ATOM     15  C   UNL     1       6.006   4.220  16.640  0.00  0.00    +0.000 A 
ATOM     16  C   UNL     1       5.939   4.738  15.298  0.00  0.00    +0.000 A 
ATOM     17  C   UNL     1       5.510   6.053  15.322  0.00  0.00    +0.000 A 
ATOM     18  S   UNL     1       5.259   6.650  16.907  0.00  0.00    +0.000 S 
BRANCH  16  19
ATOM     19  C   UNL     1       6.321   3.954  14.064  0.00  0.00    +0.000 C 
ATOM     20  C   UNL     1       5.164   3.574  13.140  0.00  0.00    +0.000 C 
ATOM     21  C   UNL     1       5.852   3.190  11.832  0.00  0.00    +0.000 C 
ATOM     22  C   UNL     1       7.127   4.027  11.769  0.00  0.00    +0.000 C 
ATOM     23  C   UNL     1       7.259   4.717  13.123  0.00  0.00    +0.000 C 
ENDBRANCH  16  19
ENDBRANCH  13  14
ENDBRANCH   1  13
TORSDOF 4
ENDMDL
MODEL 8
REMARK VINA RESULT:      -7.1      1.335      1.902
REMARK  Name = 
REMARK  7 active torsions:
REMARK  status: ('A' for Active; 'I' for Inactive)
REMARK    1  A    between atoms: C_1  and  C_2
REMARK    2  A    between atoms: C_7  and  N_8
REMARK    3  A    between atoms: N_8  and  C_9
REMARK    4  A    between atoms: C_9  and  C_10
REMARK    5  A    between atoms: C_12  and  C_13
REMARK    6  A    between atoms: C_20  and  C_21
REMARK    7  A    between atoms: C_20  and  C_22
REMARK                            x       y       z     vdW  Elec       q    Type
REMARK                         _______ _______ _______ _____ _____    ______ ____
ROOT
ATOM      1  N   UNL     1       4.794   4.517  19.582  0.00  0.00    +0.000 NA
ATOM      2  H   UNL     1       4.865   3.518  19.390  0.00  0.00    +0.000 HD
ENDROOT
BRANCH   1   9
ATOM      3  C   UNL     1       1.836   4.341  17.343  0.00  0.00    +0.000 C 
ATOM      4  C   UNL     1       2.642   3.826  18.552  0.00  0.00    +0.000 C 
ATOM      5  C   UNL     1       1.677   3.126  19.560  0.00  0.00    +0.000 C 
ATOM      6  C   UNL     1       0.631   4.140  20.120  0.00  0.00    +0.000 C 
ATOM      7  C   UNL     1       1.771   4.533  21.110  0.00  0.00    +0.000 C 
ATOM      8  C   UNL     1       2.655   5.581  20.414  0.00  0.00    +0.000 C 
ATOM      9  C   UNL     1       3.445   4.996  19.224  0.00  0.00    +0.000 C 
ATOM     10  C   UNL     1       2.153   2.977  21.087  0.00  0.00    +0.000 C 
ATOM     11  C   UNL     1       3.581   2.489  21.330  0.00  0.00    +0.000 C 
ATOM     12  C   UNL     1       1.266   2.153  22.053  0.00  0.00    +0.000 C 
ENDBRANCH   1   9
BRANCH   1  13
ATOM     13  C   UNL     1       5.931   5.183  18.956  0.00  0.00    +0.000 C 
BRANCH  13  14
ATOM     14  C   UNL     1       5.758   5.242  17.455  0.00  0.00    +0.000 A 
ATOM     15  C   UNL     1       5.953   4.235  16.520  0.00  0.00    +0.000 A 
ATOM     16  C   UNL     1       5.857   4.685  15.156  0.00  0.00    +0.000 A 
ATOM     17  C   UNL     1       5.483   6.018  15.125  0.00  0.00    +0.000 A 
ATOM     18  S   UNL     1       5.317   6.706  16.684  0.00  0.00    +0.000 S 
BRANCH  16  19
ATOM     19  C   UNL     1       6.160   3.823  13.952  0.00  0.00    +0.000 C 
ATOM     20  C   UNL     1       4.981   3.562  13.014  0.00  0.00    +0.000 C 
ATOM     21  C   UNL     1       5.639   3.056  11.732  0.00  0.00    +0.000 C 
ATOM     22  C   UNL     1       7.010   3.725  11.674  0.00  0.00    +0.000 C 
ATOM     23  C   UNL     1       7.203   4.434  13.012  0.00  0.00    +0.000 C 
ENDBRANCH  16  19
ENDBRANCH  13  14
ENDBRANCH   1  13
TORSDOF 4
ENDMDL
MODEL 9
REMARK VINA RESULT:      -7.1      4.887      7.277
REMARK  Name = 
REMARK  7 active torsions:
REMARK  status: ('A' for Active; 'I' for Inactive)
REMARK    1  A    between atoms: C_1  and  C_2
REMARK    2  A    between atoms: C_7  and  N_8
REMARK    3  A    between atoms: N_8  and  C_9
REMARK    4  A    between atoms: C_9  and  C_10
REMARK    5  A    between atoms: C_12  and  C_13
REMARK    6  A    between atoms: C_20  and  C_21
REMARK    7  A    between atoms: C_20  and  C_22
REMARK                            x       y       z     vdW  Elec       q    Type
REMARK                         _______ _______ _______ _____ _____    ______ ____
ROOT
ATOM      1  N   UNL     1       2.269   7.283  18.587  0.00  0.00    +0.000 NA
ATOM      2  H   UNL     1       2.562   7.379  19.559  0.00  0.00    +0.000 HD
ENDROOT
BRANCH   1   9
ATOM      3  C   UNL     1       5.342   5.249  18.130  0.00  0.00    +0.000 C 
ATOM      4  C   UNL     1       4.081   5.621  18.935  0.00  0.00    +0.000 C 
ATOM      5  C   UNL     1       3.634   4.397  19.794  0.00  0.00    +0.000 C 
ATOM      6  C   UNL     1       3.242   3.193  18.882  0.00  0.00    +0.000 C 
ATOM      7  C   UNL     1       1.868   3.924  18.770  0.00  0.00    +0.000 C 
ATOM      8  C   UNL     1       1.979   4.957  17.636  0.00  0.00    +0.000 C 
ATOM      9  C   UNL     1       2.938   6.117  17.980  0.00  0.00    +0.000 C 
ATOM     10  C   UNL     1       2.109   4.340  20.298  0.00  0.00    +0.000 C 
ATOM     11  C   UNL     1       1.521   5.620  20.893  0.00  0.00    +0.000 C 
ATOM     12  C   UNL     1       1.702   3.208  21.274  0.00  0.00    +0.000 C 
ENDBRANCH   1   9
BRANCH   1  13
ATOM     13  C   UNL     1       2.442   8.574  17.930  0.00  0.00    +0.000 C 
BRANCH  13  14
ATOM     14  C   UNL     1       1.224   9.446  18.133  0.00  0.00    +0.000 A 
ATOM     15  C   UNL     1      -0.094   9.191  17.776  0.00  0.00    +0.000 A 
ATOM     16  C   UNL     1      -0.974  10.313  17.969  0.00  0.00    +0.000 A 
ATOM     17  C   UNL     1      -0.287  11.352  18.573  0.00  0.00    +0.000 A 
ATOM     18  S   UNL     1       1.368  11.000  18.837  0.00  0.00    +0.000 S 
BRANCH  16  19
ATOM     19  C   UNL     1      -2.421  10.345  17.535  0.00  0.00    +0.000 C 
ATOM     20  C   UNL     1      -3.234  11.540  18.035  0.00  0.00    +0.000 C 
ATOM     21  C   UNL     1      -4.470  11.541  17.139  0.00  0.00    +0.000 C 
ATOM     22  C   UNL     1      -4.020  10.952  15.805  0.00  0.00    +0.000 C 
ATOM     23  C   UNL     1      -2.601  10.433  16.017  0.00  0.00    +0.000 C 
ENDBRANCH  16  19
ENDBRANCH  13  14
ENDBRANCH   1  13
TORSDOF 4
ENDMDL
