MODEL 1
REMARK VINA RESULT:      -8.6      0.000      0.000
REMARK  Name = 
REMARK  5 active torsions:
REMARK  status: ('A' for Active; 'I' for Inactive)
REMARK    1  A    between atoms: C_1  and  N_2
REMARK    2  A    between atoms: N_5  and  C_6
REMARK    3  A    between atoms: C_8  and  C_9
REMARK    4  A    between atoms: C_10  and  C_11
REMARK    5  A    between atoms: C_19  and  C_20
REMARK                            x       y       z     vdW  Elec       q    Type
REMARK                         _______ _______ _______ _____ _____    ______ ____
ROOT
ATOM      1  C   UNL     1       5.859   5.227  17.380  0.00  0.00    +0.000 A 
ATOM      2  O   UNL     1       6.301   6.203  18.241  0.00  0.00    +0.000 OA
ATOM      3  C   UNL     1       7.338   6.862  17.593  0.00  0.00    +0.000 A 
ATOM      4  N   UNL     1       7.528   6.389  16.371  0.00  0.00    +0.000 NA
ATOM      5  C   UNL     1       6.611   5.374  16.232  0.00  0.00    +0.000 A 
ENDROOT
BRANCH   1  10
ATOM      6  C   UNL     1       1.148   3.733  19.758  0.00  0.00    +0.000 C 
ATOM      7  N   UNL     1       2.412   3.504  19.063  0.00  0.00    +0.000 NA
ATOM      8  C   UNL     1       3.550   3.992  19.869  0.00  0.00    +0.000 C 
ATOM      9  C   UNL     1       4.913   3.778  19.166  0.00  0.00    +0.000 C 
ATOM     10  N   UNL     1       4.896   4.380  17.825  0.00  0.00    +0.000 N 
ATOM     11  C   UNL     1       3.760   3.965  16.991  0.00  0.00    +0.000 C 
ATOM     12  C   UNL     1       2.426   4.181  17.747  0.00  0.00    +0.000 C 
ENDBRANCH   1  10
BRANCH   3  13
ATOM     13  C   UNL     1       8.123   7.902  18.176  0.00  0.00    +0.000 C 
ATOM     14  C   UNL     1       8.023   9.184  17.785  0.00  0.00    +0.000 C 
BRANCH  14  15
ATOM     15  C   UNL     1       8.768  10.323  18.358  0.00  0.00    +0.000 A 
ATOM     16  C   UNL     1       8.828  11.593  17.762  0.00  0.00    +0.000 A 
ATOM     17  C   UNL     1       9.510  12.646  18.389  0.00  0.00    +0.000 A 
ATOM     18  C   UNL     1      10.130  12.432  19.612  0.00  0.00    +0.000 A 
ATOM     19  F   UNL     1      10.773  13.441  20.215  0.00  0.00    +0.000 F 
ATOM     20  C   UNL     1      10.081  11.188  20.225  0.00  0.00    +0.000 A 
ATOM     21  C   UNL     1       9.399  10.139  19.600  0.00  0.00    +0.000 A 
ENDBRANCH  14  15
ENDBRANCH   3  13
BRANCH   5  22
ATOM     22  C   UNL     1       6.522   4.635  15.016  0.00  0.00    +0.000 C 
ATOM     23  N   UNL     1       6.476   4.036  14.021  0.00  0.00    +0.000 NA
ENDBRANCH   5  22
TORSDOF 4
ENDMDL
MODEL 2
REMARK VINA RESULT:      -8.5      0.924      1.316
REMARK  Name = 
REMARK  5 active torsions:
REMARK  status: ('A' for Active; 'I' for Inactive)
REMARK    1  A    between atoms: C_1  and  N_2
REMARK    2  A    between atoms: N_5  and  C_6
REMARK    3  A    between atoms: C_8  and  C_9
REMARK    4  A    between atoms: C_10  and  C_11
REMARK    5  A    between atoms: C_19  and  C_20
REMARK                            x       y       z     vdW  Elec       q    Type
REMARK                         _______ _______ _______ _____ _____    ______ ____
ROOT
ATOM      1  C   UNL     1       5.648   5.736  17.356  0.00  0.00    +0.000 A 
ATOM      2  O   UNL     1       6.196   6.667  18.204  0.00  0.00    +0.000 OA
ATOM      3  C   UNL     1       7.394   7.070  17.627  0.00  0.00    +0.000 A 
ATOM      4  N   UNL     1       7.592   6.485  16.455  0.00  0.00    +0.000 NA
ATOM      5  C   UNL     1       6.509   5.656  16.280  0.00  0.00    +0.000 A 
ENDROOT
BRANCH   1  10
ATOM      6  C   UNL     1       1.901   3.783  20.853  0.00  0.00    +0.000 C 
ATOM      7  N   UNL     1       2.463   4.064  19.535  0.00  0.00    +0.000 NA
ATOM      8  C   UNL     1       3.770   3.395  19.368  0.00  0.00    +0.000 C 
ATOM      9  C   UNL     1       4.409   3.673  17.985  0.00  0.00    +0.000 C 
ATOM     10  N   UNL     1       4.502   5.121  17.747  0.00  0.00    +0.000 N 
ATOM     11  C   UNL     1       3.240   5.848  17.942  0.00  0.00    +0.000 C 
ATOM     12  C   UNL     1       2.634   5.520  19.328  0.00  0.00    +0.000 C 
ENDBRANCH   1  10
BRANCH   3  13
ATOM     13  C   UNL     1       8.315   7.980  18.229  0.00  0.00    +0.000 C 
ATOM     14  C   UNL     1       8.250   9.307  18.027  0.00  0.00    +0.000 C 
BRANCH  14  15
ATOM     15  C   UNL     1       9.137  10.318  18.639  0.00  0.00    +0.000 A 
ATOM     16  C   UNL     1       9.238  10.529  20.023  0.00  0.00    +0.000 A 
ATOM     17  C   UNL     1      10.140  11.470  20.539  0.00  0.00    +0.000 A 
ATOM     18  C   UNL     1      10.943  12.199  19.674  0.00  0.00    +0.000 A 
ATOM     19  F   UNL     1      11.812  13.092  20.168  0.00  0.00    +0.000 F 
ATOM     20  C   UNL     1      10.866  12.007  18.302  0.00  0.00    +0.000 A 
ATOM     21  C   UNL     1       9.967  11.067  17.788  0.00  0.00    +0.000 A 
ENDBRANCH  14  15
ENDBRANCH   3  13
BRANCH   5  22
ATOM     22  C   UNL     1       6.382   4.865  15.102  0.00  0.00    +0.000 C 
ATOM     23  N   UNL     1       6.256   4.208  14.151  0.00  0.00    +0.000 NA
ENDBRANCH   5  22
TORSDOF 4
ENDMDL
MODEL 3
REMARK VINA RESULT:      -8.2      1.006      1.643
REMARK  Name = 
REMARK  5 active torsions:
REMARK  status: ('A' for Active; 'I' for Inactive)
REMARK    1  A    between atoms: C_1  and  N_2
REMARK    2  A    between atoms: N_5  and  C_6
REMARK    3  A    between atoms: C_8  and  C_9
REMARK    4  A    between atoms: C_10  and  C_11
REMARK    5  A    between atoms: C_19  and  C_20
REMARK                            x       y       z     vdW  Elec       q    Type
REMARK                         _______ _______ _______ _____ _____    ______ ____
ROOT
ATOM      1  C   UNL     1       5.691   5.898  17.657  0.00  0.00    +0.000 A 
ATOM      2  O   UNL     1       6.389   6.826  18.392  0.00  0.00    +0.000 OA
ATOM      3  C   UNL     1       7.460   7.229  17.604  0.00  0.00    +0.000 A 
ATOM      4  N   UNL     1       7.437   6.647  16.414  0.00  0.00    +0.000 NA
ATOM      5  C   UNL     1       6.339   5.820  16.441  0.00  0.00    +0.000 A 
ENDROOT
BRANCH   1  10
ATOM      6  C   UNL     1       1.827   2.076  18.400  0.00  0.00    +0.000 C 
ATOM      7  N   UNL     1       2.564   3.295  18.722  0.00  0.00    +0.000 NA
ATOM      8  C   UNL     1       2.462   4.276  17.622  0.00  0.00    +0.000 C 
ATOM      9  C   UNL     1       3.238   5.584  17.917  0.00  0.00    +0.000 C 
ATOM     10  N   UNL     1       4.637   5.284  18.253  0.00  0.00    +0.000 N 
ATOM     11  C   UNL     1       4.801   4.280  19.313  0.00  0.00    +0.000 C 
ATOM     12  C   UNL     1       3.992   3.003  18.980  0.00  0.00    +0.000 C 
ENDBRANCH   1  10
BRANCH   3  13
ATOM     13  C   UNL     1       8.478   8.135  18.028  0.00  0.00    +0.000 C 
ATOM     14  C   UNL     1       8.228   9.432  18.277  0.00  0.00    +0.000 C 
BRANCH  14  15
ATOM     15  C   UNL     1       9.211  10.426  18.753  0.00  0.00    +0.000 A 
ATOM     16  C   UNL     1       9.412  10.735  20.108  0.00  0.00    +0.000 A 
ATOM     17  C   UNL     1      10.401  11.651  20.493  0.00  0.00    +0.000 A 
ATOM     18  C   UNL     1      11.191  12.257  19.528  0.00  0.00    +0.000 A 
ATOM     19  F   UNL     1      12.143  13.125  19.898  0.00  0.00    +0.000 F 
ATOM     20  C   UNL     1      11.016  11.966  18.182  0.00  0.00    +0.000 A 
ATOM     21  C   UNL     1      10.030  11.051  17.798  0.00  0.00    +0.000 A 
ENDBRANCH  14  15
ENDBRANCH   3  13
BRANCH   5  22
ATOM     22  C   UNL     1       5.994   5.032  15.305  0.00  0.00    +0.000 C 
ATOM     23  N   UNL     1       5.713   4.368  14.393  0.00  0.00    +0.000 NA
ENDBRANCH   5  22
TORSDOF 4
ENDMDL
MODEL 4
REMARK VINA RESULT:      -8.1      0.955      1.295
REMARK  Name = 
REMARK  5 active torsions:
REMARK  status: ('A' for Active; 'I' for Inactive)
REMARK    1  A    between atoms: C_1  and  N_2
REMARK    2  A    between atoms: N_5  and  C_6
REMARK    3  A    between atoms: C_8  and  C_9
REMARK    4  A    between atoms: C_10  and  C_11
REMARK    5  A    between atoms: C_19  and  C_20
REMARK                            x       y       z     vdW  Elec       q    Type
REMARK                         _______ _______ _______ _____ _____    ______ ____
ROOT
ATOM      1  C   UNL     1       5.697   5.816  17.745  0.00  0.00    +0.000 A 
ATOM      2  O   UNL     1       6.403   6.739  18.479  0.00  0.00    +0.000 OA
ATOM      3  C   UNL     1       7.443   7.177  17.667  0.00  0.00    +0.000 A 
ATOM      4  N   UNL     1       7.391   6.623  16.466  0.00  0.00    +0.000 NA
ATOM      5  C   UNL     1       6.307   5.777  16.508  0.00  0.00    +0.000 A 
ENDROOT
BRANCH   1  10
ATOM      6  C   UNL     1       1.561   2.254  18.275  0.00  0.00    +0.000 C 
ATOM      7  N   UNL     1       2.470   3.304  18.725  0.00  0.00    +0.000 NA
ATOM      8  C   UNL     1       2.330   4.513  17.887  0.00  0.00    +0.000 C 
ATOM      9  C   UNL     1       3.284   5.653  18.323  0.00  0.00    +0.000 C 
ATOM     10  N   UNL     1       4.672   5.171  18.359  0.00  0.00    +0.000 N 
ATOM     11  C   UNL     1       4.866   3.944  19.143  0.00  0.00    +0.000 C 
ATOM     12  C   UNL     1       3.877   2.845  18.682  0.00  0.00    +0.000 C 
ENDBRANCH   1  10
BRANCH   3  13
ATOM     13  C   UNL     1       8.459   8.090  18.080  0.00  0.00    +0.000 C 
ATOM     14  C   UNL     1       8.255   9.418  18.133  0.00  0.00    +0.000 C 
BRANCH  14  15
ATOM     15  C   UNL     1       9.236  10.426  18.583  0.00  0.00    +0.000 A 
ATOM     16  C   UNL     1       9.993  11.220  17.706  0.00  0.00    +0.000 A 
ATOM     17  C   UNL     1      10.868  12.197  18.202  0.00  0.00    +0.000 A 
ATOM     18  C   UNL     1      10.988  12.383  19.571  0.00  0.00    +0.000 A 
ATOM     19  F   UNL     1      11.818  13.323  20.044  0.00  0.00    +0.000 F 
ATOM     20  C   UNL     1      10.248  11.614  20.459  0.00  0.00    +0.000 A 
ATOM     21  C   UNL     1       9.374  10.641  19.964  0.00  0.00    +0.000 A 
ENDBRANCH  14  15
ENDBRANCH   3  13
BRANCH   5  22
ATOM     22  C   UNL     1       5.939   5.010  15.365  0.00  0.00    +0.000 C 
ATOM     23  N   UNL     1       5.654   4.400  14.416  0.00  0.00    +0.000 NA
ENDBRANCH   5  22
TORSDOF 4
ENDMDL
MODEL 5
REMARK VINA RESULT:      -7.6      1.365      1.512
REMARK  Name = 
REMARK  5 active torsions:
REMARK  status: ('A' for Active; 'I' for Inactive)
REMARK    1  A    between atoms: C_1  and  N_2
REMARK    2  A    between atoms: N_5  and  C_6
REMARK    3  A    between atoms: C_8  and  C_9
REMARK    4  A    between atoms: C_10  and  C_11
REMARK    5  A    between atoms: C_19  and  C_20
REMARK                            x       y       z     vdW  Elec       q    Type
REMARK                         _______ _______ _______ _____ _____    ______ ____
ROOT
ATOM      1  C   UNL     1       5.554   6.497  17.350  0.00  0.00    +0.000 A 
ATOM      2  O   UNL     1       5.879   7.753  17.802  0.00  0.00    +0.000 OA
ATOM      3  C   UNL     1       7.172   8.008  17.362  0.00  0.00    +0.000 A 
ATOM      4  N   UNL     1       7.643   7.013  16.626  0.00  0.00    +0.000 NA
ATOM      5  C   UNL     1       6.641   6.071  16.614  0.00  0.00    +0.000 A 
ENDROOT
BRANCH   1  10
ATOM      6  C   UNL     1       1.721   4.628  20.799  0.00  0.00    +0.000 C 
ATOM      7  N   UNL     1       2.268   4.980  19.492  0.00  0.00    +0.000 NA
ATOM      8  C   UNL     1       3.481   4.188  19.200  0.00  0.00    +0.000 C 
ATOM      9  C   UNL     1       4.102   4.535  17.824  0.00  0.00    +0.000 C 
ATOM     10  N   UNL     1       4.357   5.979  17.729  0.00  0.00    +0.000 N 
ATOM     11  C   UNL     1       3.197   6.821  18.052  0.00  0.00    +0.000 C 
ATOM     12  C   UNL     1       2.603   6.420  19.425  0.00  0.00    +0.000 C 
ENDBRANCH   1  10
BRANCH   3  13
ATOM     13  C   UNL     1       7.917   9.183  17.683  0.00  0.00    +0.000 C 
ATOM     14  C   UNL     1       8.736   9.246  18.747  0.00  0.00    +0.000 C 
BRANCH  14  15
ATOM     15  C   UNL     1       9.569  10.405  19.129  0.00  0.00    +0.000 A 
ATOM     16  C   UNL     1      10.377  11.114  18.225  0.00  0.00    +0.000 A 
ATOM     17  C   UNL     1      11.100  12.240  18.645  0.00  0.00    +0.000 A 
ATOM     18  C   UNL     1      11.017  12.658  19.965  0.00  0.00    +0.000 A 
ATOM     19  F   UNL     1      11.702  13.740  20.363  0.00  0.00    +0.000 F 
ATOM     20  C   UNL     1      10.223  11.977  20.877  0.00  0.00    +0.000 A 
ATOM     21  C   UNL     1       9.500  10.856  20.458  0.00  0.00    +0.000 A 
ENDBRANCH  14  15
ENDBRANCH   3  13
BRANCH   5  22
ATOM     22  C   UNL     1       6.799   4.850  15.895  0.00  0.00    +0.000 C 
ATOM     23  N   UNL     1       6.926   3.869  15.286  0.00  0.00    +0.000 NA
ENDBRANCH   5  22
TORSDOF 4
ENDMDL
MODEL 6
REMARK VINA RESULT:      -7.5      4.882      7.323
REMARK  Name = 
REMARK  5 active torsions:
REMARK  status: ('A' for Active; 'I' for Inactive)
REMARK    1  A    between atoms: C_1  and  N_2
REMARK    2  A    between atoms: N_5  and  C_6
REMARK    3  A    between atoms: C_8  and  C_9
REMARK    4  A    between atoms: C_10  and  C_11
REMARK    5  A    between atoms: C_19  and  C_20
REMARK                            x       y       z     vdW  Elec       q    Type
REMARK                         _______ _______ _______ _____ _____    ______ ____
ROOT
ATOM      1  C   UNL     1       3.892   5.441  18.497  0.00  0.00    +0.000 A 
ATOM      2  O   UNL     1       3.456   6.540  19.197  0.00  0.00    +0.000 OA
ATOM      3  C   UNL     1       2.316   6.142  19.885  0.00  0.00    +0.000 A 
ATOM      4  N   UNL     1       2.053   4.858  19.693  0.00  0.00    +0.000 NA
ATOM      5  C   UNL     1       3.030   4.417  18.832  0.00  0.00    +0.000 A 
ENDROOT
BRANCH   1  10
ATOM      6  C   UNL     1       6.956   4.711  14.006  0.00  0.00    +0.000 C 
ATOM      7  N   UNL     1       6.637   5.275  15.315  0.00  0.00    +0.000 NA
ATOM      8  C   UNL     1       6.506   4.208  16.328  0.00  0.00    +0.000 C 
ATOM      9  C   UNL     1       6.159   4.760  17.733  0.00  0.00    +0.000 C 
ATOM     10  N   UNL     1       4.956   5.602  17.668  0.00  0.00    +0.000 N 
ATOM     11  C   UNL     1       5.010   6.656  16.645  0.00  0.00    +0.000 C 
ATOM     12  C   UNL     1       5.380   6.054  15.267  0.00  0.00    +0.000 C 
ENDBRANCH   1  10
BRANCH   3  13
ATOM     13  C   UNL     1       1.508   7.011  20.679  0.00  0.00    +0.000 C 
ATOM     14  C   UNL     1       1.428   8.332  20.444  0.00  0.00    +0.000 C 
BRANCH  14  15
ATOM     15  C   UNL     1       0.590   9.293  21.190  0.00  0.00    +0.000 A 
ATOM     16  C   UNL     1       0.025  10.443  20.616  0.00  0.00    +0.000 A 
ATOM     17  C   UNL     1      -0.805  11.284  21.369  0.00  0.00    +0.000 A 
ATOM     18  C   UNL     1      -1.073  10.978  22.696  0.00  0.00    +0.000 A 
ATOM     19  F   UNL     1      -1.875  11.778  23.413  0.00  0.00    +0.000 F 
ATOM     20  C   UNL     1      -0.531   9.845  23.286  0.00  0.00    +0.000 A 
ATOM     21  C   UNL     1       0.296   9.005  22.533  0.00  0.00    +0.000 A 
ENDBRANCH  14  15
ENDBRANCH   3  13
BRANCH   5  22
ATOM     22  C   UNL     1       3.067   3.056  18.410  0.00  0.00    +0.000 C 
ATOM     23  N   UNL     1       3.104   1.954  18.040  0.00  0.00    +0.000 NA
ENDBRANCH   5  22
TORSDOF 4
ENDMDL
MODEL 7
REMARK VINA RESULT:      -7.5      4.885      7.326
REMARK  Name = 
REMARK  5 active torsions:
REMARK  status: ('A' for Active; 'I' for Inactive)
REMARK    1  A    between atoms: C_1  and  N_2
REMARK    2  A    between atoms: N_5  and  C_6
REMARK    3  A    between atoms: C_8  and  C_9
REMARK    4  A    between atoms: C_10  and  C_11
REMARK    5  A    between atoms: C_19  and  C_20
REMARK                            x       y       z     vdW  Elec       q    Type
REMARK                         _______ _______ _______ _____ _____    ______ ____
ROOT
ATOM      1  C   UNL     1       3.893   5.444  18.603  0.00  0.00    +0.000 A 
ATOM      2  O   UNL     1       3.421   6.544  19.277  0.00  0.00    +0.000 OA
ATOM      3  C   UNL     1       2.294   6.126  19.974  0.00  0.00    +0.000 A 
ATOM      4  N   UNL     1       2.073   4.831  19.813  0.00  0.00    +0.000 NA
ATOM      5  C   UNL     1       3.064   4.401  18.962  0.00  0.00    +0.000 A 
ENDROOT
BRANCH   1  10
ATOM      6  C   UNL     1       6.927   4.795  14.080  0.00  0.00    +0.000 C 
ATOM      7  N   UNL     1       6.618   5.335  15.401  0.00  0.00    +0.000 NA
ATOM      8  C   UNL     1       6.492   4.249  16.395  0.00  0.00    +0.000 C 
ATOM      9  C   UNL     1       6.154   4.775  17.812  0.00  0.00    +0.000 C 
ATOM     10  N   UNL     1       4.951   5.619  17.770  0.00  0.00    +0.000 N 
ATOM     11  C   UNL     1       5.000   6.692  16.767  0.00  0.00    +0.000 C 
ATOM     12  C   UNL     1       5.361   6.116  15.376  0.00  0.00    +0.000 C 
ENDBRANCH   1  10
BRANCH   3  13
ATOM     13  C   UNL     1       1.458   6.987  20.747  0.00  0.00    +0.000 C 
ATOM     14  C   UNL     1       1.495   8.325  20.624  0.00  0.00    +0.000 C 
BRANCH  14  15
ATOM     15  C   UNL     1       0.641   9.284  21.355  0.00  0.00    +0.000 A 
ATOM     16  C   UNL     1       0.003   8.988  22.571  0.00  0.00    +0.000 A 
ATOM     17  C   UNL     1      -0.750   9.964  23.239  0.00  0.00    +0.000 A 
ATOM     18  C   UNL     1      -0.865  11.236  22.696  0.00  0.00    +0.000 A 
ATOM     19  F   UNL     1      -1.577  12.171  23.340  0.00  0.00    +0.000 F 
ATOM     20  C   UNL     1      -0.240  11.555  21.498  0.00  0.00    +0.000 A 
ATOM     21  C   UNL     1       0.512  10.582  20.833  0.00  0.00    +0.000 A 
ENDBRANCH  14  15
ENDBRANCH   3  13
BRANCH   5  22
ATOM     22  C   UNL     1       3.144   3.032  18.572  0.00  0.00    +0.000 C 
ATOM     23  N   UNL     1       3.188   1.911  18.268  0.00  0.00    +0.000 NA
ENDBRANCH   5  22
TORSDOF 4
ENDMDL
MODEL 8
REMARK VINA RESULT:      -7.4      5.322      7.777
REMARK  Name = 
REMARK  5 active torsions:
REMARK  status: ('A' for Active; 'I' for Inactive)
REMARK    1  A    between atoms: C_1  and  N_2
REMARK    2  A    between atoms: N_5  and  C_6
REMARK    3  A    between atoms: C_8  and  C_9
REMARK    4  A    between atoms: C_10  and  C_11
REMARK    5  A    between atoms: C_19  and  C_20
REMARK                            x       y       z     vdW  Elec       q    Type
REMARK                         _______ _______ _______ _____ _____    ______ ____
ROOT
ATOM      1  C   UNL     1       3.281   5.180  19.720  0.00  0.00    +0.000 A 
ATOM      2  O   UNL     1       3.057   6.522  19.524  0.00  0.00    +0.000 OA
ATOM      3  C   UNL     1       2.015   6.876  20.373  0.00  0.00    +0.000 A 
ATOM      4  N   UNL     1       1.619   5.852  21.113  0.00  0.00    +0.000 NA
ATOM      5  C   UNL     1       2.403   4.795  20.713  0.00  0.00    +0.000 A 
ENDROOT
BRANCH   1  10
ATOM      6  C   UNL     1       6.731   4.610  15.494  0.00  0.00    +0.000 C 
ATOM      7  N   UNL     1       6.063   4.193  16.724  0.00  0.00    +0.000 NA
ATOM      8  C   UNL     1       4.600   4.120  16.527  0.00  0.00    +0.000 C 
ATOM      9  C   UNL     1       3.847   3.690  17.811  0.00  0.00    +0.000 C 
ATOM     10  N   UNL     1       4.204   4.572  18.931  0.00  0.00    +0.000 N 
ATOM     11  C   UNL     1       5.650   4.719  19.148  0.00  0.00    +0.000 C 
ATOM     12  C   UNL     1       6.355   5.129  17.833  0.00  0.00    +0.000 C 
ENDBRANCH   1  10
BRANCH   3  13
ATOM     13  C   UNL     1       1.422   8.173  20.425  0.00  0.00    +0.000 C 
ATOM     14  C   UNL     1       0.428   8.475  21.278  0.00  0.00    +0.000 C 
BRANCH  14  15
ATOM     15  C   UNL     1      -0.214   9.797  21.423  0.00  0.00    +0.000 A 
ATOM     16  C   UNL     1      -0.568  10.614  20.337  0.00  0.00    +0.000 A 
ATOM     17  C   UNL     1      -1.224  11.835  20.546  0.00  0.00    +0.000 A 
ATOM     18  C   UNL     1      -1.530  12.241  21.837  0.00  0.00    +0.000 A 
ATOM     19  F   UNL     1      -2.166  13.404  22.034  0.00  0.00    +0.000 F 
ATOM     20  C   UNL     1      -1.196  11.450  22.927  0.00  0.00    +0.000 A 
ATOM     21  C   UNL     1      -0.542  10.232  22.719  0.00  0.00    +0.000 A 
ENDBRANCH  14  15
ENDBRANCH   3  13
BRANCH   5  22
ATOM     22  C   UNL     1       2.256   3.512  21.315  0.00  0.00    +0.000 C 
ATOM     23  N   UNL     1       2.118   2.475  21.823  0.00  0.00    +0.000 NA
ENDBRANCH   5  22
TORSDOF 4
ENDMDL
MODEL 9
REMARK VINA RESULT:      -7.3      5.300      7.752
REMARK  Name = 
REMARK  5 active torsions:
REMARK  status: ('A' for Active; 'I' for Inactive)
REMARK    1  A    between atoms: C_1  and  N_2
REMARK    2  A    between atoms: N_5  and  C_6
REMARK    3  A    between atoms: C_8  and  C_9
REMARK    4  A    between atoms: C_10  and  C_11
REMARK    5  A    between atoms: C_19  and  C_20
REMARK                            x       y       z     vdW  Elec       q    Type
REMARK                         _______ _______ _______ _____ _____    ______ ____
ROOT
ATOM      1  C   UNL     1       3.382   5.275  19.693  0.00  0.00    +0.000 A 
ATOM      2  O   UNL     1       3.114   6.609  19.497  0.00  0.00    +0.000 OA
ATOM      3  C   UNL     1       2.045   6.922  20.329  0.00  0.00    +0.000 A 
ATOM      4  N   UNL     1       1.674   5.883  21.060  0.00  0.00    +0.000 NA
ATOM      5  C   UNL     1       2.502   4.856  20.670  0.00  0.00    +0.000 A 
ENDROOT
BRANCH   1  10
ATOM      6  C   UNL     1       6.774   4.743  15.417  0.00  0.00    +0.000 C 
ATOM      7  N   UNL     1       6.176   4.350  16.689  0.00  0.00    +0.000 NA
ATOM      8  C   UNL     1       4.722   4.130  16.539  0.00  0.00    +0.000 C 
ATOM      9  C   UNL     1       4.042   3.719  17.869  0.00  0.00    +0.000 C 
ATOM     10  N   UNL     1       4.340   4.703  18.920  0.00  0.00    +0.000 N 
ATOM     11  C   UNL     1       5.770   4.996  19.085  0.00  0.00    +0.000 C 
ATOM     12  C   UNL     1       6.405   5.381  17.726  0.00  0.00    +0.000 C 
ENDBRANCH   1  10
BRANCH   3  13
ATOM     13  C   UNL     1       1.405   8.198  20.374  0.00  0.00    +0.000 C 
ATOM     14  C   UNL     1       0.492   8.511  21.309  0.00  0.00    +0.000 C 
BRANCH  14  15
ATOM     15  C   UNL     1      -0.189   9.814  21.450  0.00  0.00    +0.000 A 
ATOM     16  C   UNL     1      -0.585  10.356  22.683  0.00  0.00    +0.000 A 
ATOM     17  C   UNL     1      -1.178  11.624  22.749  0.00  0.00    +0.000 A 
ATOM     18  C   UNL     1      -1.376  12.353  21.585  0.00  0.00    +0.000 A 
ATOM     19  F   UNL     1      -1.934  13.570  21.650  0.00  0.00    +0.000 F 
ATOM     20  C   UNL     1      -0.989  11.842  20.354  0.00  0.00    +0.000 A 
ATOM     21  C   UNL     1      -0.395  10.578  20.289  0.00  0.00    +0.000 A 
ENDBRANCH  14  15
ENDBRANCH   3  13
BRANCH   5  22
ATOM     22  C   UNL     1       2.392   3.567  21.268  0.00  0.00    +0.000 C 
ATOM     23  N   UNL     1       2.283   2.508  21.737  0.00  0.00    +0.000 NA
ENDBRANCH   5  22
TORSDOF 4
ENDMDL
