MODEL 1
REMARK VINA RESULT:      -7.3      0.000      0.000
REMARK  Name = 
REMARK  8 active torsions:
REMARK  status: ('A' for Active; 'I' for Inactive)
REMARK    1  A    between atoms: C_1  and  C_2
REMARK    2  A    between atoms: C_2  and  C_3
REMARK    3  A    between atoms: C_3  and  C_4
REMARK    4  A    between atoms: C_3  and  N_11
REMARK    5  A    between atoms: C_4  and  C_5
REMARK    6  A    between atoms: N_11  and  C_12
REMARK    7  A    between atoms: C_12  and  C_13
REMARK    8  A    between atoms: C_14  and  C_16
REMARK                            x       y       z     vdW  Elec       q    Type
REMARK                         _______ _______ _______ _____ _____    ______ ____
ROOT
ATOM      1  C   UNL     1       6.077   4.940  18.674  0.00  0.00    +0.000 C 
ENDROOT
BRANCH   1   2
ATOM      2  N   UNL     1       5.954   5.049  17.167  0.00  0.00    +0.000 N 
ATOM      3  C   UNL     1       7.081   4.581  16.399  0.00  0.00    +0.000 C 
ATOM      4  O   UNL     1       8.057   4.060  16.942  0.00  0.00    +0.000 OA
BRANCH   3   5
ATOM      5  C   UNL     1       7.064   4.646  14.919  0.00  0.00    +0.000 A 
ATOM      6  C   UNL     1       6.329   3.795  14.045  0.00  0.00    +0.000 A 
ATOM      7  C   UNL     1       6.620   4.246  12.784  0.00  0.00    +0.000 A 
ATOM      8  O   UNL     1       7.501   5.267  12.869  0.00  0.00    +0.000 OA
ATOM      9  N   UNL     1       7.809   5.500  14.193  0.00  0.00    +0.000 NA
ENDBRANCH   3   5
BRANCH   2  10
ATOM     10  C   UNL     1       4.928   5.827  16.442  0.00  0.00    +0.000 C 
ATOM     11  C   UNL     1       4.541   7.268  16.707  0.00  0.00    +0.000 C 
ENDBRANCH   2  10
ENDBRANCH   1   2
BRANCH   1  13
ATOM     12  C   UNL     1       7.850   6.876  18.544  0.00  0.00    +0.000 C 
ATOM     13  C   UNL     1       7.236   5.720  19.325  0.00  0.00    +0.000 C 
ENDBRANCH   1  13
BRANCH   1  14
ATOM     14  C   UNL     1       4.731   5.200  19.430  0.00  0.00    +0.000 C 
BRANCH  14  15
ATOM     15  C   UNL     1       3.660   4.139  19.341  0.00  0.00    +0.000 A 
ATOM     16  C   UNL     1       2.326   4.439  19.650  0.00  0.00    +0.000 A 
ATOM     17  C   UNL     1       1.323   3.483  19.474  0.00  0.00    +0.000 A 
ATOM     18  C   UNL     1       1.640   2.219  18.991  0.00  0.00    +0.000 A 
ATOM     19  C   UNL     1       2.960   1.903  18.685  0.00  0.00    +0.000 A 
ATOM     20  C   UNL     1       3.962   2.859  18.855  0.00  0.00    +0.000 A 
ENDBRANCH  14  15
ENDBRANCH   1  14
TORSDOF 6
ENDMDL
MODEL 2
REMARK VINA RESULT:      -7.3      2.489      6.470
REMARK  Name = 
REMARK  8 active torsions:
REMARK  status: ('A' for Active; 'I' for Inactive)
REMARK    1  A    between atoms: C_1  and  C_2
REMARK    2  A    between atoms: C_2  and  C_3
REMARK    3  A    between atoms: C_3  and  C_4
REMARK    4  A    between atoms: C_3  and  N_11
REMARK    5  A    between atoms: C_4  and  C_5
REMARK    6  A    between atoms: N_11  and  C_12
REMARK    7  A    between atoms: C_12  and  C_13
REMARK    8  A    between atoms: C_14  and  C_16
REMARK                            x       y       z     vdW  Elec       q    Type
REMARK                         _______ _______ _______ _____ _____    ______ ____
ROOT
ATOM      1  C   UNL     1       5.064   5.061  16.686  0.00  0.00    +0.000 C 
ENDROOT
BRANCH   1   2
ATOM      2  N   UNL     1       4.775   4.666  18.120  0.00  0.00    +0.000 N 
ATOM      3  C   UNL     1       3.534   3.970  18.353  0.00  0.00    +0.000 C 
ATOM      4  O   UNL     1       2.787   3.659  17.424  0.00  0.00    +0.000 OA
BRANCH   3   5
ATOM      5  C   UNL     1       3.155   3.543  19.720  0.00  0.00    +0.000 A 
ATOM      6  C   UNL     1       2.187   4.164  20.561  0.00  0.00    +0.000 A 
ATOM      7  C   UNL     1       2.177   3.411  21.706  0.00  0.00    +0.000 A 
ATOM      8  O   UNL     1       3.101   2.430  21.602  0.00  0.00    +0.000 OA
ATOM      9  N   UNL     1       3.737   2.525  20.382  0.00  0.00    +0.000 NA
ENDBRANCH   3   5
BRANCH   2  10
ATOM     10  C   UNL     1       5.498   5.160  19.311  0.00  0.00    +0.000 C 
ATOM     11  C   UNL     1       6.966   5.531  19.379  0.00  0.00    +0.000 C 
ENDBRANCH   2  10
ENDBRANCH   1   2
BRANCH   1  13
ATOM     12  C   UNL     1       3.957   7.410  17.093  0.00  0.00    +0.000 C 
ATOM     13  C   UNL     1       4.997   6.568  16.364  0.00  0.00    +0.000 C 
ENDBRANCH   1  13
BRANCH   1  14
ATOM     14  C   UNL     1       6.375   4.424  16.115  0.00  0.00    +0.000 C 
BRANCH  14  15
ATOM     15  C   UNL     1       6.561   4.429  14.616  0.00  0.00    +0.000 A 
ATOM     16  C   UNL     1       7.559   5.213  14.020  0.00  0.00    +0.000 A 
ATOM     17  C   UNL     1       7.792   5.142  12.644  0.00  0.00    +0.000 A 
ATOM     18  C   UNL     1       7.032   4.292  11.850  0.00  0.00    +0.000 A 
ATOM     19  C   UNL     1       6.035   3.511  12.425  0.00  0.00    +0.000 A 
ATOM     20  C   UNL     1       5.804   3.576  13.800  0.00  0.00    +0.000 A 
ENDBRANCH  14  15
ENDBRANCH   1  14
TORSDOF 6
ENDMDL
MODEL 3
REMARK VINA RESULT:      -7.2      2.463      6.451
REMARK  Name = 
REMARK  8 active torsions:
REMARK  status: ('A' for Active; 'I' for Inactive)
REMARK    1  A    between atoms: C_1  and  C_2
REMARK    2  A    between atoms: C_2  and  C_3
REMARK    3  A    between atoms: C_3  and  C_4
REMARK    4  A    between atoms: C_3  and  N_11
REMARK    5  A    between atoms: C_4  and  C_5
REMARK    6  A    between atoms: N_11  and  C_12
REMARK    7  A    between atoms: C_12  and  C_13
REMARK    8  A    between atoms: C_14  and  C_16
REMARK                            x       y       z     vdW  Elec       q    Type
REMARK                         _______ _______ _______ _____ _____    ______ ____
ROOT
ATOM      1  C   UNL     1       5.155   4.998  16.680  0.00  0.00    +0.000 C 
ENDROOT
BRANCH   1   2
ATOM      2  N   UNL     1       4.847   4.615  18.114  0.00  0.00    +0.000 N 
ATOM      3  C   UNL     1       3.586   3.955  18.342  0.00  0.00    +0.000 C 
ATOM      4  O   UNL     1       2.835   3.663  17.409  0.00  0.00    +0.000 OA
BRANCH   3   5
ATOM      5  C   UNL     1       3.187   3.541  19.708  0.00  0.00    +0.000 A 
ATOM      6  C   UNL     1       2.224   4.184  20.537  0.00  0.00    +0.000 A 
ATOM      7  C   UNL     1       2.191   3.438  21.686  0.00  0.00    +0.000 A 
ATOM      8  O   UNL     1       3.098   2.440  21.594  0.00  0.00    +0.000 OA
ATOM      9  N   UNL     1       3.746   2.517  20.379  0.00  0.00    +0.000 NA
ENDBRANCH   3   5
BRANCH   2  10
ATOM     10  C   UNL     1       5.577   5.090  19.307  0.00  0.00    +0.000 C 
ATOM     11  C   UNL     1       7.020   5.553  19.351  0.00  0.00    +0.000 C 
ENDBRANCH   2  10
ENDBRANCH   1   2
BRANCH   1  13
ATOM     12  C   UNL     1       4.002   7.322  17.105  0.00  0.00    +0.000 C 
ATOM     13  C   UNL     1       5.016   6.493  16.326  0.00  0.00    +0.000 C 
ENDBRANCH   1  13
BRANCH   1  14
ATOM     14  C   UNL     1       6.514   4.423  16.158  0.00  0.00    +0.000 C 
BRANCH  14  15
ATOM     15  C   UNL     1       6.708   4.334  14.663  0.00  0.00    +0.000 A 
ATOM     16  C   UNL     1       5.905   3.489  13.884  0.00  0.00    +0.000 A 
ATOM     17  C   UNL     1       6.021   3.481  12.492  0.00  0.00    +0.000 A 
ATOM     18  C   UNL     1       6.941   4.312  11.863  0.00  0.00    +0.000 A 
ATOM     19  C   UNL     1       7.750   5.153  12.621  0.00  0.00    +0.000 A 
ATOM     20  C   UNL     1       7.630   5.166  14.011  0.00  0.00    +0.000 A 
ENDBRANCH  14  15
ENDBRANCH   1  14
TORSDOF 6
ENDMDL
MODEL 4
REMARK VINA RESULT:      -7.1      2.898      4.790
REMARK  Name = 
REMARK  8 active torsions:
REMARK  status: ('A' for Active; 'I' for Inactive)
REMARK    1  A    between atoms: C_1  and  C_2
REMARK    2  A    between atoms: C_2  and  C_3
REMARK    3  A    between atoms: C_3  and  C_4
REMARK    4  A    between atoms: C_3  and  N_11
REMARK    5  A    between atoms: C_4  and  C_5
REMARK    6  A    between atoms: N_11  and  C_12
REMARK    7  A    between atoms: C_12  and  C_13
REMARK    8  A    between atoms: C_14  and  C_16
REMARK                            x       y       z     vdW  Elec       q    Type
REMARK                         _______ _______ _______ _____ _____    ______ ____
ROOT
ATOM      1  C   UNL     1       2.453   5.415  18.621  0.00  0.00    +0.000 C 
ENDROOT
BRANCH   1   2
ATOM      2  N   UNL     1       3.713   4.834  18.013  0.00  0.00    +0.000 N 
ATOM      3  C   UNL     1       4.445   5.694  17.117  0.00  0.00    +0.000 C 
ATOM      4  O   UNL     1       4.096   6.858  16.914  0.00  0.00    +0.000 OA
BRANCH   3   5
ATOM      5  C   UNL     1       5.690   5.221  16.466  0.00  0.00    +0.000 A 
ATOM      6  C   UNL     1       5.834   4.829  15.105  0.00  0.00    +0.000 A 
ATOM      7  C   UNL     1       7.155   4.488  14.973  0.00  0.00    +0.000 A 
ATOM      8  O   UNL     1       7.769   4.614  16.170  0.00  0.00    +0.000 OA
ATOM      9  N   UNL     1       6.857   5.038  17.113  0.00  0.00    +0.000 NA
ENDBRANCH   3   5
BRANCH   2  10
ATOM     10  C   UNL     1       4.102   3.409  18.036  0.00  0.00    +0.000 C 
ATOM     11  C   UNL     1       4.452   2.594  19.266  0.00  0.00    +0.000 C 
ENDBRANCH   2  10
ENDBRANCH   1   2
BRANCH   1  13
ATOM     12  C   UNL     1       1.092   4.011  20.378  0.00  0.00    +0.000 C 
ATOM     13  C   UNL     1       1.317   4.418  18.926  0.00  0.00    +0.000 C 
ENDBRANCH   1  13
BRANCH   1  14
ATOM     14  C   UNL     1       2.724   6.348  19.849  0.00  0.00    +0.000 C 
BRANCH  14  15
ATOM     15  C   UNL     1       1.958   7.647  19.924  0.00  0.00    +0.000 A 
ATOM     16  C   UNL     1       1.863   8.489  18.807  0.00  0.00    +0.000 A 
ATOM     17  C   UNL     1       1.075   9.642  18.850  0.00  0.00    +0.000 A 
ATOM     18  C   UNL     1       0.377   9.967  20.007  0.00  0.00    +0.000 A 
ATOM     19  C   UNL     1       0.464   9.146  21.126  0.00  0.00    +0.000 A 
ATOM     20  C   UNL     1       1.247   7.991  21.083  0.00  0.00    +0.000 A 
ENDBRANCH  14  15
ENDBRANCH   1  14
TORSDOF 6
ENDMDL
MODEL 5
REMARK VINA RESULT:      -7.1      2.688      6.349
REMARK  Name = 
REMARK  8 active torsions:
REMARK  status: ('A' for Active; 'I' for Inactive)
REMARK    1  A    between atoms: C_1  and  C_2
REMARK    2  A    between atoms: C_2  and  C_3
REMARK    3  A    between atoms: C_3  and  C_4
REMARK    4  A    between atoms: C_3  and  N_11
REMARK    5  A    between atoms: C_4  and  C_5
REMARK    6  A    between atoms: N_11  and  C_12
REMARK    7  A    between atoms: C_12  and  C_13
REMARK    8  A    between atoms: C_14  and  C_16
REMARK                            x       y       z     vdW  Elec       q    Type
REMARK                         _______ _______ _______ _____ _____    ______ ____
ROOT
ATOM      1  C   UNL     1       4.461   5.123  16.849  0.00  0.00    +0.000 C 
ENDROOT
BRANCH   1   2
ATOM      2  N   UNL     1       3.936   4.798  18.232  0.00  0.00    +0.000 N 
ATOM      3  C   UNL     1       3.264   3.531  18.378  0.00  0.00    +0.000 C 
ATOM      4  O   UNL     1       3.184   2.733  17.443  0.00  0.00    +0.000 OA
BRANCH   3   5
ATOM      5  C   UNL     1       2.711   3.118  19.690  0.00  0.00    +0.000 A 
ATOM      6  C   UNL     1       1.355   3.237  20.109  0.00  0.00    +0.000 A 
ATOM      7  C   UNL     1       1.328   2.715  21.376  0.00  0.00    +0.000 A 
ATOM      8  O   UNL     1       2.579   2.345  21.731  0.00  0.00    +0.000 OA
ATOM      9  N   UNL     1       3.451   2.623  20.699  0.00  0.00    +0.000 NA
ENDBRANCH   3   5
BRANCH   2  10
ATOM     10  C   UNL     1       3.809   5.754  19.351  0.00  0.00    +0.000 C 
ATOM     11  C   UNL     1       2.669   6.729  19.573  0.00  0.00    +0.000 C 
ENDBRANCH   2  10
ENDBRANCH   1   2
BRANCH   1  13
ATOM     12  C   UNL     1       6.077   7.180  17.106  0.00  0.00    +0.000 C 
ATOM     13  C   UNL     1       4.772   6.607  16.566  0.00  0.00    +0.000 C 
ENDBRANCH   1  13
BRANCH   1  14
ATOM     14  C   UNL     1       5.648   4.206  16.399  0.00  0.00    +0.000 C 
BRANCH  14  15
ATOM     15  C   UNL     1       6.054   4.250  14.945  0.00  0.00    +0.000 A 
ATOM     16  C   UNL     1       7.225   4.910  14.548  0.00  0.00    +0.000 A 
ATOM     17  C   UNL     1       7.650   4.867  13.217  0.00  0.00    +0.000 A 
ATOM     18  C   UNL     1       6.911   4.168  12.271  0.00  0.00    +0.000 A 
ATOM     19  C   UNL     1       5.744   3.510  12.647  0.00  0.00    +0.000 A 
ATOM     20  C   UNL     1       5.322   3.548  13.977  0.00  0.00    +0.000 A 
ENDBRANCH  14  15
ENDBRANCH   1  14
TORSDOF 6
ENDMDL
MODEL 6
REMARK VINA RESULT:      -7.0      2.898      4.800
REMARK  Name = 
REMARK  8 active torsions:
REMARK  status: ('A' for Active; 'I' for Inactive)
REMARK    1  A    between atoms: C_1  and  C_2
REMARK    2  A    between atoms: C_2  and  C_3
REMARK    3  A    between atoms: C_3  and  C_4
REMARK    4  A    between atoms: C_3  and  N_11
REMARK    5  A    between atoms: C_4  and  C_5
REMARK    6  A    between atoms: N_11  and  C_12
REMARK    7  A    between atoms: C_12  and  C_13
REMARK    8  A    between atoms: C_14  and  C_16
REMARK                            x       y       z     vdW  Elec       q    Type
REMARK                         _______ _______ _______ _____ _____    ______ ____
ROOT
ATOM      1  C   UNL     1       2.430   5.322  18.749  0.00  0.00    +0.000 C 
ENDROOT
BRANCH   1   2
ATOM      2  N   UNL     1       3.706   4.759  18.157  0.00  0.00    +0.000 N 
ATOM      3  C   UNL     1       4.417   5.615  17.240  0.00  0.00    +0.000 C 
ATOM      4  O   UNL     1       4.038   6.764  17.008  0.00  0.00    +0.000 OA
BRANCH   3   5
ATOM      5  C   UNL     1       5.675   5.158  16.603  0.00  0.00    +0.000 A 
ATOM      6  C   UNL     1       5.840   4.772  15.242  0.00  0.00    +0.000 A 
ATOM      7  C   UNL     1       7.166   4.446  15.124  0.00  0.00    +0.000 A 
ATOM      8  O   UNL     1       7.765   4.576  16.329  0.00  0.00    +0.000 OA
ATOM      9  N   UNL     1       6.836   4.987  17.262  0.00  0.00    +0.000 NA
ENDBRANCH   3   5
BRANCH   2  10
ATOM     10  C   UNL     1       4.132   3.345  18.216  0.00  0.00    +0.000 C 
ATOM     11  C   UNL     1       4.436   2.552  19.471  0.00  0.00    +0.000 C 
ENDBRANCH   2  10
ENDBRANCH   1   2
BRANCH   1  13
ATOM     12  C   UNL     1       1.114   3.949  20.563  0.00  0.00    +0.000 C 
ATOM     13  C   UNL     1       1.327   4.301  19.095  0.00  0.00    +0.000 C 
ENDBRANCH   1  13
BRANCH   1  14
ATOM     14  C   UNL     1       2.676   6.307  19.940  0.00  0.00    +0.000 C 
BRANCH  14  15
ATOM     15  C   UNL     1       1.898   7.601  19.952  0.00  0.00    +0.000 A 
ATOM     16  C   UNL     1       1.294   8.064  21.129  0.00  0.00    +0.000 A 
ATOM     17  C   UNL     1       0.657   9.307  21.160  0.00  0.00    +0.000 A 
ATOM     18  C   UNL     1       0.614  10.099  20.019  0.00  0.00    +0.000 A 
ATOM     19  C   UNL     1       1.204   9.652  18.840  0.00  0.00    +0.000 A 
ATOM     20  C   UNL     1       1.845   8.413  18.809  0.00  0.00    +0.000 A 
ENDBRANCH  14  15
ENDBRANCH   1  14
TORSDOF 6
ENDMDL
MODEL 7
REMARK VINA RESULT:      -7.0      4.671      7.507
REMARK  Name = 
REMARK  8 active torsions:
REMARK  status: ('A' for Active; 'I' for Inactive)
REMARK    1  A    between atoms: C_1  and  C_2
REMARK    2  A    between atoms: C_2  and  C_3
REMARK    3  A    between atoms: C_3  and  C_4
REMARK    4  A    between atoms: C_3  and  N_11
REMARK    5  A    between atoms: C_4  and  C_5
REMARK    6  A    between atoms: N_11  and  C_12
REMARK    7  A    between atoms: C_12  and  C_13
REMARK    8  A    between atoms: C_14  and  C_16
REMARK                            x       y       z     vdW  Elec       q    Type
REMARK                         _______ _______ _______ _____ _____    ______ ____
ROOT
ATOM      1  C   UNL     1       2.845   6.715  18.553  0.00  0.00    +0.000 C 
ENDROOT
BRANCH   1   2
ATOM      2  N   UNL     1       2.193   7.799  19.387  0.00  0.00    +0.000 N 
ATOM      3  C   UNL     1       1.668   7.391  20.666  0.00  0.00    +0.000 C 
ATOM      4  O   UNL     1       1.805   6.238  21.080  0.00  0.00    +0.000 OA
BRANCH   3   5
ATOM      5  C   UNL     1       1.007   8.373  21.559  0.00  0.00    +0.000 A 
ATOM      6  C   UNL     1      -0.392   8.625  21.648  0.00  0.00    +0.000 A 
ATOM      7  C   UNL     1      -0.516   9.595  22.608  0.00  0.00    +0.000 A 
ATOM      8  O   UNL     1       0.712   9.949  23.045  0.00  0.00    +0.000 OA
ATOM      9  N   UNL     1       1.669   9.217  22.372  0.00  0.00    +0.000 NA
ENDBRANCH   3   5
BRANCH   2  10
ATOM     10  C   UNL     1       1.808   9.142  18.905  0.00  0.00    +0.000 C 
ATOM     11  C   UNL     1       0.708   9.458  17.911  0.00  0.00    +0.000 C 
ENDBRANCH   2  10
ENDBRANCH   1   2
BRANCH   1  13
ATOM     12  C   UNL     1       2.170   4.215  18.103  0.00  0.00    +0.000 C 
ATOM     13  C   UNL     1       1.895   5.698  17.888  0.00  0.00    +0.000 C 
ENDBRANCH   1  13
BRANCH   1  14
ATOM     14  C   UNL     1       3.889   7.263  17.523  0.00  0.00    +0.000 C 
BRANCH  14  15
ATOM     15  C   UNL     1       5.036   6.359  17.140  0.00  0.00    +0.000 A 
ATOM     16  C   UNL     1       5.841   5.767  18.123  0.00  0.00    +0.000 A 
ATOM     17  C   UNL     1       6.840   4.856  17.772  0.00  0.00    +0.000 A 
ATOM     18  C   UNL     1       7.048   4.529  16.437  0.00  0.00    +0.000 A 
ATOM     19  C   UNL     1       6.263   5.112  15.448  0.00  0.00    +0.000 A 
ATOM     20  C   UNL     1       5.261   6.018  15.799  0.00  0.00    +0.000 A 
ENDBRANCH  14  15
ENDBRANCH   1  14
TORSDOF 6
ENDMDL
MODEL 8
REMARK VINA RESULT:      -7.0      2.680      6.332
REMARK  Name = 
REMARK  8 active torsions:
REMARK  status: ('A' for Active; 'I' for Inactive)
REMARK    1  A    between atoms: C_1  and  C_2
REMARK    2  A    between atoms: C_2  and  C_3
REMARK    3  A    between atoms: C_3  and  C_4
REMARK    4  A    between atoms: C_3  and  N_11
REMARK    5  A    between atoms: C_4  and  C_5
REMARK    6  A    between atoms: N_11  and  C_12
REMARK    7  A    between atoms: C_12  and  C_13
REMARK    8  A    between atoms: C_14  and  C_16
REMARK                            x       y       z     vdW  Elec       q    Type
REMARK                         _______ _______ _______ _____ _____    ______ ____
ROOT
ATOM      1  C   UNL     1       4.496   5.087  16.914  0.00  0.00    +0.000 C 
ENDROOT
BRANCH   1   2
ATOM      2  N   UNL     1       3.922   4.785  18.283  0.00  0.00    +0.000 N 
ATOM      3  C   UNL     1       3.313   3.489  18.449  0.00  0.00    +0.000 C 
ATOM      4  O   UNL     1       3.321   2.655  17.543  0.00  0.00    +0.000 OA
BRANCH   3   5
ATOM      5  C   UNL     1       2.718   3.096  19.748  0.00  0.00    +0.000 A 
ATOM      6  C   UNL     1       1.356   3.250  20.135  0.00  0.00    +0.000 A 
ATOM      7  C   UNL     1       1.287   2.735  21.402  0.00  0.00    +0.000 A 
ATOM      8  O   UNL     1       2.519   2.335  21.788  0.00  0.00    +0.000 OA
ATOM      9  N   UNL     1       3.422   2.587  20.777  0.00  0.00    +0.000 NA
ENDBRANCH   3   5
BRANCH   2  10
ATOM     10  C   UNL     1       3.690   5.774  19.356  0.00  0.00    +0.000 C 
ATOM     11  C   UNL     1       2.517   6.729  19.458  0.00  0.00    +0.000 C 
ENDBRANCH   2  10
ENDBRANCH   1   2
BRANCH   1  13
ATOM     12  C   UNL     1       6.024   7.219  17.094  0.00  0.00    +0.000 C 
ATOM     13  C   UNL     1       4.740   6.574  16.586  0.00  0.00    +0.000 C 
ENDBRANCH   1  13
BRANCH   1  14
ATOM     14  C   UNL     1       5.752   4.223  16.559  0.00  0.00    +0.000 C 
BRANCH  14  15
ATOM     15  C   UNL     1       6.198   4.195  15.116  0.00  0.00    +0.000 A 
ATOM     16  C   UNL     1       5.428   3.548  14.140  0.00  0.00    +0.000 A 
ATOM     17  C   UNL     1       5.792   3.607  12.792  0.00  0.00    +0.000 A 
ATOM     18  C   UNL     1       6.928   4.308  12.406  0.00  0.00    +0.000 A 
ATOM     19  C   UNL     1       7.707   4.952  13.362  0.00  0.00    +0.000 A 
ATOM     20  C   UNL     1       7.341   4.899  14.708  0.00  0.00    +0.000 A 
ENDBRANCH  14  15
ENDBRANCH   1  14
TORSDOF 6
ENDMDL
MODEL 9
REMARK VINA RESULT:      -6.9      1.937      3.065
REMARK  Name = 
REMARK  8 active torsions:
REMARK  status: ('A' for Active; 'I' for Inactive)
REMARK    1  A    between atoms: C_1  and  C_2
REMARK    2  A    between atoms: C_2  and  C_3
REMARK    3  A    between atoms: C_3  and  C_4
REMARK    4  A    between atoms: C_3  and  N_11
REMARK    5  A    between atoms: C_4  and  C_5
REMARK    6  A    between atoms: N_11  and  C_12
REMARK    7  A    between atoms: C_12  and  C_13
REMARK    8  A    between atoms: C_14  and  C_16
REMARK                            x       y       z     vdW  Elec       q    Type
REMARK                         _______ _______ _______ _____ _____    ______ ____
ROOT
ATOM      1  C   UNL     1       3.395   6.453  18.323  0.00  0.00    +0.000 C 
ENDROOT
BRANCH   1   2
ATOM      2  N   UNL     1       4.496   5.743  17.562  0.00  0.00    +0.000 N 
ATOM      3  C   UNL     1       4.859   6.309  16.287  0.00  0.00    +0.000 C 
ATOM      4  O   UNL     1       4.346   7.351  15.876  0.00  0.00    +0.000 OA
BRANCH   3   5
ATOM      5  C   UNL     1       5.923   5.688  15.461  0.00  0.00    +0.000 A 
ATOM      6  C   UNL     1       5.736   4.719  14.435  0.00  0.00    +0.000 A 
ATOM      7  C   UNL     1       6.994   4.462  13.957  0.00  0.00    +0.000 A 
ATOM      8  O   UNL     1       7.894   5.181  14.664  0.00  0.00    +0.000 OA
ATOM      9  N   UNL     1       7.238   5.921  15.625  0.00  0.00    +0.000 NA
ENDBRANCH   3   5
BRANCH   2  10
ATOM     10  C   UNL     1       5.026   4.398  17.871  0.00  0.00    +0.000 C 
ATOM     11  C   UNL     1       4.377   3.075  17.518  0.00  0.00    +0.000 C 
ENDBRANCH   2  10
ENDBRANCH   1   2
BRANCH   1  13
ATOM     12  C   UNL     1       1.774   8.492  17.968  0.00  0.00    +0.000 C 
ATOM     13  C   UNL     1       3.198   7.950  18.004  0.00  0.00    +0.000 C 
ENDBRANCH   1  13
BRANCH   1  14
ATOM     14  C   UNL     1       2.028   5.691  18.300  0.00  0.00    +0.000 C 
BRANCH  14  15
ATOM     15  C   UNL     1       1.780   4.666  19.381  0.00  0.00    +0.000 A 
ATOM     16  C   UNL     1       1.035   3.508  19.114  0.00  0.00    +0.000 A 
ATOM     17  C   UNL     1       0.889   2.516  20.086  0.00  0.00    +0.000 A 
ATOM     18  C   UNL     1       1.480   2.670  21.335  0.00  0.00    +0.000 A 
ATOM     19  C   UNL     1       2.218   3.815  21.618  0.00  0.00    +0.000 A 
ATOM     20  C   UNL     1       2.370   4.803  20.646  0.00  0.00    +0.000 A 
ENDBRANCH  14  15
ENDBRANCH   1  14
TORSDOF 6
ENDMDL
