MODEL 1
REMARK VINA RESULT:      -6.4      0.000      0.000
REMARK  Name = 
REMARK  10 active torsions:
REMARK  status: ('A' for Active; 'I' for Inactive)
REMARK    1  A    between atoms: C_1  and  C_2
REMARK    2  A    between atoms: C_2  and  C_3
REMARK    3  A    between atoms: C_3  and  C_4
REMARK    4  A    between atoms: C_4  and  N_5
REMARK    5  A    between atoms: N_5  and  C_6
REMARK    6  A    between atoms: N_5  and  C_8
REMARK    7  A    between atoms: C_6  and  C_7
REMARK    8  A    between atoms: C_8  and  C_9
REMARK    9  A    between atoms: C_10  and  C_11
REMARK   10  A    between atoms: C_11  and  C_12
REMARK                            x       y       z     vdW  Elec       q    Type
REMARK                         _______ _______ _______ _____ _____    ______ ____
ROOT
ATOM      1  C   UNL     1       4.466   6.220  16.876  0.00  0.00    +0.000 C 
ATOM      2  C   UNL     1       3.683   6.375  17.775  0.00  0.00    +0.000 C 
ENDROOT
BRANCH   1   3
ATOM      3  C   UNL     1       5.384   6.028  15.735  0.00  0.00    +0.000 C 
BRANCH   3   4
ATOM      4  N   UNL     1       6.284   4.873  15.913  0.00  0.00    +0.000 NA
BRANCH   4   5
ATOM      5  C   UNL     1       5.906   3.756  15.034  0.00  0.00    +0.000 C 
ATOM      6  C   UNL     1       6.106   3.958  13.531  0.00  0.00    +0.000 C 
ENDBRANCH   4   5
BRANCH   4   7
ATOM      7  C   UNL     1       6.408   4.499  17.335  0.00  0.00    +0.000 C 
BRANCH   7   8
ATOM      8  C   UNL     1       7.756   4.826  18.001  0.00  0.00    +0.000 C 
BRANCH   8  10
ATOM      9  C   UNL     1       7.872   7.330  18.111  0.00  0.00    +0.000 C 
ATOM     10  C   UNL     1       7.709   6.050  18.918  0.00  0.00    +0.000 C 
ENDBRANCH   8  10
ENDBRANCH   7   8
ENDBRANCH   4   7
ENDBRANCH   3   4
ENDBRANCH   1   3
BRANCH   2  11
ATOM     11  C   UNL     1       2.697   6.558  18.853  0.00  0.00    +0.000 C 
BRANCH  11  12
ATOM     12  C   UNL     1       2.138   5.247  19.350  0.00  0.00    +0.000 A 
ATOM     13  C   UNL     1       2.126   4.954  20.720  0.00  0.00    +0.000 A 
ATOM     14  C   UNL     1       1.640   3.729  21.180  0.00  0.00    +0.000 A 
ATOM     15  C   UNL     1       1.161   2.785  20.276  0.00  0.00    +0.000 A 
ATOM     16  C   UNL     1       1.164   3.065  18.910  0.00  0.00    +0.000 A 
ATOM     17  C   UNL     1       1.653   4.288  18.447  0.00  0.00    +0.000 A 
ENDBRANCH  11  12
ENDBRANCH   2  11
TORSDOF 8
ENDMDL
MODEL 2
REMARK VINA RESULT:      -6.3      2.075      5.771
REMARK  Name = 
REMARK  10 active torsions:
REMARK  status: ('A' for Active; 'I' for Inactive)
REMARK    1  A    between atoms: C_1  and  C_2
REMARK    2  A    between atoms: C_2  and  C_3
REMARK    3  A    between atoms: C_3  and  C_4
REMARK    4  A    between atoms: C_4  and  N_5
REMARK    5  A    between atoms: N_5  and  C_6
REMARK    6  A    between atoms: N_5  and  C_8
REMARK    7  A    between atoms: C_6  and  C_7
REMARK    8  A    between atoms: C_8  and  C_9
REMARK    9  A    between atoms: C_10  and  C_11
REMARK   10  A    between atoms: C_11  and  C_12
REMARK                            x       y       z     vdW  Elec       q    Type
REMARK                         _______ _______ _______ _____ _____    ______ ____
ROOT
ATOM      1  C   UNL     1       2.401   5.931  19.420  0.00  0.00    +0.000 C 
ATOM      2  C   UNL     1       3.100   6.459  18.597  0.00  0.00    +0.000 C 
ENDROOT
BRANCH   1   3
ATOM      3  C   UNL     1       1.556   5.230  20.408  0.00  0.00    +0.000 C 
BRANCH   3   4
ATOM      4  N   UNL     1       0.951   3.997  19.871  0.00  0.00    +0.000 NA
BRANCH   4   5
ATOM      5  C   UNL     1       1.188   2.850  20.761  0.00  0.00    +0.000 C 
ATOM      6  C   UNL     1       2.231   3.032  21.864  0.00  0.00    +0.000 C 
ENDBRANCH   4   5
BRANCH   4   7
ATOM      7  C   UNL     1       1.356   3.761  18.472  0.00  0.00    +0.000 C 
BRANCH   7   8
ATOM      8  C   UNL     1       2.094   2.438  18.200  0.00  0.00    +0.000 C 
BRANCH   8  10
ATOM      9  C   UNL     1       4.428   2.945  18.968  0.00  0.00    +0.000 C 
ATOM     10  C   UNL     1       3.550   2.622  17.767  0.00  0.00    +0.000 C 
ENDBRANCH   8  10
ENDBRANCH   7   8
ENDBRANCH   4   7
ENDBRANCH   3   4
ENDBRANCH   1   3
BRANCH   2  11
ATOM     11  C   UNL     1       3.960   7.075  17.573  0.00  0.00    +0.000 C 
BRANCH  11  12
ATOM     12  C   UNL     1       5.097   6.172  17.158  0.00  0.00    +0.000 A 
ATOM     13  C   UNL     1       6.208   5.999  17.994  0.00  0.00    +0.000 A 
ATOM     14  C   UNL     1       7.275   5.190  17.598  0.00  0.00    +0.000 A 
ATOM     15  C   UNL     1       7.242   4.548  16.363  0.00  0.00    +0.000 A 
ATOM     16  C   UNL     1       6.142   4.709  15.523  0.00  0.00    +0.000 A 
ATOM     17  C   UNL     1       5.075   5.520  15.915  0.00  0.00    +0.000 A 
ENDBRANCH  11  12
ENDBRANCH   2  11
TORSDOF 8
ENDMDL
MODEL 3
REMARK VINA RESULT:      -6.2      1.252      2.011
REMARK  Name = 
REMARK  10 active torsions:
REMARK  status: ('A' for Active; 'I' for Inactive)
REMARK    1  A    between atoms: C_1  and  C_2
REMARK    2  A    between atoms: C_2  and  C_3
REMARK    3  A    between atoms: C_3  and  C_4
REMARK    4  A    between atoms: C_4  and  N_5
REMARK    5  A    between atoms: N_5  and  C_6
REMARK    6  A    between atoms: N_5  and  C_8
REMARK    7  A    between atoms: C_6  and  C_7
REMARK    8  A    between atoms: C_8  and  C_9
REMARK    9  A    between atoms: C_10  and  C_11
REMARK   10  A    between atoms: C_11  and  C_12
REMARK                            x       y       z     vdW  Elec       q    Type
REMARK                         _______ _______ _______ _____ _____    ______ ____
ROOT
ATOM      1  C   UNL     1       4.252   6.527  17.270  0.00  0.00    +0.000 C 
ATOM      2  C   UNL     1       3.522   6.529  18.224  0.00  0.00    +0.000 C 
ENDROOT
BRANCH   1   3
ATOM      3  C   UNL     1       5.104   6.517  16.063  0.00  0.00    +0.000 C 
BRANCH   3   4
ATOM      4  N   UNL     1       6.544   6.465  16.379  0.00  0.00    +0.000 NA
BRANCH   4   5
ATOM      5  C   UNL     1       7.042   5.081  16.389  0.00  0.00    +0.000 C 
ATOM      6  C   UNL     1       7.649   4.571  17.697  0.00  0.00    +0.000 C 
ENDBRANCH   4   5
BRANCH   4   7
ATOM      7  C   UNL     1       6.855   7.221  17.606  0.00  0.00    +0.000 C 
BRANCH   7   8
ATOM      8  C   UNL     1       7.789   8.432  17.430  0.00  0.00    +0.000 C 
BRANCH   8  10
ATOM      9  C   UNL     1       9.004  10.207  18.720  0.00  0.00    +0.000 C 
ATOM     10  C   UNL     1       8.653   8.728  18.658  0.00  0.00    +0.000 C 
ENDBRANCH   8  10
ENDBRANCH   7   8
ENDBRANCH   4   7
ENDBRANCH   3   4
ENDBRANCH   1   3
BRANCH   2  11
ATOM     11  C   UNL     1       2.599   6.523  19.372  0.00  0.00    +0.000 C 
BRANCH  11  12
ATOM     12  C   UNL     1       2.100   5.137  19.702  0.00  0.00    +0.000 A 
ATOM     13  C   UNL     1       2.162   4.655  21.016  0.00  0.00    +0.000 A 
ATOM     14  C   UNL     1       1.731   3.362  21.319  0.00  0.00    +0.000 A 
ATOM     15  C   UNL     1       1.235   2.539  20.311  0.00  0.00    +0.000 A 
ATOM     16  C   UNL     1       1.166   3.007  19.000  0.00  0.00    +0.000 A 
ATOM     17  C   UNL     1       1.600   4.299  18.694  0.00  0.00    +0.000 A 
ENDBRANCH  11  12
ENDBRANCH   2  11
TORSDOF 8
ENDMDL
MODEL 4
REMARK VINA RESULT:      -6.2      0.867      3.092
REMARK  Name = 
REMARK  10 active torsions:
REMARK  status: ('A' for Active; 'I' for Inactive)
REMARK    1  A    between atoms: C_1  and  C_2
REMARK    2  A    between atoms: C_2  and  C_3
REMARK    3  A    between atoms: C_3  and  C_4
REMARK    4  A    between atoms: C_4  and  N_5
REMARK    5  A    between atoms: N_5  and  C_6
REMARK    6  A    between atoms: N_5  and  C_8
REMARK    7  A    between atoms: C_6  and  C_7
REMARK    8  A    between atoms: C_8  and  C_9
REMARK    9  A    between atoms: C_10  and  C_11
REMARK   10  A    between atoms: C_11  and  C_12
REMARK                            x       y       z     vdW  Elec       q    Type
REMARK                         _______ _______ _______ _____ _____    ______ ____
ROOT
ATOM      1  C   UNL     1       4.843   6.610  17.386  0.00  0.00    +0.000 C 
ATOM      2  C   UNL     1       3.715   6.654  17.799  0.00  0.00    +0.000 C 
ENDROOT
BRANCH   1   3
ATOM      3  C   UNL     1       6.218   6.504  16.857  0.00  0.00    +0.000 C 
BRANCH   3   4
ATOM      4  N   UNL     1       6.696   5.110  16.782  0.00  0.00    +0.000 NA
BRANCH   4   5
ATOM      5  C   UNL     1       7.557   4.775  17.926  0.00  0.00    +0.000 C 
ATOM      6  C   UNL     1       7.836   5.890  18.935  0.00  0.00    +0.000 C 
ENDBRANCH   4   5
BRANCH   4   7
ATOM      7  C   UNL     1       7.303   4.817  15.471  0.00  0.00    +0.000 C 
BRANCH   7   8
ATOM      8  C   UNL     1       6.373   4.958  14.253  0.00  0.00    +0.000 C 
BRANCH   8  10
ATOM      9  C   UNL     1       6.004   3.416  12.309  0.00  0.00    +0.000 C 
ATOM     10  C   UNL     1       5.753   3.636  13.794  0.00  0.00    +0.000 C 
ENDBRANCH   8  10
ENDBRANCH   7   8
ENDBRANCH   4   7
ENDBRANCH   3   4
ENDBRANCH   1   3
BRANCH   2  11
ATOM     11  C   UNL     1       2.329   6.673  18.296  0.00  0.00    +0.000 C 
BRANCH  11  12
ATOM     12  C   UNL     1       1.902   5.340  18.861  0.00  0.00    +0.000 A 
ATOM     13  C   UNL     1       1.750   5.170  20.243  0.00  0.00    +0.000 A 
ATOM     14  C   UNL     1       1.386   3.930  20.770  0.00  0.00    +0.000 A 
ATOM     15  C   UNL     1       1.171   2.847  19.921  0.00  0.00    +0.000 A 
ATOM     16  C   UNL     1       1.315   3.003  18.543  0.00  0.00    +0.000 A 
ATOM     17  C   UNL     1       1.683   4.242  18.014  0.00  0.00    +0.000 A 
ENDBRANCH  11  12
ENDBRANCH   2  11
TORSDOF 8
ENDMDL
MODEL 5
REMARK VINA RESULT:      -6.2      1.031      1.277
REMARK  Name = 
REMARK  10 active torsions:
REMARK  status: ('A' for Active; 'I' for Inactive)
REMARK    1  A    between atoms: C_1  and  C_2
REMARK    2  A    between atoms: C_2  and  C_3
REMARK    3  A    between atoms: C_3  and  C_4
REMARK    4  A    between atoms: C_4  and  N_5
REMARK    5  A    between atoms: N_5  and  C_6
REMARK    6  A    between atoms: N_5  and  C_8
REMARK    7  A    between atoms: C_6  and  C_7
REMARK    8  A    between atoms: C_8  and  C_9
REMARK    9  A    between atoms: C_10  and  C_11
REMARK   10  A    between atoms: C_11  and  C_12
REMARK                            x       y       z     vdW  Elec       q    Type
REMARK                         _______ _______ _______ _____ _____    ______ ____
ROOT
ATOM      1  C   UNL     1       4.366   4.757  16.604  0.00  0.00    +0.000 C 
ATOM      2  C   UNL     1       3.617   5.219  17.423  0.00  0.00    +0.000 C 
ENDROOT
BRANCH   1   3
ATOM      3  C   UNL     1       5.244   4.194  15.558  0.00  0.00    +0.000 C 
BRANCH   3   4
ATOM      4  N   UNL     1       6.376   5.079  15.224  0.00  0.00    +0.000 NA
BRANCH   4   5
ATOM      5  C   UNL     1       6.984   4.711  13.936  0.00  0.00    +0.000 C 
ATOM      6  C   UNL     1       6.237   3.684  13.084  0.00  0.00    +0.000 C 
ENDBRANCH   4   5
BRANCH   4   7
ATOM      7  C   UNL     1       7.339   5.167  16.337  0.00  0.00    +0.000 C 
BRANCH   7   8
ATOM      8  C   UNL     1       7.274   6.451  17.182  0.00  0.00    +0.000 C 
BRANCH   8  10
ATOM      9  C   UNL     1       6.665   5.485  19.416  0.00  0.00    +0.000 C 
ATOM     10  C   UNL     1       7.717   6.257  18.634  0.00  0.00    +0.000 C 
ENDBRANCH   8  10
ENDBRANCH   7   8
ENDBRANCH   4   7
ENDBRANCH   3   4
ENDBRANCH   1   3
BRANCH   2  11
ATOM     11  C   UNL     1       2.673   5.782  18.402  0.00  0.00    +0.000 C 
BRANCH  11  12
ATOM     12  C   UNL     1       2.143   4.739  19.357  0.00  0.00    +0.000 A 
ATOM     13  C   UNL     1       2.538   4.741  20.701  0.00  0.00    +0.000 A 
ATOM     14  C   UNL     1       2.075   3.759  21.578  0.00  0.00    +0.000 A 
ATOM     15  C   UNL     1       1.214   2.765  21.121  0.00  0.00    +0.000 A 
ATOM     16  C   UNL     1       0.812   2.752  19.786  0.00  0.00    +0.000 A 
ATOM     17  C   UNL     1       1.276   3.732  18.906  0.00  0.00    +0.000 A 
ENDBRANCH  11  12
ENDBRANCH   2  11
TORSDOF 8
ENDMDL
MODEL 6
REMARK VINA RESULT:      -6.1      1.792      5.961
REMARK  Name = 
REMARK  10 active torsions:
REMARK  status: ('A' for Active; 'I' for Inactive)
REMARK    1  A    between atoms: C_1  and  C_2
REMARK    2  A    between atoms: C_2  and  C_3
REMARK    3  A    between atoms: C_3  and  C_4
REMARK    4  A    between atoms: C_4  and  N_5
REMARK    5  A    between atoms: N_5  and  C_6
REMARK    6  A    between atoms: N_5  and  C_8
REMARK    7  A    between atoms: C_6  and  C_7
REMARK    8  A    between atoms: C_8  and  C_9
REMARK    9  A    between atoms: C_10  and  C_11
REMARK   10  A    between atoms: C_11  and  C_12
REMARK                            x       y       z     vdW  Elec       q    Type
REMARK                         _______ _______ _______ _____ _____    ______ ____
ROOT
ATOM      1  C   UNL     1       3.964   3.263  17.310  0.00  0.00    +0.000 C 
ATOM      2  C   UNL     1       4.835   3.855  16.732  0.00  0.00    +0.000 C 
ENDROOT
BRANCH   1   3
ATOM      3  C   UNL     1       2.856   2.578  18.008  0.00  0.00    +0.000 C 
BRANCH   3   4
ATOM      4  N   UNL     1       2.469   3.250  19.263  0.00  0.00    +0.000 NA
BRANCH   4   5
ATOM      5  C   UNL     1       1.585   2.402  20.077  0.00  0.00    +0.000 C 
ATOM      6  C   UNL     1       1.431   2.774  21.552  0.00  0.00    +0.000 C 
ENDBRANCH   4   5
BRANCH   4   7
ATOM      7  C   UNL     1       1.934   4.601  19.010  0.00  0.00    +0.000 C 
BRANCH   7   8
ATOM      8  C   UNL     1       2.767   5.769  19.568  0.00  0.00    +0.000 C 
BRANCH   8  10
ATOM      9  C   UNL     1       3.462   7.270  17.682  0.00  0.00    +0.000 C 
ATOM     10  C   UNL     1       2.513   7.101  18.860  0.00  0.00    +0.000 C 
ENDBRANCH   8  10
ENDBRANCH   7   8
ENDBRANCH   4   7
ENDBRANCH   3   4
ENDBRANCH   1   3
BRANCH   2  11
ATOM     11  C   UNL     1       5.880   4.610  16.020  0.00  0.00    +0.000 C 
BRANCH  11  12
ATOM     12  C   UNL     1       6.696   5.478  16.948  0.00  0.00    +0.000 A 
ATOM     13  C   UNL     1       7.212   4.953  18.140  0.00  0.00    +0.000 A 
ATOM     14  C   UNL     1       7.939   5.762  19.015  0.00  0.00    +0.000 A 
ATOM     15  C   UNL     1       8.157   7.103  18.708  0.00  0.00    +0.000 A 
ATOM     16  C   UNL     1       7.651   7.637  17.524  0.00  0.00    +0.000 A 
ATOM     17  C   UNL     1       6.920   6.830  16.649  0.00  0.00    +0.000 A 
ENDBRANCH  11  12
ENDBRANCH   2  11
TORSDOF 8
ENDMDL
MODEL 7
REMARK VINA RESULT:      -6.0      4.075      6.604
REMARK  Name = 
REMARK  10 active torsions:
REMARK  status: ('A' for Active; 'I' for Inactive)
REMARK    1  A    between atoms: C_1  and  C_2
REMARK    2  A    between atoms: C_2  and  C_3
REMARK    3  A    between atoms: C_3  and  C_4
REMARK    4  A    between atoms: C_4  and  N_5
REMARK    5  A    between atoms: N_5  and  C_6
REMARK    6  A    between atoms: N_5  and  C_8
REMARK    7  A    between atoms: C_6  and  C_7
REMARK    8  A    between atoms: C_8  and  C_9
REMARK    9  A    between atoms: C_10  and  C_11
REMARK   10  A    between atoms: C_11  and  C_12
REMARK                            x       y       z     vdW  Elec       q    Type
REMARK                         _______ _______ _______ _____ _____    ______ ____
ROOT
ATOM      1  C   UNL     1       2.074   8.406  18.206  0.00  0.00    +0.000 C 
ATOM      2  C   UNL     1       2.547   7.305  18.113  0.00  0.00    +0.000 C 
ENDROOT
BRANCH   1   3
ATOM      3  C   UNL     1       1.518   9.774  18.269  0.00  0.00    +0.000 C 
BRANCH   3   4
ATOM      4  N   UNL     1       0.412   9.897  19.236  0.00  0.00    +0.000 NA
BRANCH   4   5
ATOM      5  C   UNL     1      -0.332  11.151  19.045  0.00  0.00    +0.000 C 
ATOM      6  C   UNL     1      -1.732  11.042  18.438  0.00  0.00    +0.000 C 
ENDBRANCH   4   5
BRANCH   4   7
ATOM      7  C   UNL     1       0.877   9.683  20.619  0.00  0.00    +0.000 C 
BRANCH   7   8
ATOM      8  C   UNL     1      -0.143   9.048  21.581  0.00  0.00    +0.000 C 
BRANCH   8  10
ATOM      9  C   UNL     1      -1.174  10.747  23.111  0.00  0.00    +0.000 C 
ATOM     10  C   UNL     1      -0.125   9.652  22.987  0.00  0.00    +0.000 C 
ENDBRANCH   8  10
ENDBRANCH   7   8
ENDBRANCH   4   7
ENDBRANCH   3   4
ENDBRANCH   1   3
BRANCH   2  11
ATOM     11  C   UNL     1       3.144   5.967  17.971  0.00  0.00    +0.000 C 
BRANCH  11  12
ATOM     12  C   UNL     1       2.306   4.891  18.617  0.00  0.00    +0.000 A 
ATOM     13  C   UNL     1       1.913   5.006  19.958  0.00  0.00    +0.000 A 
ATOM     14  C   UNL     1       1.166   3.997  20.567  0.00  0.00    +0.000 A 
ATOM     15  C   UNL     1       0.803   2.863  19.844  0.00  0.00    +0.000 A 
ATOM     16  C   UNL     1       1.185   2.738  18.509  0.00  0.00    +0.000 A 
ATOM     17  C   UNL     1       1.936   3.744  17.898  0.00  0.00    +0.000 A 
ENDBRANCH  11  12
ENDBRANCH   2  11
TORSDOF 8
ENDMDL
MODEL 8
REMARK VINA RESULT:      -6.0      1.300      2.392
REMARK  Name = 
REMARK  10 active torsions:
REMARK  status: ('A' for Active; 'I' for Inactive)
REMARK    1  A    between atoms: C_1  and  C_2
REMARK    2  A    between atoms: C_2  and  C_3
REMARK    3  A    between atoms: C_3  and  C_4
REMARK    4  A    between atoms: C_4  and  N_5
REMARK    5  A    between atoms: N_5  and  C_6
REMARK    6  A    between atoms: N_5  and  C_8
REMARK    7  A    between atoms: C_6  and  C_7
REMARK    8  A    between atoms: C_8  and  C_9
REMARK    9  A    between atoms: C_10  and  C_11
REMARK   10  A    between atoms: C_11  and  C_12
REMARK                            x       y       z     vdW  Elec       q    Type
REMARK                         _______ _______ _______ _____ _____    ______ ____
ROOT
ATOM      1  C   UNL     1       4.522   6.801  17.039  0.00  0.00    +0.000 C 
ATOM      2  C   UNL     1       3.663   6.817  17.879  0.00  0.00    +0.000 C 
ENDROOT
BRANCH   1   3
ATOM      3  C   UNL     1       5.573   6.724  16.003  0.00  0.00    +0.000 C 
BRANCH   3   4
ATOM      4  N   UNL     1       6.875   6.287  16.541  0.00  0.00    +0.000 NA
BRANCH   4   5
ATOM      5  C   UNL     1       6.910   4.831  16.747  0.00  0.00    +0.000 C 
ATOM      6  C   UNL     1       6.462   4.313  18.115  0.00  0.00    +0.000 C 
ENDBRANCH   4   5
BRANCH   4   7
ATOM      7  C   UNL     1       7.258   7.068  17.731  0.00  0.00    +0.000 C 
BRANCH   7   8
ATOM      8  C   UNL     1       7.808   8.480  17.460  0.00  0.00    +0.000 C 
BRANCH   8  10
ATOM      9  C   UNL     1       9.038  10.489  18.322  0.00  0.00    +0.000 C 
ATOM     10  C   UNL     1       8.643   9.048  18.611  0.00  0.00    +0.000 C 
ENDBRANCH   8  10
ENDBRANCH   7   8
ENDBRANCH   4   7
ENDBRANCH   3   4
ENDBRANCH   1   3
BRANCH   2  11
ATOM     11  C   UNL     1       2.612   6.801  18.909  0.00  0.00    +0.000 C 
BRANCH  11  12
ATOM     12  C   UNL     1       2.062   5.415  19.149  0.00  0.00    +0.000 A 
ATOM     13  C   UNL     1       1.874   4.531  18.078  0.00  0.00    +0.000 A 
ATOM     14  C   UNL     1       1.336   3.261  18.292  0.00  0.00    +0.000 A 
ATOM     15  C   UNL     1       0.980   2.862  19.579  0.00  0.00    +0.000 A 
ATOM     16  C   UNL     1       1.164   3.731  20.653  0.00  0.00    +0.000 A 
ATOM     17  C   UNL     1       1.699   5.003  20.440  0.00  0.00    +0.000 A 
ENDBRANCH  11  12
ENDBRANCH   2  11
TORSDOF 8
ENDMDL
MODEL 9
REMARK VINA RESULT:      -6.0      1.312      1.971
REMARK  Name = 
REMARK  10 active torsions:
REMARK  status: ('A' for Active; 'I' for Inactive)
REMARK    1  A    between atoms: C_1  and  C_2
REMARK    2  A    between atoms: C_2  and  C_3
REMARK    3  A    between atoms: C_3  and  C_4
REMARK    4  A    between atoms: C_4  and  N_5
REMARK    5  A    between atoms: N_5  and  C_6
REMARK    6  A    between atoms: N_5  and  C_8
REMARK    7  A    between atoms: C_6  and  C_7
REMARK    8  A    between atoms: C_8  and  C_9
REMARK    9  A    between atoms: C_10  and  C_11
REMARK   10  A    between atoms: C_11  and  C_12
REMARK                            x       y       z     vdW  Elec       q    Type
REMARK                         _______ _______ _______ _____ _____    ______ ____
ROOT
ATOM      1  C   UNL     1       4.906   6.901  17.254  0.00  0.00    +0.000 C 
ATOM      2  C   UNL     1       3.804   6.982  17.725  0.00  0.00    +0.000 C 
ENDROOT
BRANCH   1   3
ATOM      3  C   UNL     1       6.284   6.813  16.727  0.00  0.00    +0.000 C 
BRANCH   3   4
ATOM      4  N   UNL     1       6.609   5.475  16.196  0.00  0.00    +0.000 NA
BRANCH   4   5
ATOM      5  C   UNL     1       5.688   5.087  15.117  0.00  0.00    +0.000 C 
ATOM      6  C   UNL     1       6.177   4.018  14.139  0.00  0.00    +0.000 C 
ENDBRANCH   4   5
BRANCH   4   7
ATOM      7  C   UNL     1       6.718   4.477  17.277  0.00  0.00    +0.000 C 
BRANCH   7   8
ATOM      8  C   UNL     1       5.413   3.763  17.667  0.00  0.00    +0.000 C 
BRANCH   8  10
ATOM      9  C   UNL     1       4.530   2.516  19.657  0.00  0.00    +0.000 C 
ATOM     10  C   UNL     1       5.088   3.842  19.160  0.00  0.00    +0.000 C 
ENDBRANCH   8  10
ENDBRANCH   7   8
ENDBRANCH   4   7
ENDBRANCH   3   4
ENDBRANCH   1   3
BRANCH   2  11
ATOM     11  C   UNL     1       2.468   7.091  18.334  0.00  0.00    +0.000 C 
BRANCH  11  12
ATOM     12  C   UNL     1       1.941   5.759  18.809  0.00  0.00    +0.000 A 
ATOM     13  C   UNL     1       1.724   5.526  20.173  0.00  0.00    +0.000 A 
ATOM     14  C   UNL     1       1.267   4.284  20.618  0.00  0.00    +0.000 A 
ATOM     15  C   UNL     1       1.023   3.263  19.703  0.00  0.00    +0.000 A 
ATOM     16  C   UNL     1       1.232   3.482  18.342  0.00  0.00    +0.000 A 
ATOM     17  C   UNL     1       1.692   4.722  17.896  0.00  0.00    +0.000 A 
ENDBRANCH  11  12
ENDBRANCH   2  11
TORSDOF 8
ENDMDL
