MODEL 1
REMARK VINA RESULT:      -7.4      0.000      0.000
REMARK  Name = 
REMARK  7 active torsions:
REMARK  status: ('A' for Active; 'I' for Inactive)
REMARK    1  A    between atoms: C_1  and  C_2
REMARK    2  A    between atoms: C_2  and  C_4
REMARK    3  A    between atoms: C_4  and  C_5
REMARK    4  A    between atoms: C_14  and  C_16
REMARK    5  A    between atoms: C_16  and  N_17
REMARK    6  A    between atoms: C_16  and  C_18
REMARK    7  A    between atoms: C_18  and  C_19
REMARK                            x       y       z     vdW  Elec       q    Type
REMARK                         _______ _______ _______ _____ _____    ______ ____
ROOT
ATOM      1  C   UNL     1      -0.039  10.186  19.018  0.00  0.00    +0.000 C 
ATOM      2  C   UNL     1      -0.207   9.219  20.239  0.00  0.00    +0.000 C 
ATOM      3  C   UNL     1       1.135   8.720  20.788  0.00  0.00    +0.000 C 
ATOM      4  N   UNL     1       1.891   8.063  19.732  0.00  0.00    +0.000 N 
ATOM      5  C   UNL     1       2.188   6.706  19.847  0.00  0.00    +0.000 C 
ATOM      6  O   UNL     1       1.955   6.088  20.891  0.00  0.00    +0.000 OA
ATOM      7  C   UNL     1       2.189   8.919  18.598  0.00  0.00    +0.000 C 
ATOM      8  C   UNL     1       0.907   9.484  17.996  0.00  0.00    +0.000 C 
ENDROOT
BRANCH   1   9
ATOM      9  C   UNL     1      -1.404  10.511  18.351  0.00  0.00    +0.000 A 
ATOM     10  C   UNL     1      -1.780   9.928  17.122  0.00  0.00    +0.000 A 
ATOM     11  C   UNL     1      -3.008  10.214  16.517  0.00  0.00    +0.000 A 
ATOM     12  C   UNL     1      -3.891  11.099  17.118  0.00  0.00    +0.000 A 
ATOM     13  C   UNL     1      -3.538  11.711  18.320  0.00  0.00    +0.000 A 
ATOM     14  C   UNL     1      -2.308  11.425  18.921  0.00  0.00    +0.000 A 
ENDBRANCH   1   9
BRANCH   1  16
ATOM     15  C   UNL     1       1.243  12.463  18.607  0.00  0.00    +0.000 C 
ATOM     16  C   UNL     1       0.547  11.523  19.561  0.00  0.00    +0.000 C 
ATOM     17  O   UNL     1       0.449  11.841  20.749  0.00  0.00    +0.000 OA
ENDBRANCH   1  16
BRANCH   5  18
ATOM     18  C   UNL     1       2.935   6.009  18.678  0.00  0.00    +0.000 C 
BRANCH  18  19
ATOM     19  N   UNL     1       4.039   5.194  19.257  0.00  0.00    +0.000 NA
ATOM     20  H   UNL     1       4.809   5.196  18.584  0.00  0.00    +0.000 HD
ATOM     21  H   UNL     1       3.733   4.223  19.312  0.00  0.00    +0.000 HD
ENDBRANCH  18  19
BRANCH  18  22
ATOM     22  C   UNL     1       1.985   5.109  17.873  0.00  0.00    +0.000 C 
BRANCH  22  23
ATOM     23  C   UNL     1       2.206   3.656  18.140  0.00  0.00    +0.000 A 
ATOM     24  C   UNL     1       1.465   2.805  18.929  0.00  0.00    +0.000 A 
ATOM     25  N   UNL     1       2.087   1.594  18.837  0.00  0.00    +0.000 N 
ATOM     26  C   UNL     1       3.162   1.746  18.011  0.00  0.00    +0.000 A 
ATOM     27  N   UNL     1       3.259   2.978  17.565  0.00  0.00    +0.000 NA
ATOM     28  H   UNL     1       1.805   0.738  19.296  0.00  0.00    +0.000 HD
ENDBRANCH  22  23
ENDBRANCH  18  22
ENDBRANCH   5  18
TORSDOF 6
ENDMDL
MODEL 2
REMARK VINA RESULT:      -7.4      0.932      1.427
REMARK  Name = 
REMARK  7 active torsions:
REMARK  status: ('A' for Active; 'I' for Inactive)
REMARK    1  A    between atoms: C_1  and  C_2
REMARK    2  A    between atoms: C_2  and  C_4
REMARK    3  A    between atoms: C_4  and  C_5
REMARK    4  A    between atoms: C_14  and  C_16
REMARK    5  A    between atoms: C_16  and  N_17
REMARK    6  A    between atoms: C_16  and  C_18
REMARK    7  A    between atoms: C_18  and  C_19
REMARK                            x       y       z     vdW  Elec       q    Type
REMARK                         _______ _______ _______ _____ _____    ______ ____
ROOT
ATOM      1  C   UNL     1       0.256  10.118  19.105  0.00  0.00    +0.000 C 
ATOM      2  C   UNL     1       0.132   9.183  20.355  0.00  0.00    +0.000 C 
ATOM      3  C   UNL     1       1.466   8.536  20.746  0.00  0.00    +0.000 C 
ATOM      4  N   UNL     1       2.007   7.791  19.619  0.00  0.00    +0.000 N 
ATOM      5  C   UNL     1       2.160   6.409  19.723  0.00  0.00    +0.000 C 
ATOM      6  O   UNL     1       1.989   5.827  20.800  0.00  0.00    +0.000 OA
ATOM      7  C   UNL     1       2.258   8.601  18.442  0.00  0.00    +0.000 C 
ATOM      8  C   UNL     1       0.984   9.307  17.989  0.00  0.00    +0.000 C 
ENDROOT
BRANCH   1   9
ATOM      9  C   UNL     1      -1.135  10.594  18.603  0.00  0.00    +0.000 A 
ATOM     10  C   UNL     1      -1.898  11.532  19.328  0.00  0.00    +0.000 A 
ATOM     11  C   UNL     1      -3.150  11.966  18.880  0.00  0.00    +0.000 A 
ATOM     12  C   UNL     1      -3.679  11.466  17.699  0.00  0.00    +0.000 A 
ATOM     13  C   UNL     1      -2.960  10.518  16.972  0.00  0.00    +0.000 A 
ATOM     14  C   UNL     1      -1.710  10.084  17.424  0.00  0.00    +0.000 A 
ENDBRANCH   1   9
BRANCH   1  16
ATOM     15  C   UNL     1       1.721  12.235  18.496  0.00  0.00    +0.000 C 
ATOM     16  C   UNL     1       1.052  11.382  19.546  0.00  0.00    +0.000 C 
ATOM     17  O   UNL     1       1.143  11.711  20.733  0.00  0.00    +0.000 OA
ENDBRANCH   1  16
BRANCH   5  18
ATOM     18  C   UNL     1       2.674   5.626  18.486  0.00  0.00    +0.000 C 
BRANCH  18  19
ATOM     19  N   UNL     1       4.152   5.486  18.609  0.00  0.00    +0.000 NA
ATOM     20  H   UNL     1       4.340   4.902  19.426  0.00  0.00    +0.000 HD
ATOM     21  H   UNL     1       4.548   6.399  18.834  0.00  0.00    +0.000 HD
ENDBRANCH  18  19
BRANCH  18  22
ATOM     22  C   UNL     1       2.022   4.236  18.402  0.00  0.00    +0.000 C 
BRANCH  22  23
ATOM     23  C   UNL     1       2.974   3.134  18.730  0.00  0.00    +0.000 A 
ATOM     24  C   UNL     1       3.439   2.128  17.912  0.00  0.00    +0.000 A 
ATOM     25  N   UNL     1       4.277   1.386  18.692  0.00  0.00    +0.000 N 
ATOM     26  C   UNL     1       4.296   1.954  19.932  0.00  0.00    +0.000 A 
ATOM     27  N   UNL     1       3.526   3.017  19.987  0.00  0.00    +0.000 NA
ATOM     28  H   UNL     1       4.794   0.564  18.407  0.00  0.00    +0.000 HD
ENDBRANCH  22  23
ENDBRANCH  18  22
ENDBRANCH   5  18
TORSDOF 6
ENDMDL
MODEL 3
REMARK VINA RESULT:      -7.3      0.526      1.231
REMARK  Name = 
REMARK  7 active torsions:
REMARK  status: ('A' for Active; 'I' for Inactive)
REMARK    1  A    between atoms: C_1  and  C_2
REMARK    2  A    between atoms: C_2  and  C_4
REMARK    3  A    between atoms: C_4  and  C_5
REMARK    4  A    between atoms: C_14  and  C_16
REMARK    5  A    between atoms: C_16  and  N_17
REMARK    6  A    between atoms: C_16  and  C_18
REMARK    7  A    between atoms: C_18  and  C_19
REMARK                            x       y       z     vdW  Elec       q    Type
REMARK                         _______ _______ _______ _____ _____    ______ ____
ROOT
ATOM      1  C   UNL     1      -0.137  10.269  18.960  0.00  0.00    +0.000 C 
ATOM      2  C   UNL     1      -0.314   9.336  20.206  0.00  0.00    +0.000 C 
ATOM      3  C   UNL     1       1.024   8.872  20.794  0.00  0.00    +0.000 C 
ATOM      4  N   UNL     1       1.808   8.194  19.773  0.00  0.00    +0.000 N 
ATOM      5  C   UNL     1       2.121   6.845  19.933  0.00  0.00    +0.000 C 
ATOM      6  O   UNL     1       1.877   6.256  20.992  0.00  0.00    +0.000 OA
ATOM      7  C   UNL     1       2.115   9.020  18.619  0.00  0.00    +0.000 C 
ATOM      8  C   UNL     1       0.837   9.549  17.976  0.00  0.00    +0.000 C 
ENDROOT
BRANCH   1   9
ATOM      9  C   UNL     1      -1.494  10.554  18.259  0.00  0.00    +0.000 A 
ATOM     10  C   UNL     1      -2.443  11.434  18.821  0.00  0.00    +0.000 A 
ATOM     11  C   UNL     1      -3.664  11.697  18.193  0.00  0.00    +0.000 A 
ATOM     12  C   UNL     1      -3.977  11.079  16.991  0.00  0.00    +0.000 A 
ATOM     13  C   UNL     1      -3.071  10.185  16.423  0.00  0.00    +0.000 A 
ATOM     14  C   UNL     1      -1.851   9.922  17.054  0.00  0.00    +0.000 A 
ENDBRANCH   1   9
BRANCH   1  16
ATOM     15  C   UNL     1       1.094  12.563  18.497  0.00  0.00    +0.000 C 
ATOM     16  C   UNL     1       0.421  11.629  19.472  0.00  0.00    +0.000 C 
ATOM     17  O   UNL     1       0.320  11.969  20.655  0.00  0.00    +0.000 OA
ENDBRANCH   1  16
BRANCH   5  18
ATOM     18  C   UNL     1       2.899   6.125  18.800  0.00  0.00    +0.000 C 
BRANCH  18  19
ATOM     19  N   UNL     1       3.909   5.230  19.430  0.00  0.00    +0.000 NA
ATOM     20  H   UNL     1       4.191   4.541  18.729  0.00  0.00    +0.000 HD
ATOM     21  H   UNL     1       3.454   4.692  20.167  0.00  0.00    +0.000 HD
ENDBRANCH  18  19
BRANCH  18  22
ATOM     22  C   UNL     1       1.949   5.301  17.915  0.00  0.00    +0.000 C 
BRANCH  22  23
ATOM     23  C   UNL     1       2.022   3.838  18.200  0.00  0.00    +0.000 A 
ATOM     24  C   UNL     1       2.564   2.837  17.424  0.00  0.00    +0.000 A 
ATOM     25  N   UNL     1       2.372   1.687  18.132  0.00  0.00    +0.000 N 
ATOM     26  C   UNL     1       1.734   2.019  19.291  0.00  0.00    +0.000 A 
ATOM     27  N   UNL     1       1.515   3.312  19.368  0.00  0.00    +0.000 NA
ATOM     28  H   UNL     1       2.651   0.756  17.852  0.00  0.00    +0.000 HD
ENDBRANCH  22  23
ENDBRANCH  18  22
ENDBRANCH   5  18
TORSDOF 6
ENDMDL
MODEL 4
REMARK VINA RESULT:      -7.0      3.408      6.240
REMARK  Name = 
REMARK  7 active torsions:
REMARK  status: ('A' for Active; 'I' for Inactive)
REMARK    1  A    between atoms: C_1  and  C_2
REMARK    2  A    between atoms: C_2  and  C_4
REMARK    3  A    between atoms: C_4  and  C_5
REMARK    4  A    between atoms: C_14  and  C_16
REMARK    5  A    between atoms: C_16  and  N_17
REMARK    6  A    between atoms: C_16  and  C_18
REMARK    7  A    between atoms: C_18  and  C_19
REMARK                            x       y       z     vdW  Elec       q    Type
REMARK                         _______ _______ _______ _____ _____    ______ ____
ROOT
ATOM      1  C   UNL     1       2.521   5.785  19.551  0.00  0.00    +0.000 C 
ATOM      2  C   UNL     1       2.181   5.290  18.105  0.00  0.00    +0.000 C 
ATOM      3  C   UNL     1       3.009   4.069  17.686  0.00  0.00    +0.000 C 
ATOM      4  N   UNL     1       4.429   4.372  17.788  0.00  0.00    +0.000 N 
ATOM      5  C   UNL     1       5.214   4.365  16.636  0.00  0.00    +0.000 C 
ATOM      6  O   UNL     1       4.762   3.962  15.558  0.00  0.00    +0.000 OA
ATOM      7  C   UNL     1       4.860   4.739  19.124  0.00  0.00    +0.000 C 
ATOM      8  C   UNL     1       4.071   5.939  19.637  0.00  0.00    +0.000 C 
ENDROOT
BRANCH   1   9
ATOM      9  C   UNL     1       1.828   7.138  19.873  0.00  0.00    +0.000 A 
ATOM     10  C   UNL     1       1.156   7.348  21.095  0.00  0.00    +0.000 A 
ATOM     11  C   UNL     1       0.533   8.564  21.392  0.00  0.00    +0.000 A 
ATOM     12  C   UNL     1       0.555   9.601  20.471  0.00  0.00    +0.000 A 
ATOM     13  C   UNL     1       1.190   9.416  19.244  0.00  0.00    +0.000 A 
ATOM     14  C   UNL     1       1.810   8.198  18.949  0.00  0.00    +0.000 A 
ENDBRANCH   1   9
BRANCH   1  16
ATOM     15  C   UNL     1       0.733   3.939  20.176  0.00  0.00    +0.000 C 
ATOM     16  C   UNL     1       1.966   4.725  20.548  0.00  0.00    +0.000 C 
ATOM     17  O   UNL     1       2.513   4.504  21.633  0.00  0.00    +0.000 OA
ENDBRANCH   1  16
BRANCH   5  18
ATOM     18  C   UNL     1       6.710   4.758  16.756  0.00  0.00    +0.000 C 
BRANCH  18  19
ATOM     19  N   UNL     1       7.502   3.825  15.908  0.00  0.00    +0.000 NA
ATOM     20  H   UNL     1       8.479   3.895  16.202  0.00  0.00    +0.000 HD
ATOM     21  H   UNL     1       7.486   4.165  14.947  0.00  0.00    +0.000 HD
ENDBRANCH  18  19
BRANCH  18  22
ATOM     22  C   UNL     1       6.940   6.207  16.297  0.00  0.00    +0.000 C 
BRANCH  22  23
ATOM     23  C   UNL     1       7.588   7.047  17.347  0.00  0.00    +0.000 A 
ATOM     24  C   UNL     1       8.079   6.661  18.574  0.00  0.00    +0.000 A 
ATOM     25  N   UNL     1       8.562   7.801  19.146  0.00  0.00    +0.000 N 
ATOM     26  C   UNL     1       8.354   8.822  18.266  0.00  0.00    +0.000 A 
ATOM     27  N   UNL     1       7.775   8.400  17.165  0.00  0.00    +0.000 NA
ATOM     28  H   UNL     1       8.996   7.880  20.057  0.00  0.00    +0.000 HD
ENDBRANCH  22  23
ENDBRANCH  18  22
ENDBRANCH   5  18
TORSDOF 6
ENDMDL
MODEL 5
REMARK VINA RESULT:      -6.9      3.281      6.140
REMARK  Name = 
REMARK  7 active torsions:
REMARK  status: ('A' for Active; 'I' for Inactive)
REMARK    1  A    between atoms: C_1  and  C_2
REMARK    2  A    between atoms: C_2  and  C_4
REMARK    3  A    between atoms: C_4  and  C_5
REMARK    4  A    between atoms: C_14  and  C_16
REMARK    5  A    between atoms: C_16  and  N_17
REMARK    6  A    between atoms: C_16  and  C_18
REMARK    7  A    between atoms: C_18  and  C_19
REMARK                            x       y       z     vdW  Elec       q    Type
REMARK                         _______ _______ _______ _____ _____    ______ ____
ROOT
ATOM      1  C   UNL     1       2.475   5.673  19.480  0.00  0.00    +0.000 C 
ATOM      2  C   UNL     1       1.990   5.190  18.072  0.00  0.00    +0.000 C 
ATOM      3  C   UNL     1       2.732   3.939  17.586  0.00  0.00    +0.000 C 
ATOM      4  N   UNL     1       4.165   4.189  17.560  0.00  0.00    +0.000 N 
ATOM      5  C   UNL     1       4.844   4.153  16.343  0.00  0.00    +0.000 C 
ATOM      6  O   UNL     1       4.284   3.766  15.312  0.00  0.00    +0.000 OA
ATOM      7  C   UNL     1       4.727   4.540  18.852  0.00  0.00    +0.000 C 
ATOM      8  C   UNL     1       4.032   5.770  19.428  0.00  0.00    +0.000 C 
ENDROOT
BRANCH   1   9
ATOM      9  C   UNL     1       1.864   7.051  19.857  0.00  0.00    +0.000 A 
ATOM     10  C   UNL     1       1.872   8.132  18.950  0.00  0.00    +0.000 A 
ATOM     11  C   UNL     1       1.321   9.374  19.283  0.00  0.00    +0.000 A 
ATOM     12  C   UNL     1       0.758   9.574  20.534  0.00  0.00    +0.000 A 
ATOM     13  C   UNL     1       0.758   8.533  21.462  0.00  0.00    +0.000 A 
ATOM     14  C   UNL     1       1.312   7.292  21.128  0.00  0.00    +0.000 A 
ENDBRANCH   1   9
BRANCH   1  16
ATOM     15  C   UNL     1       0.721   3.843  20.235  0.00  0.00    +0.000 C 
ATOM     16  C   UNL     1       1.972   4.635  20.527  0.00  0.00    +0.000 C 
ATOM     17  O   UNL     1       2.574   4.435  21.586  0.00  0.00    +0.000 OA
ENDBRANCH   1  16
BRANCH   5  18
ATOM     18  C   UNL     1       6.359   4.490  16.329  0.00  0.00    +0.000 C 
BRANCH  18  19
ATOM     19  N   UNL     1       6.997   3.702  15.239  0.00  0.00    +0.000 NA
ATOM     20  H   UNL     1       7.362   2.841  15.653  0.00  0.00    +0.000 HD
ATOM     21  H   UNL     1       7.818   4.208  14.908  0.00  0.00    +0.000 HD
ENDBRANCH  18  19
BRANCH  18  22
ATOM     22  C   UNL     1       6.589   5.992  16.094  0.00  0.00    +0.000 C 
BRANCH  22  23
ATOM     23  C   UNL     1       7.329   6.642  17.216  0.00  0.00    +0.000 A 
ATOM     24  C   UNL     1       7.781   6.079  18.388  0.00  0.00    +0.000 A 
ATOM     25  N   UNL     1       8.387   7.095  19.068  0.00  0.00    +0.000 N 
ATOM     26  C   UNL     1       8.286   8.219  18.302  0.00  0.00    +0.000 A 
ATOM     27  N   UNL     1       7.660   7.979  17.172  0.00  0.00    +0.000 NA
ATOM     28  H   UNL     1       8.831   7.030  19.974  0.00  0.00    +0.000 HD
ENDBRANCH  22  23
ENDBRANCH  18  22
ENDBRANCH   5  18
TORSDOF 6
ENDMDL
MODEL 6
REMARK VINA RESULT:      -6.6      0.921      1.076
REMARK  Name = 
REMARK  7 active torsions:
REMARK  status: ('A' for Active; 'I' for Inactive)
REMARK    1  A    between atoms: C_1  and  C_2
REMARK    2  A    between atoms: C_2  and  C_4
REMARK    3  A    between atoms: C_4  and  C_5
REMARK    4  A    between atoms: C_14  and  C_16
REMARK    5  A    between atoms: C_16  and  N_17
REMARK    6  A    between atoms: C_16  and  C_18
REMARK    7  A    between atoms: C_18  and  C_19
REMARK                            x       y       z     vdW  Elec       q    Type
REMARK                         _______ _______ _______ _____ _____    ______ ____
ROOT
ATOM      1  C   UNL     1      -0.426  10.487  18.912  0.00  0.00    +0.000 C 
ATOM      2  C   UNL     1      -0.633   9.550  20.150  0.00  0.00    +0.000 C 
ATOM      3  C   UNL     1       0.687   9.162  20.827  0.00  0.00    +0.000 C 
ATOM      4  N   UNL     1       1.572   8.525  19.863  0.00  0.00    +0.000 N 
ATOM      5  C   UNL     1       1.947   7.196  20.053  0.00  0.00    +0.000 C 
ATOM      6  O   UNL     1       1.667   6.597  21.098  0.00  0.00    +0.000 OA
ATOM      7  C   UNL     1       1.909   9.363  18.727  0.00  0.00    +0.000 C 
ATOM      8  C   UNL     1       0.648   9.819  17.999  0.00  0.00    +0.000 C 
ENDROOT
BRANCH   1   9
ATOM      9  C   UNL     1      -1.747  10.696  18.122  0.00  0.00    +0.000 A 
ATOM     10  C   UNL     1      -1.987  10.031  16.901  0.00  0.00    +0.000 A 
ATOM     11  C   UNL     1      -3.176  10.212  16.186  0.00  0.00    +0.000 A 
ATOM     12  C   UNL     1      -4.153  11.072  16.666  0.00  0.00    +0.000 A 
ATOM     13  C   UNL     1      -3.935  11.762  17.857  0.00  0.00    +0.000 A 
ATOM     14  C   UNL     1      -2.745  11.581  18.569  0.00  0.00    +0.000 A 
ENDBRANCH   1   9
BRANCH   1  16
ATOM     15  C   UNL     1       0.696  12.848  18.512  0.00  0.00    +0.000 C 
ATOM     16  C   UNL     1       0.022  11.878  19.450  0.00  0.00    +0.000 C 
ATOM     17  O   UNL     1      -0.167  12.213  20.623  0.00  0.00    +0.000 OA
ENDBRANCH   1  16
BRANCH   5  18
ATOM     18  C   UNL     1       2.835   6.515  18.978  0.00  0.00    +0.000 C 
BRANCH  18  19
ATOM     19  N   UNL     1       4.104   6.087  19.630  0.00  0.00    +0.000 NA
ATOM     20  H   UNL     1       4.807   6.804  19.436  0.00  0.00    +0.000 HD
ATOM     21  H   UNL     1       4.442   5.245  19.165  0.00  0.00    +0.000 HD
ENDBRANCH  18  19
BRANCH  18  22
ATOM     22  C   UNL     1       2.125   5.298  18.364  0.00  0.00    +0.000 C 
BRANCH  22  23
ATOM     23  C   UNL     1       3.081   4.262  17.872  0.00  0.00    +0.000 A 
ATOM     24  C   UNL     1       3.089   2.909  18.128  0.00  0.00    +0.000 A 
ATOM     25  N   UNL     1       4.165   2.419  17.448  0.00  0.00    +0.000 N 
ATOM     26  C   UNL     1       4.763   3.468  16.814  0.00  0.00    +0.000 A 
ATOM     27  N   UNL     1       4.129   4.596  17.042  0.00  0.00    +0.000 NA
ATOM     28  H   UNL     1       4.468   1.454  17.417  0.00  0.00    +0.000 HD
ENDBRANCH  22  23
ENDBRANCH  18  22
ENDBRANCH   5  18
TORSDOF 6
ENDMDL
MODEL 7
REMARK VINA RESULT:      -6.6      1.752      2.331
REMARK  Name = 
REMARK  7 active torsions:
REMARK  status: ('A' for Active; 'I' for Inactive)
REMARK    1  A    between atoms: C_1  and  C_2
REMARK    2  A    between atoms: C_2  and  C_4
REMARK    3  A    between atoms: C_4  and  C_5
REMARK    4  A    between atoms: C_14  and  C_16
REMARK    5  A    between atoms: C_16  and  N_17
REMARK    6  A    between atoms: C_16  and  C_18
REMARK    7  A    between atoms: C_18  and  C_19
REMARK                            x       y       z     vdW  Elec       q    Type
REMARK                         _______ _______ _______ _____ _____    ______ ____
ROOT
ATOM      1  C   UNL     1       0.274  10.150  19.032  0.00  0.00    +0.000 C 
ATOM      2  C   UNL     1       0.247   9.068  20.164  0.00  0.00    +0.000 C 
ATOM      3  C   UNL     1       1.633   8.482  20.457  0.00  0.00    +0.000 C 
ATOM      4  N   UNL     1       2.201   7.916  19.243  0.00  0.00    +0.000 N 
ATOM      5  C   UNL     1       2.457   6.547  19.180  0.00  0.00    +0.000 C 
ATOM      6  O   UNL     1       2.353   5.832  20.183  0.00  0.00    +0.000 OA
ATOM      7  C   UNL     1       2.365   8.875  18.166  0.00  0.00    +0.000 C 
ATOM      8  C   UNL     1       1.033   9.531  17.817  0.00  0.00    +0.000 C 
ENDROOT
BRANCH   1   9
ATOM      9  C   UNL     1      -1.159  10.575  18.609  0.00  0.00    +0.000 A 
ATOM     10  C   UNL     1      -1.892  11.529  19.346  0.00  0.00    +0.000 A 
ATOM     11  C   UNL     1      -3.181  11.918  18.969  0.00  0.00    +0.000 A 
ATOM     12  C   UNL     1      -3.779  11.356  17.851  0.00  0.00    +0.000 A 
ATOM     13  C   UNL     1      -3.091  10.392  17.115  0.00  0.00    +0.000 A 
ATOM     14  C   UNL     1      -1.802  10.003  17.496  0.00  0.00    +0.000 A 
ENDBRANCH   1   9
BRANCH   1  16
ATOM     15  C   UNL     1       1.575  12.422  18.657  0.00  0.00    +0.000 C 
ATOM     16  C   UNL     1       0.986  11.409  19.608  0.00  0.00    +0.000 C 
ATOM     17  O   UNL     1       1.074  11.607  20.824  0.00  0.00    +0.000 OA
ENDBRANCH   1  16
BRANCH   5  18
ATOM     18  C   UNL     1       2.998   5.954  17.852  0.00  0.00    +0.000 C 
BRANCH  18  19
ATOM     19  N   UNL     1       4.070   6.855  17.347  0.00  0.00    +0.000 NA
ATOM     20  H   UNL     1       4.405   7.410  18.138  0.00  0.00    +0.000 HD
ATOM     21  H   UNL     1       3.655   7.529  16.704  0.00  0.00    +0.000 HD
ENDBRANCH  18  19
BRANCH  18  22
ATOM     22  C   UNL     1       3.560   4.539  18.067  0.00  0.00    +0.000 C 
BRANCH  22  23
ATOM     23  C   UNL     1       5.040   4.474  17.878  0.00  0.00    +0.000 A 
ATOM     24  C   UNL     1       6.028   4.453  18.837  0.00  0.00    +0.000 A 
ATOM     25  N   UNL     1       7.202   4.394  18.144  0.00  0.00    +0.000 N 
ATOM     26  C   UNL     1       6.895   4.380  16.815  0.00  0.00    +0.000 A 
ATOM     27  N   UNL     1       5.597   4.419  16.619  0.00  0.00    +0.000 NA
ATOM     28  H   UNL     1       8.133   4.365  18.540  0.00  0.00    +0.000 HD
ENDBRANCH  22  23
ENDBRANCH  18  22
ENDBRANCH   5  18
TORSDOF 6
ENDMDL
MODEL 8
REMARK VINA RESULT:      -6.5      1.634      1.875
REMARK  Name = 
REMARK  7 active torsions:
REMARK  status: ('A' for Active; 'I' for Inactive)
REMARK    1  A    between atoms: C_1  and  C_2
REMARK    2  A    between atoms: C_2  and  C_4
REMARK    3  A    between atoms: C_4  and  C_5
REMARK    4  A    between atoms: C_14  and  C_16
REMARK    5  A    between atoms: C_16  and  N_17
REMARK    6  A    between atoms: C_16  and  C_18
REMARK    7  A    between atoms: C_18  and  C_19
REMARK                            x       y       z     vdW  Elec       q    Type
REMARK                         _______ _______ _______ _____ _____    ______ ____
ROOT
ATOM      1  C   UNL     1      -0.420  10.648  19.032  0.00  0.00    +0.000 C 
ATOM      2  C   UNL     1      -0.308   9.653  20.237  0.00  0.00    +0.000 C 
ATOM      3  C   UNL     1       1.136   9.220  20.515  0.00  0.00    +0.000 C 
ATOM      4  N   UNL     1       1.715   8.622  19.321  0.00  0.00    +0.000 N 
ATOM      5  C   UNL     1       2.096   7.281  19.343  0.00  0.00    +0.000 C 
ATOM      6  O   UNL     1       2.094   6.635  20.396  0.00  0.00    +0.000 OA
ATOM      7  C   UNL     1       1.753   9.511  18.174  0.00  0.00    +0.000 C 
ATOM      8  C   UNL     1       0.354  10.015  17.834  0.00  0.00    +0.000 C 
ENDROOT
BRANCH   1   9
ATOM      9  C   UNL     1      -1.900  10.908  18.637  0.00  0.00    +0.000 A 
ATOM     10  C   UNL     1      -2.494  10.256  17.536  0.00  0.00    +0.000 A 
ATOM     11  C   UNL     1      -3.826  10.484  17.177  0.00  0.00    +0.000 A 
ATOM     12  C   UNL     1      -4.600  11.379  17.901  0.00  0.00    +0.000 A 
ATOM     13  C   UNL     1      -4.035  12.058  18.980  0.00  0.00    +0.000 A 
ATOM     14  C   UNL     1      -2.701  11.830  19.336  0.00  0.00    +0.000 A 
ENDBRANCH   1   9
BRANCH   1  16
ATOM     15  C   UNL     1       0.589  13.023  18.451  0.00  0.00    +0.000 C 
ATOM     16  C   UNL     1       0.188  12.006  19.491  0.00  0.00    +0.000 C 
ATOM     17  O   UNL     1       0.342  12.278  20.685  0.00  0.00    +0.000 OA
ENDBRANCH   1  16
BRANCH   5  18
ATOM     18  C   UNL     1       2.647   6.646  18.039  0.00  0.00    +0.000 C 
BRANCH  18  19
ATOM     19  N   UNL     1       3.940   7.309  17.713  0.00  0.00    +0.000 NA
ATOM     20  H   UNL     1       4.681   6.613  17.828  0.00  0.00    +0.000 HD
ATOM     21  H   UNL     1       4.129   8.021  18.417  0.00  0.00    +0.000 HD
ENDBRANCH  18  19
BRANCH  18  22
ATOM     22  C   UNL     1       2.862   5.133  18.209  0.00  0.00    +0.000 C 
BRANCH  22  23
ATOM     23  C   UNL     1       4.284   4.728  18.004  0.00  0.00    +0.000 A 
ATOM     24  C   UNL     1       5.204   4.315  18.942  0.00  0.00    +0.000 A 
ATOM     25  N   UNL     1       6.349   4.068  18.242  0.00  0.00    +0.000 N 
ATOM     26  C   UNL     1       6.093   4.333  16.929  0.00  0.00    +0.000 A 
ATOM     27  N   UNL     1       4.852   4.726  16.748  0.00  0.00    +0.000 NA
ATOM     28  H   UNL     1       7.229   3.747  18.624  0.00  0.00    +0.000 HD
ENDBRANCH  22  23
ENDBRANCH  18  22
ENDBRANCH   5  18
TORSDOF 6
ENDMDL
MODEL 9
REMARK VINA RESULT:      -6.4      1.676      2.252
REMARK  Name = 
REMARK  7 active torsions:
REMARK  status: ('A' for Active; 'I' for Inactive)
REMARK    1  A    between atoms: C_1  and  C_2
REMARK    2  A    between atoms: C_2  and  C_4
REMARK    3  A    between atoms: C_4  and  C_5
REMARK    4  A    between atoms: C_14  and  C_16
REMARK    5  A    between atoms: C_16  and  N_17
REMARK    6  A    between atoms: C_16  and  C_18
REMARK    7  A    between atoms: C_18  and  C_19
REMARK                            x       y       z     vdW  Elec       q    Type
REMARK                         _______ _______ _______ _____ _____    ______ ____
ROOT
ATOM      1  C   UNL     1       0.358   9.947  19.072  0.00  0.00    +0.000 C 
ATOM      2  C   UNL     1       0.192   9.044  20.341  0.00  0.00    +0.000 C 
ATOM      3  C   UNL     1       1.511   8.402  20.788  0.00  0.00    +0.000 C 
ATOM      4  N   UNL     1       2.082   7.627  19.697  0.00  0.00    +0.000 N 
ATOM      5  C   UNL     1       2.227   6.248  19.840  0.00  0.00    +0.000 C 
ATOM      6  O   UNL     1       2.021   5.694  20.925  0.00  0.00    +0.000 OA
ATOM      7  C   UNL     1       2.373   8.407  18.508  0.00  0.00    +0.000 C 
ATOM      8  C   UNL     1       1.116   9.106  17.999  0.00  0.00    +0.000 C 
ENDROOT
BRANCH   1   9
ATOM      9  C   UNL     1      -1.015  10.415  18.516  0.00  0.00    +0.000 A 
ATOM     10  C   UNL     1      -1.530   9.907  17.305  0.00  0.00    +0.000 A 
ATOM     11  C   UNL     1      -2.767  10.321  16.800  0.00  0.00    +0.000 A 
ATOM     12  C   UNL     1      -3.518  11.265  17.485  0.00  0.00    +0.000 A 
ATOM     13  C   UNL     1      -3.025  11.805  18.672  0.00  0.00    +0.000 A 
ATOM     14  C   UNL     1      -1.786  11.390  19.173  0.00  0.00    +0.000 A 
ENDBRANCH   1   9
BRANCH   1  16
ATOM     15  C   UNL     1       1.865  12.032  18.458  0.00  0.00    +0.000 C 
ATOM     16  C   UNL     1       1.146  11.219  19.506  0.00  0.00    +0.000 C 
ATOM     17  O   UNL     1       1.190  11.585  20.684  0.00  0.00    +0.000 OA
ENDBRANCH   1  16
BRANCH   5  18
ATOM     18  C   UNL     1       2.775   5.432  18.639  0.00  0.00    +0.000 C 
BRANCH  18  19
ATOM     19  N   UNL     1       1.635   5.124  17.731  0.00  0.00    +0.000 NA
ATOM     20  H   UNL     1       2.012   4.629  16.920  0.00  0.00    +0.000 HD
ATOM     21  H   UNL     1       1.265   6.000  17.363  0.00  0.00    +0.000 HD
ENDBRANCH  18  19
BRANCH  18  22
ATOM     22  C   UNL     1       3.852   6.223  17.879  0.00  0.00    +0.000 C 
BRANCH  22  23
ATOM     23  C   UNL     1       5.179   5.541  17.887  0.00  0.00    +0.000 A 
ATOM     24  C   UNL     1       5.602   4.492  18.674  0.00  0.00    +0.000 A 
ATOM     25  N   UNL     1       6.889   4.249  18.292  0.00  0.00    +0.000 N 
ATOM     26  C   UNL     1       7.199   5.138  17.305  0.00  0.00    +0.000 A 
ATOM     27  N   UNL     1       6.186   5.928  17.030  0.00  0.00    +0.000 NA
ATOM     28  H   UNL     1       7.503   3.540  18.669  0.00  0.00    +0.000 HD
ENDBRANCH  22  23
ENDBRANCH  18  22
ENDBRANCH   5  18
TORSDOF 6
ENDMDL
