MODEL 1
REMARK VINA RESULT:      -7.9      0.000      0.000
REMARK  Name = 
REMARK  8 active torsions:
REMARK  status: ('A' for Active; 'I' for Inactive)
REMARK    1  A    between atoms: C_1  and  C_2
REMARK    2  A    between atoms: C_4  and  C_5
REMARK    3  A    between atoms: C_7  and  N_8
REMARK    4  A    between atoms: C_11  and  C_12
REMARK    5  A    between atoms: N_14  and  C_15
REMARK    6  A    between atoms: C_15  and  C_16
REMARK    7  A    between atoms: C_15  and  C_17
REMARK    8  A    between atoms: C_18  and  N_19
REMARK                            x       y       z     vdW  Elec       q    Type
REMARK                         _______ _______ _______ _____ _____    ______ ____
ROOT
ATOM      1  N   UNL     1       4.169   5.655  17.529  0.00  0.00    +0.000 N 
ATOM      2  N   UNL     1       4.325   6.826  16.858  0.00  0.00    +0.000 NA
ATOM      3  N   UNL     1       5.239   6.649  15.915  0.00  0.00    +0.000 NA
ATOM      4  C   UNL     1       5.602   5.322  15.904  0.00  0.00    +0.000 A 
ATOM      5  C   UNL     1       4.913   4.651  16.900  0.00  0.00    +0.000 A 
ENDROOT
BRANCH   1  12
ATOM      6  C   UNL     1       1.088   2.876  20.202  0.00  0.00    +0.000 C 
ATOM      7  C   UNL     1       1.717   4.209  19.924  0.00  0.00    +0.000 A 
ATOM      8  C   UNL     1       1.294   5.370  20.579  0.00  0.00    +0.000 A 
ATOM      9  C   UNL     1       1.890   6.610  20.302  0.00  0.00    +0.000 A 
ATOM     10  C   UNL     1       1.400   7.859  20.976  0.00  0.00    +0.000 C 
ATOM     11  C   UNL     1       2.911   6.687  19.344  0.00  0.00    +0.000 A 
ATOM     12  C   UNL     1       3.284   5.541  18.631  0.00  0.00    +0.000 A 
ATOM     13  C   UNL     1       2.723   4.302  18.958  0.00  0.00    +0.000 A 
ENDBRANCH   1  12
BRANCH   4  14
ATOM     14  C   UNL     1       6.506   4.764  14.906  0.00  0.00    +0.000 C 
ATOM     15  O   UNL     1       7.731   4.817  15.000  0.00  0.00    +0.000 OA
ATOM     16  N   UNL     1       5.847   4.148  13.861  0.00  0.00    +0.000 N 
ATOM     17  H   UNL     1       4.837   4.247  13.848  0.00  0.00    +0.000 HD
BRANCH  16  18
ATOM     18  C   UNL     1       6.521   3.571  12.714  0.00  0.00    +0.000 C 
ATOM     19  C   UNL     1       5.508   2.838  11.838  0.00  0.00    +0.000 C 
ATOM     20  C   UNL     1       7.241   4.654  11.915  0.00  0.00    +0.000 C 
ENDBRANCH  16  18
ENDBRANCH   4  14
BRANCH   5  21
ATOM     21  N   UNL     1       4.842   3.321  17.200  0.00  0.00    +0.000 N 
ATOM     22  H   UNL     1       4.331   2.716  16.549  0.00  0.00    +0.000 HD
ATOM     23  H   UNL     1       4.702   3.027  18.166  0.00  0.00    +0.000 HD
ENDBRANCH   5  21
TORSDOF 4
ENDMDL
MODEL 2
REMARK VINA RESULT:      -7.8      0.250      1.940
REMARK  Name = 
REMARK  8 active torsions:
REMARK  status: ('A' for Active; 'I' for Inactive)
REMARK    1  A    between atoms: C_1  and  C_2
REMARK    2  A    between atoms: C_4  and  C_5
REMARK    3  A    between atoms: C_7  and  N_8
REMARK    4  A    between atoms: C_11  and  C_12
REMARK    5  A    between atoms: N_14  and  C_15
REMARK    6  A    between atoms: C_15  and  C_16
REMARK    7  A    between atoms: C_15  and  C_17
REMARK    8  A    between atoms: C_18  and  N_19
REMARK                            x       y       z     vdW  Elec       q    Type
REMARK                         _______ _______ _______ _____ _____    ______ ____
ROOT
ATOM      1  N   UNL     1       4.089   5.700  17.554  0.00  0.00    +0.000 N 
ATOM      2  N   UNL     1       4.402   6.880  16.958  0.00  0.00    +0.000 NA
ATOM      3  N   UNL     1       5.371   6.662  16.081  0.00  0.00    +0.000 NA
ATOM      4  C   UNL     1       5.614   5.309  16.028  0.00  0.00    +0.000 A 
ATOM      5  C   UNL     1       4.790   4.660  16.933  0.00  0.00    +0.000 A 
ENDROOT
BRANCH   1  12
ATOM      6  C   UNL     1       1.380   7.979  20.994  0.00  0.00    +0.000 C 
ATOM      7  C   UNL     1       1.813   6.711  20.317  0.00  0.00    +0.000 A 
ATOM      8  C   UNL     1       1.444   5.455  20.809  0.00  0.00    +0.000 A 
ATOM      9  C   UNL     1       1.864   4.280  20.167  0.00  0.00    +0.000 A 
ATOM     10  C   UNL     1       1.501   2.934  20.726  0.00  0.00    +0.000 C 
ATOM     11  C   UNL     1       2.676   4.367  19.027  0.00  0.00    +0.000 A 
ATOM     12  C   UNL     1       3.111   5.620  18.577  0.00  0.00    +0.000 A 
ATOM     13  C   UNL     1       2.638   6.785  19.191  0.00  0.00    +0.000 A 
ENDBRANCH   1  12
BRANCH   4  14
ATOM     14  C   UNL     1       6.543   4.715  15.076  0.00  0.00    +0.000 C 
ATOM     15  O   UNL     1       7.752   4.619  15.281  0.00  0.00    +0.000 OA
ATOM     16  N   UNL     1       5.924   4.247  13.934  0.00  0.00    +0.000 N 
ATOM     17  H   UNL     1       4.937   4.462  13.839  0.00  0.00    +0.000 HD
BRANCH  16  18
ATOM     18  C   UNL     1       6.639   3.670  12.811  0.00  0.00    +0.000 C 
ATOM     19  C   UNL     1       5.667   2.883  11.935  0.00  0.00    +0.000 C 
ATOM     20  C   UNL     1       7.333   4.760  12.002  0.00  0.00    +0.000 C 
ENDBRANCH  16  18
ENDBRANCH   4  14
BRANCH   5  21
ATOM     21  N   UNL     1       4.578   3.330  17.158  0.00  0.00    +0.000 N 
ATOM     22  H   UNL     1       3.738   3.069  17.685  0.00  0.00    +0.000 HD
ATOM     23  H   UNL     1       5.365   2.725  17.389  0.00  0.00    +0.000 HD
ENDBRANCH   5  21
TORSDOF 4
ENDMDL
MODEL 3
REMARK VINA RESULT:      -7.5      4.079      7.471
REMARK  Name = 
REMARK  8 active torsions:
REMARK  status: ('A' for Active; 'I' for Inactive)
REMARK    1  A    between atoms: C_1  and  C_2
REMARK    2  A    between atoms: C_4  and  C_5
REMARK    3  A    between atoms: C_7  and  N_8
REMARK    4  A    between atoms: C_11  and  C_12
REMARK    5  A    between atoms: N_14  and  C_15
REMARK    6  A    between atoms: C_15  and  C_16
REMARK    7  A    between atoms: C_15  and  C_17
REMARK    8  A    between atoms: C_18  and  N_19
REMARK                            x       y       z     vdW  Elec       q    Type
REMARK                         _______ _______ _______ _____ _____    ______ ____
ROOT
ATOM      1  N   UNL     1       2.708   7.369  18.196  0.00  0.00    +0.000 N 
ATOM      2  N   UNL     1       2.765   8.229  17.146  0.00  0.00    +0.000 NA
ATOM      3  N   UNL     1       2.032   9.294  17.438  0.00  0.00    +0.000 NA
ATOM      4  C   UNL     1       1.584   9.172  18.733  0.00  0.00    +0.000 A 
ATOM      5  C   UNL     1       2.025   7.969  19.258  0.00  0.00    +0.000 A 
ENDROOT
BRANCH   1  12
ATOM      6  C   UNL     1       6.902   4.796  17.802  0.00  0.00    +0.000 C 
ATOM      7  C   UNL     1       5.406   4.823  17.909  0.00  0.00    +0.000 A 
ATOM      8  C   UNL     1       4.639   3.663  17.759  0.00  0.00    +0.000 A 
ATOM      9  C   UNL     1       3.240   3.708  17.855  0.00  0.00    +0.000 A 
ATOM     10  C   UNL     1       2.420   2.467  17.648  0.00  0.00    +0.000 C 
ATOM     11  C   UNL     1       2.602   4.935  18.088  0.00  0.00    +0.000 A 
ATOM     12  C   UNL     1       3.361   6.110  18.161  0.00  0.00    +0.000 A 
ATOM     13  C   UNL     1       4.758   6.043  18.122  0.00  0.00    +0.000 A 
ENDBRANCH   1  12
BRANCH   4  14
ATOM     14  C   UNL     1       0.845  10.230  19.411  0.00  0.00    +0.000 C 
ATOM     15  O   UNL     1       0.926  10.442  20.620  0.00  0.00    +0.000 OA
ATOM     16  N   UNL     1       0.069  10.984  18.554  0.00  0.00    +0.000 N 
ATOM     17  H   UNL     1       0.014  10.657  17.595  0.00  0.00    +0.000 HD
BRANCH  16  18
ATOM     18  C   UNL     1      -0.806  12.054  18.993  0.00  0.00    +0.000 C 
ATOM     19  C   UNL     1      -0.344  13.376  18.387  0.00  0.00    +0.000 C 
ATOM     20  C   UNL     1      -2.251  11.758  18.602  0.00  0.00    +0.000 C 
ENDBRANCH  16  18
ENDBRANCH   4  14
BRANCH   5  21
ATOM     21  N   UNL     1       1.942   7.459  20.523  0.00  0.00    +0.000 N 
ATOM     22  H   UNL     1       1.145   6.851  20.736  0.00  0.00    +0.000 HD
ATOM     23  H   UNL     1       2.186   8.045  21.320  0.00  0.00    +0.000 HD
ENDBRANCH   5  21
TORSDOF 4
ENDMDL
MODEL 4
REMARK VINA RESULT:      -7.3      4.139      8.012
REMARK  Name = 
REMARK  8 active torsions:
REMARK  status: ('A' for Active; 'I' for Inactive)
REMARK    1  A    between atoms: C_1  and  C_2
REMARK    2  A    between atoms: C_4  and  C_5
REMARK    3  A    between atoms: C_7  and  N_8
REMARK    4  A    between atoms: C_11  and  C_12
REMARK    5  A    between atoms: N_14  and  C_15
REMARK    6  A    between atoms: C_15  and  C_16
REMARK    7  A    between atoms: C_15  and  C_17
REMARK    8  A    between atoms: C_18  and  N_19
REMARK                            x       y       z     vdW  Elec       q    Type
REMARK                         _______ _______ _______ _____ _____    ______ ____
ROOT
ATOM      1  N   UNL     1       2.371   7.771  18.339  0.00  0.00    +0.000 N 
ATOM      2  N   UNL     1       2.193   8.789  17.457  0.00  0.00    +0.000 NA
ATOM      3  N   UNL     1       1.452   9.721  18.039  0.00  0.00    +0.000 NA
ATOM      4  C   UNL     1       1.237   9.353  19.347  0.00  0.00    +0.000 A 
ATOM      5  C   UNL     1       1.837   8.128  19.582  0.00  0.00    +0.000 A 
ENDROOT
BRANCH   1  12
ATOM      6  C   UNL     1       6.407   5.727  16.367  0.00  0.00    +0.000 C 
ATOM      7  C   UNL     1       5.041   5.574  16.967  0.00  0.00    +0.000 A 
ATOM      8  C   UNL     1       4.383   4.340  16.987  0.00  0.00    +0.000 A 
ATOM      9  C   UNL     1       3.102   4.216  17.546  0.00  0.00    +0.000 A 
ATOM     10  C   UNL     1       2.384   2.898  17.525  0.00  0.00    +0.000 C 
ATOM     11  C   UNL     1       2.468   5.349  18.077  0.00  0.00    +0.000 A 
ATOM     12  C   UNL     1       3.090   6.600  17.989  0.00  0.00    +0.000 A 
ATOM     13  C   UNL     1       4.391   6.699  17.482  0.00  0.00    +0.000 A 
ENDBRANCH   1  12
BRANCH   4  14
ATOM     14  C   UNL     1       0.554  10.216  20.303  0.00  0.00    +0.000 C 
ATOM     15  O   UNL     1       0.727  10.148  21.518  0.00  0.00    +0.000 OA
ATOM     16  N   UNL     1      -0.285  11.133  19.702  0.00  0.00    +0.000 N 
ATOM     17  H   UNL     1      -0.414  11.034  18.700  0.00  0.00    +0.000 HD
BRANCH  16  18
ATOM     18  C   UNL     1      -1.122  12.061  20.439  0.00  0.00    +0.000 C 
ATOM     19  C   UNL     1      -0.393  13.392  20.601  0.00  0.00    +0.000 C 
ATOM     20  C   UNL     1      -2.456  12.260  19.727  0.00  0.00    +0.000 C 
ENDBRANCH  16  18
ENDBRANCH   4  14
BRANCH   5  21
ATOM     21  N   UNL     1       2.003   7.418  20.737  0.00  0.00    +0.000 N 
ATOM     22  H   UNL     1       1.302   6.703  20.956  0.00  0.00    +0.000 HD
ATOM     23  H   UNL     1       2.325   7.893  21.580  0.00  0.00    +0.000 HD
ENDBRANCH   5  21
TORSDOF 4
ENDMDL
MODEL 5
REMARK VINA RESULT:      -7.3      4.258      7.530
REMARK  Name = 
REMARK  8 active torsions:
REMARK  status: ('A' for Active; 'I' for Inactive)
REMARK    1  A    between atoms: C_1  and  C_2
REMARK    2  A    between atoms: C_4  and  C_5
REMARK    3  A    between atoms: C_7  and  N_8
REMARK    4  A    between atoms: C_11  and  C_12
REMARK    5  A    between atoms: N_14  and  C_15
REMARK    6  A    between atoms: C_15  and  C_16
REMARK    7  A    between atoms: C_15  and  C_17
REMARK    8  A    between atoms: C_18  and  N_19
REMARK                            x       y       z     vdW  Elec       q    Type
REMARK                         _______ _______ _______ _____ _____    ______ ____
ROOT
ATOM      1  N   UNL     1       2.454   7.562  18.257  0.00  0.00    +0.000 N 
ATOM      2  N   UNL     1       2.470   8.485  17.260  0.00  0.00    +0.000 NA
ATOM      3  N   UNL     1       1.822   9.563  17.679  0.00  0.00    +0.000 NA
ATOM      4  C   UNL     1       1.476   9.378  18.997  0.00  0.00    +0.000 A 
ATOM      5  C   UNL     1       1.893   8.123  19.409  0.00  0.00    +0.000 A 
ENDROOT
BRANCH   1  12
ATOM      6  C   UNL     1       1.890   2.660  18.115  0.00  0.00    +0.000 C 
ATOM      7  C   UNL     1       2.788   3.861  18.077  0.00  0.00    +0.000 A 
ATOM      8  C   UNL     1       4.181   3.735  18.098  0.00  0.00    +0.000 A 
ATOM      9  C   UNL     1       5.006   4.869  18.069  0.00  0.00    +0.000 A 
ATOM     10  C   UNL     1       6.500   4.728  18.138  0.00  0.00    +0.000 C 
ATOM     11  C   UNL     1       4.426   6.146  18.034  0.00  0.00    +0.000 A 
ATOM     12  C   UNL     1       3.033   6.278  18.090  0.00  0.00    +0.000 A 
ATOM     13  C   UNL     1       2.221   5.139  18.060  0.00  0.00    +0.000 A 
ENDBRANCH   1  12
BRANCH   4  14
ATOM     14  C   UNL     1       0.853  10.424  19.799  0.00  0.00    +0.000 C 
ATOM     15  O   UNL     1       0.886  10.442  21.029  0.00  0.00    +0.000 OA
ATOM     16  N   UNL     1       0.247  11.403  19.038  0.00  0.00    +0.000 N 
ATOM     17  H   UNL     1       0.208  11.232  18.038  0.00  0.00    +0.000 HD
BRANCH  16  18
ATOM     18  C   UNL     1      -0.493  12.516  19.600  0.00  0.00    +0.000 C 
ATOM     19  C   UNL     1      -0.325  13.746  18.711  0.00  0.00    +0.000 C 
ATOM     20  C   UNL     1      -1.968  12.156  19.750  0.00  0.00    +0.000 C 
ENDBRANCH  16  18
ENDBRANCH   4  14
BRANCH   5  21
ATOM     21  N   UNL     1       1.888   7.537  20.642  0.00  0.00    +0.000 N 
ATOM     22  H   UNL     1       1.298   7.962  21.364  0.00  0.00    +0.000 HD
ATOM     23  H   UNL     1       2.758   7.180  21.035  0.00  0.00    +0.000 HD
ENDBRANCH   5  21
TORSDOF 4
ENDMDL
MODEL 6
REMARK VINA RESULT:      -7.2      2.774      4.801
REMARK  Name = 
REMARK  8 active torsions:
REMARK  status: ('A' for Active; 'I' for Inactive)
REMARK    1  A    between atoms: C_1  and  C_2
REMARK    2  A    between atoms: C_4  and  C_5
REMARK    3  A    between atoms: C_7  and  N_8
REMARK    4  A    between atoms: C_11  and  C_12
REMARK    5  A    between atoms: N_14  and  C_15
REMARK    6  A    between atoms: C_15  and  C_16
REMARK    7  A    between atoms: C_15  and  C_17
REMARK    8  A    between atoms: C_18  and  N_19
REMARK                            x       y       z     vdW  Elec       q    Type
REMARK                         _______ _______ _______ _____ _____    ______ ____
ROOT
ATOM      1  N   UNL     1       2.074   8.093  19.121  0.00  0.00    +0.000 N 
ATOM      2  N   UNL     1       2.588   8.457  17.917  0.00  0.00    +0.000 NA
ATOM      3  N   UNL     1       3.480   7.548  17.551  0.00  0.00    +0.000 NA
ATOM      4  C   UNL     1       3.467   6.529  18.474  0.00  0.00    +0.000 A 
ATOM      5  C   UNL     1       2.557   6.829  19.474  0.00  0.00    +0.000 A 
ENDROOT
BRANCH   1  12
ATOM      6  C   UNL     1      -1.000  11.954  19.053  0.00  0.00    +0.000 C 
ATOM      7  C   UNL     1      -0.352  10.828  19.804  0.00  0.00    +0.000 A 
ATOM      8  C   UNL     1      -0.501  10.690  21.188  0.00  0.00    +0.000 A 
ATOM      9  C   UNL     1       0.118   9.635  21.876  0.00  0.00    +0.000 A 
ATOM     10  C   UNL     1      -0.009   9.519  23.368  0.00  0.00    +0.000 C 
ATOM     11  C   UNL     1       0.908   8.717  21.168  0.00  0.00    +0.000 A 
ATOM     12  C   UNL     1       1.121   8.897  19.796  0.00  0.00    +0.000 A 
ATOM     13  C   UNL     1       0.452   9.918  19.112  0.00  0.00    +0.000 A 
ENDBRANCH   1  12
BRANCH   4  14
ATOM     14  C   UNL     1       4.249   5.310  18.309  0.00  0.00    +0.000 C 
ATOM     15  O   UNL     1       4.178   4.352  19.078  0.00  0.00    +0.000 OA
ATOM     16  N   UNL     1       5.055   5.330  17.188  0.00  0.00    +0.000 N 
ATOM     17  H   UNL     1       5.095   6.208  16.682  0.00  0.00    +0.000 HD
BRANCH  16  18
ATOM     18  C   UNL     1       5.972   4.263  16.838  0.00  0.00    +0.000 C 
ATOM     19  C   UNL     1       5.935   4.027  15.331  0.00  0.00    +0.000 C 
ATOM     20  C   UNL     1       7.388   4.603  17.296  0.00  0.00    +0.000 C 
ENDBRANCH  16  18
ENDBRANCH   4  14
BRANCH   5  21
ATOM     21  N   UNL     1       2.107   6.086  20.528  0.00  0.00    +0.000 N 
ATOM     22  H   UNL     1       2.491   6.299  21.454  0.00  0.00    +0.000 HD
ATOM     23  H   UNL     1       1.951   5.085  20.411  0.00  0.00    +0.000 HD
ENDBRANCH   5  21
TORSDOF 4
ENDMDL
MODEL 7
REMARK VINA RESULT:      -7.2      3.993      7.728
REMARK  Name = 
REMARK  8 active torsions:
REMARK  status: ('A' for Active; 'I' for Inactive)
REMARK    1  A    between atoms: C_1  and  C_2
REMARK    2  A    between atoms: C_4  and  C_5
REMARK    3  A    between atoms: C_7  and  N_8
REMARK    4  A    between atoms: C_11  and  C_12
REMARK    5  A    between atoms: N_14  and  C_15
REMARK    6  A    between atoms: C_15  and  C_16
REMARK    7  A    between atoms: C_15  and  C_17
REMARK    8  A    between atoms: C_18  and  N_19
REMARK                            x       y       z     vdW  Elec       q    Type
REMARK                         _______ _______ _______ _____ _____    ______ ____
ROOT
ATOM      1  N   UNL     1       2.516   7.450  18.274  0.00  0.00    +0.000 N 
ATOM      2  N   UNL     1       2.353   8.553  17.499  0.00  0.00    +0.000 NA
ATOM      3  N   UNL     1       1.645   9.442  18.180  0.00  0.00    +0.000 NA
ATOM      4  C   UNL     1       1.440   8.954  19.450  0.00  0.00    +0.000 A 
ATOM      5  C   UNL     1       2.011   7.697  19.555  0.00  0.00    +0.000 A 
ENDROOT
BRANCH   1  12
ATOM      6  C   UNL     1       2.615   2.554  17.648  0.00  0.00    +0.000 C 
ATOM      7  C   UNL     1       3.294   3.888  17.536  0.00  0.00    +0.000 A 
ATOM      8  C   UNL     1       4.642   3.995  17.181  0.00  0.00    +0.000 A 
ATOM      9  C   UNL     1       5.264   5.250  17.087  0.00  0.00    +0.000 A 
ATOM     10  C   UNL     1       6.723   5.355  16.749  0.00  0.00    +0.000 C 
ATOM     11  C   UNL     1       4.526   6.409  17.369  0.00  0.00    +0.000 A 
ATOM     12  C   UNL     1       3.198   6.301  17.799  0.00  0.00    +0.000 A 
ATOM     13  C   UNL     1       2.574   5.048  17.832  0.00  0.00    +0.000 A 
ENDBRANCH   1  12
BRANCH   4  14
ATOM     14  C   UNL     1       0.795   9.737  20.497  0.00  0.00    +0.000 C 
ATOM     15  O   UNL     1       0.319   9.239  21.516  0.00  0.00    +0.000 OA
ATOM     16  N   UNL     1       0.798  11.093  20.240  0.00  0.00    +0.000 N 
ATOM     17  H   UNL     1       1.139  11.375  19.327  0.00  0.00    +0.000 HD
BRANCH  16  18
ATOM     18  C   UNL     1       0.164  12.076  21.098  0.00  0.00    +0.000 C 
ATOM     19  C   UNL     1       0.955  13.381  21.056  0.00  0.00    +0.000 C 
ATOM     20  C   UNL     1      -1.282  12.308  20.669  0.00  0.00    +0.000 C 
ENDBRANCH  16  18
ENDBRANCH   4  14
BRANCH   5  21
ATOM     21  N   UNL     1       2.175   6.875  20.633  0.00  0.00    +0.000 N 
ATOM     22  H   UNL     1       1.977   7.266  21.560  0.00  0.00    +0.000 HD
ATOM     23  H   UNL     1       2.966   6.231  20.662  0.00  0.00    +0.000 HD
ENDBRANCH   5  21
TORSDOF 4
ENDMDL
MODEL 8
REMARK VINA RESULT:      -7.1      2.789      4.643
REMARK  Name = 
REMARK  8 active torsions:
REMARK  status: ('A' for Active; 'I' for Inactive)
REMARK    1  A    between atoms: C_1  and  C_2
REMARK    2  A    between atoms: C_4  and  C_5
REMARK    3  A    between atoms: C_7  and  N_8
REMARK    4  A    between atoms: C_11  and  C_12
REMARK    5  A    between atoms: N_14  and  C_15
REMARK    6  A    between atoms: C_15  and  C_16
REMARK    7  A    between atoms: C_15  and  C_17
REMARK    8  A    between atoms: C_18  and  N_19
REMARK                            x       y       z     vdW  Elec       q    Type
REMARK                         _______ _______ _______ _____ _____    ______ ____
ROOT
ATOM      1  N   UNL     1       2.072   8.258  18.879  0.00  0.00    +0.000 N 
ATOM      2  N   UNL     1       2.508   8.562  17.628  0.00  0.00    +0.000 NA
ATOM      3  N   UNL     1       3.344   7.611  17.235  0.00  0.00    +0.000 NA
ATOM      4  C   UNL     1       3.367   6.627  18.195  0.00  0.00    +0.000 A 
ATOM      5  C   UNL     1       2.541   6.992  19.245  0.00  0.00    +0.000 A 
ENDROOT
BRANCH   1  12
ATOM      6  C   UNL     1      -0.031   9.547  23.154  0.00  0.00    +0.000 C 
ATOM      7  C   UNL     1       0.103   9.729  21.671  0.00  0.00    +0.000 A 
ATOM      8  C   UNL     1      -0.762  10.562  20.955  0.00  0.00    +0.000 A 
ATOM      9  C   UNL     1      -0.627  10.716  19.566  0.00  0.00    +0.000 A 
ATOM     10  C   UNL     1      -1.587  11.577  18.797  0.00  0.00    +0.000 C 
ATOM     11  C   UNL     1       0.378  10.011  18.887  0.00  0.00    +0.000 A 
ATOM     12  C   UNL     1       1.195   9.116  19.589  0.00  0.00    +0.000 A 
ATOM     13  C   UNL     1       1.088   9.018  20.981  0.00  0.00    +0.000 A 
ENDBRANCH   1  12
BRANCH   4  14
ATOM     14  C   UNL     1       4.098   5.378  18.021  0.00  0.00    +0.000 C 
ATOM     15  O   UNL     1       3.925   4.389  18.733  0.00  0.00    +0.000 OA
ATOM     16  N   UNL     1       4.982   5.410  16.962  0.00  0.00    +0.000 N 
ATOM     17  H   UNL     1       5.102   6.308  16.506  0.00  0.00    +0.000 HD
BRANCH  16  18
ATOM     18  C   UNL     1       5.869   4.314  16.621  0.00  0.00    +0.000 C 
ATOM     19  C   UNL     1       5.876   4.110  15.109  0.00  0.00    +0.000 C 
ATOM     20  C   UNL     1       7.280   4.589  17.134  0.00  0.00    +0.000 C 
ENDBRANCH  16  18
ENDBRANCH   4  14
BRANCH   5  21
ATOM     21  N   UNL     1       2.146   6.303  20.356  0.00  0.00    +0.000 N 
ATOM     22  H   UNL     1       1.151   6.335  20.602  0.00  0.00    +0.000 HD
ATOM     23  H   UNL     1       2.735   6.306  21.188  0.00  0.00    +0.000 HD
ENDBRANCH   5  21
TORSDOF 4
ENDMDL
MODEL 9
REMARK VINA RESULT:      -7.1      4.419      8.343
REMARK  Name = 
REMARK  8 active torsions:
REMARK  status: ('A' for Active; 'I' for Inactive)
REMARK    1  A    between atoms: C_1  and  C_2
REMARK    2  A    between atoms: C_4  and  C_5
REMARK    3  A    between atoms: C_7  and  N_8
REMARK    4  A    between atoms: C_11  and  C_12
REMARK    5  A    between atoms: N_14  and  C_15
REMARK    6  A    between atoms: C_15  and  C_16
REMARK    7  A    between atoms: C_15  and  C_17
REMARK    8  A    between atoms: C_18  and  N_19
REMARK                            x       y       z     vdW  Elec       q    Type
REMARK                         _______ _______ _______ _____ _____    ______ ____
ROOT
ATOM      1  N   UNL     1       1.952   8.188  18.720  0.00  0.00    +0.000 N 
ATOM      2  N   UNL     1       1.662   9.308  18.008  0.00  0.00    +0.000 NA
ATOM      3  N   UNL     1       1.019  10.153  18.801  0.00  0.00    +0.000 NA
ATOM      4  C   UNL     1       0.987   9.621  20.069  0.00  0.00    +0.000 A 
ATOM      5  C   UNL     1       1.602   8.381  20.061  0.00  0.00    +0.000 A 
ENDROOT
BRANCH   1  12
ATOM      6  C   UNL     1       2.093   3.324  17.891  0.00  0.00    +0.000 C 
ATOM      7  C   UNL     1       2.724   4.679  17.758  0.00  0.00    +0.000 A 
ATOM      8  C   UNL     1       4.022   4.836  17.261  0.00  0.00    +0.000 A 
ATOM      9  C   UNL     1       4.600   6.110  17.150  0.00  0.00    +0.000 A 
ATOM     10  C   UNL     1       6.010   6.268  16.657  0.00  0.00    +0.000 C 
ATOM     11  C   UNL     1       3.872   7.237  17.557  0.00  0.00    +0.000 A 
ATOM     12  C   UNL     1       2.603   7.077  18.127  0.00  0.00    +0.000 A 
ATOM     13  C   UNL     1       2.016   5.808  18.178  0.00  0.00    +0.000 A 
ENDBRANCH   1  12
BRANCH   4  14
ATOM     14  C   UNL     1       0.453  10.351  21.213  0.00  0.00    +0.000 C 
ATOM     15  O   UNL     1       0.757  10.097  22.377  0.00  0.00    +0.000 OA
ATOM     16  N   UNL     1      -0.404  11.371  20.853  0.00  0.00    +0.000 N 
ATOM     17  H   UNL     1      -0.647  11.426  19.869  0.00  0.00    +0.000 HD
BRANCH  16  18
ATOM     18  C   UNL     1      -1.111  12.202  21.809  0.00  0.00    +0.000 C 
ATOM     19  C   UNL     1      -0.296  13.460  22.098  0.00  0.00    +0.000 C 
ATOM     20  C   UNL     1      -2.495  12.566  21.280  0.00  0.00    +0.000 C 
ENDBRANCH  16  18
ENDBRANCH   4  14
BRANCH   5  21
ATOM     21  N   UNL     1       1.922   7.532  21.082  0.00  0.00    +0.000 N 
ATOM     22  H   UNL     1       2.916   7.409  21.301  0.00  0.00    +0.000 HD
ATOM     23  H   UNL     1       1.406   6.660  21.195  0.00  0.00    +0.000 HD
ENDBRANCH   5  21
TORSDOF 4
ENDMDL
