MODEL 1
REMARK VINA RESULT:      -5.0      0.000      0.000
REMARK  Name = 
REMARK  3 active torsions:
REMARK  status: ('A' for Active; 'I' for Inactive)
REMARK    1  A    between atoms: N_1  and  C_2
REMARK    2  A    between atoms: N_5  and  O_6
REMARK    3  A    between atoms: C_8  and  O_9
REMARK                            x       y       z     vdW  Elec       q    Type
REMARK                         _______ _______ _______ _____ _____    ______ ____
ROOT
ATOM      1  C   UNL     1       2.901   3.240  20.673  0.00  0.00    +0.000 C 
ATOM      2  C   UNL     1       3.960   2.368  19.990  0.00  0.00    +0.000 C 
ATOM      3  O   UNL     1       5.039   2.034  20.459  0.00  0.00    +0.000 OA
ATOM      4  N   UNL     1       3.412   1.905  18.798  0.00  0.00    +0.000 N 
ATOM      5  C   UNL     1       1.973   1.954  18.855  0.00  0.00    +0.000 C 
ATOM      6  C   UNL     1       1.730   3.224  19.659  0.00  0.00    +0.000 C 
ENDROOT
BRANCH   1   7
ATOM      7  N   UNL     1       2.504   2.658  21.981  0.00  0.00    +0.000 NA
ATOM      8  H   UNL     1       1.560   2.276  21.872  0.00  0.00    +0.000 HD
ATOM      9  H   UNL     1       2.385   3.415  22.662  0.00  0.00    +0.000 HD
ENDBRANCH   1   7
BRANCH   4  10
ATOM     10  O   UNL     1       3.967   0.722  18.276  0.00  0.00    +0.000 OA
ATOM     11  H   UNL     1       3.179   0.259  17.918  0.00  0.00    +0.000 HD
ENDBRANCH   4  10
BRANCH   6  12
ATOM     12  O   UNL     1       0.462   3.203  20.309  0.00  0.00    +0.000 OA
ATOM     13  H   UNL     1       0.455   2.379  20.843  0.00  0.00    +0.000 HD
ENDBRANCH   6  12
TORSDOF 3
ENDMDL
MODEL 2
REMARK VINA RESULT:      -4.9      4.973      5.699
REMARK  Name = 
REMARK  3 active torsions:
REMARK  status: ('A' for Active; 'I' for Inactive)
REMARK    1  A    between atoms: N_1  and  C_2
REMARK    2  A    between atoms: N_5  and  O_6
REMARK    3  A    between atoms: C_8  and  O_9
REMARK                            x       y       z     vdW  Elec       q    Type
REMARK                         _______ _______ _______ _____ _____    ______ ____
ROOT
ATOM      1  C   UNL     1       7.034   5.065  17.288  0.00  0.00    +0.000 C 
ATOM      2  C   UNL     1       6.856   5.163  15.769  0.00  0.00    +0.000 C 
ATOM      3  O   UNL     1       7.719   5.453  14.954  0.00  0.00    +0.000 OA
ATOM      4  N   UNL     1       5.570   4.722  15.473  0.00  0.00    +0.000 N 
ATOM      5  C   UNL     1       5.067   3.888  16.536  0.00  0.00    +0.000 C 
ATOM      6  C   UNL     1       5.651   4.562  17.770  0.00  0.00    +0.000 C 
ENDROOT
BRANCH   1   7
ATOM      7  N   UNL     1       8.118   4.109  17.631  0.00  0.00    +0.000 NA
ATOM      8  H   UNL     1       9.006   4.547  17.369  0.00  0.00    +0.000 HD
ATOM      9  H   UNL     1       8.054   3.295  17.012  0.00  0.00    +0.000 HD
ENDBRANCH   1   7
BRANCH   4  10
ATOM     10  O   UNL     1       5.362   4.244  14.166  0.00  0.00    +0.000 OA
ATOM     11  H   UNL     1       4.595   3.642  14.280  0.00  0.00    +0.000 HD
ENDBRANCH   4  10
BRANCH   6  12
ATOM     12  O   UNL     1       5.764   3.655  18.863  0.00  0.00    +0.000 OA
ATOM     13  H   UNL     1       4.974   3.819  19.423  0.00  0.00    +0.000 HD
ENDBRANCH   6  12
TORSDOF 3
ENDMDL
MODEL 3
REMARK VINA RESULT:      -4.9      5.123      5.823
REMARK  Name = 
REMARK  3 active torsions:
REMARK  status: ('A' for Active; 'I' for Inactive)
REMARK    1  A    between atoms: N_1  and  C_2
REMARK    2  A    between atoms: N_5  and  O_6
REMARK    3  A    between atoms: C_8  and  O_9
REMARK                            x       y       z     vdW  Elec       q    Type
REMARK                         _______ _______ _______ _____ _____    ______ ____
ROOT
ATOM      1  C   UNL     1       7.180   5.275  18.182  0.00  0.00    +0.000 C 
ATOM      2  C   UNL     1       6.943   6.302  17.069  0.00  0.00    +0.000 C 
ATOM      3  O   UNL     1       7.802   6.897  16.435  0.00  0.00    +0.000 OA
ATOM      4  N   UNL     1       5.576   6.327  16.811  0.00  0.00    +0.000 N 
ATOM      5  C   UNL     1       4.958   5.103  17.258  0.00  0.00    +0.000 C 
ATOM      6  C   UNL     1       5.748   4.792  18.522  0.00  0.00    +0.000 C 
ENDROOT
BRANCH   1   7
ATOM      7  N   UNL     1       8.037   4.162  17.698  0.00  0.00    +0.000 NA
ATOM      8  H   UNL     1       8.298   4.376  16.730  0.00  0.00    +0.000 HD
ATOM      9  H   UNL     1       7.469   3.313  17.617  0.00  0.00    +0.000 HD
ENDBRANCH   1   7
BRANCH   4  10
ATOM     10  O   UNL     1       5.192   6.779  15.535  0.00  0.00    +0.000 OA
ATOM     11  H   UNL     1       5.188   5.951  15.009  0.00  0.00    +0.000 HD
ENDBRANCH   4  10
BRANCH   6  12
ATOM     12  O   UNL     1       5.715   3.403  18.836  0.00  0.00    +0.000 OA
ATOM     13  H   UNL     1       5.965   3.343  19.784  0.00  0.00    +0.000 HD
ENDBRANCH   6  12
TORSDOF 3
ENDMDL
MODEL 4
REMARK VINA RESULT:      -4.7      5.996      6.566
REMARK  Name = 
REMARK  3 active torsions:
REMARK  status: ('A' for Active; 'I' for Inactive)
REMARK    1  A    between atoms: N_1  and  C_2
REMARK    2  A    between atoms: N_5  and  O_6
REMARK    3  A    between atoms: C_8  and  O_9
REMARK                            x       y       z     vdW  Elec       q    Type
REMARK                         _______ _______ _______ _____ _____    ______ ____
ROOT
ATOM      1  C   UNL     1       6.589   4.888  16.256  0.00  0.00    +0.000 C 
ATOM      2  C   UNL     1       7.486   4.857  17.498  0.00  0.00    +0.000 C 
ATOM      3  O   UNL     1       8.408   4.083  17.709  0.00  0.00    +0.000 OA
ATOM      4  N   UNL     1       7.155   5.961  18.277  0.00  0.00    +0.000 N 
ATOM      5  C   UNL     1       6.514   6.971  17.471  0.00  0.00    +0.000 C 
ATOM      6  C   UNL     1       5.695   6.130  16.501  0.00  0.00    +0.000 C 
ENDROOT
BRANCH   1   7
ATOM      7  N   UNL     1       7.403   5.031  15.021  0.00  0.00    +0.000 NA
ATOM      8  H   UNL     1       7.284   4.172  14.476  0.00  0.00    +0.000 HD
ATOM      9  H   UNL     1       8.396   5.027  15.273  0.00  0.00    +0.000 HD
ENDBRANCH   1   7
BRANCH   4  10
ATOM     10  O   UNL     1       8.149   6.420  19.160  0.00  0.00    +0.000 OA
ATOM     11  H   UNL     1       8.842   6.749  18.548  0.00  0.00    +0.000 HD
ENDBRANCH   4  10
BRANCH   6  12
ATOM     12  O   UNL     1       5.419   6.835  15.295  0.00  0.00    +0.000 OA
ATOM     13  H   UNL     1       5.696   7.762  15.464  0.00  0.00    +0.000 HD
ENDBRANCH   6  12
TORSDOF 3
ENDMDL
MODEL 5
REMARK VINA RESULT:      -4.7      2.098      2.608
REMARK  Name = 
REMARK  3 active torsions:
REMARK  status: ('A' for Active; 'I' for Inactive)
REMARK    1  A    between atoms: N_1  and  C_2
REMARK    2  A    between atoms: N_5  and  O_6
REMARK    3  A    between atoms: C_8  and  O_9
REMARK                            x       y       z     vdW  Elec       q    Type
REMARK                         _______ _______ _______ _____ _____    ______ ____
ROOT
ATOM      1  C   UNL     1       2.797   2.777  19.269  0.00  0.00    +0.000 C 
ATOM      2  C   UNL     1       4.291   2.854  19.602  0.00  0.00    +0.000 C 
ATOM      3  O   UNL     1       4.931   2.046  20.259  0.00  0.00    +0.000 OA
ATOM      4  N   UNL     1       4.817   3.935  18.902  0.00  0.00    +0.000 N 
ATOM      5  C   UNL     1       3.976   4.264  17.779  0.00  0.00    +0.000 C 
ATOM      6  C   UNL     1       2.584   3.995  18.336  0.00  0.00    +0.000 C 
ENDROOT
BRANCH   1   7
ATOM      7  N   UNL     1       2.475   1.498  18.585  0.00  0.00    +0.000 NA
ATOM      8  H   UNL     1       1.479   1.523  18.343  0.00  0.00    +0.000 HD
ATOM      9  H   UNL     1       2.544   0.731  19.260  0.00  0.00    +0.000 HD
ENDBRANCH   1   7
BRANCH   4  10
ATOM     10  O   UNL     1       6.200   3.894  18.643  0.00  0.00    +0.000 OA
ATOM     11  H   UNL     1       6.245   4.135  17.693  0.00  0.00    +0.000 HD
ENDBRANCH   4  10
BRANCH   6  12
ATOM     12  O   UNL     1       1.646   3.718  17.300  0.00  0.00    +0.000 OA
ATOM     13  H   UNL     1       0.881   3.292  17.747  0.00  0.00    +0.000 HD
ENDBRANCH   6  12
TORSDOF 3
ENDMDL
MODEL 6
REMARK VINA RESULT:      -4.6      4.794      5.129
REMARK  Name = 
REMARK  3 active torsions:
REMARK  status: ('A' for Active; 'I' for Inactive)
REMARK    1  A    between atoms: N_1  and  C_2
REMARK    2  A    between atoms: N_5  and  O_6
REMARK    3  A    between atoms: C_8  and  O_9
REMARK                            x       y       z     vdW  Elec       q    Type
REMARK                         _______ _______ _______ _____ _____    ______ ____
ROOT
ATOM      1  C   UNL     1       6.153   4.919  18.583  0.00  0.00    +0.000 C 
ATOM      2  C   UNL     1       7.310   4.854  17.580  0.00  0.00    +0.000 C 
ATOM      3  O   UNL     1       8.297   4.137  17.656  0.00  0.00    +0.000 OA
ATOM      4  N   UNL     1       6.964   5.653  16.495  0.00  0.00    +0.000 N 
ATOM      5  C   UNL     1       5.535   5.830  16.436  0.00  0.00    +0.000 C 
ATOM      6  C   UNL     1       5.164   5.904  17.911  0.00  0.00    +0.000 C 
ENDROOT
BRANCH   1   7
ATOM      7  N   UNL     1       5.547   3.577  18.777  0.00  0.00    +0.000 NA
ATOM      8  H   UNL     1       6.099   2.910  18.228  0.00  0.00    +0.000 HD
ATOM      9  H   UNL     1       4.625   3.558  18.330  0.00  0.00    +0.000 HD
ENDBRANCH   1   7
BRANCH   4  10
ATOM     10  O   UNL     1       7.597   5.352  15.274  0.00  0.00    +0.000 OA
ATOM     11  H   UNL     1       8.400   4.868  15.565  0.00  0.00    +0.000 HD
ENDBRANCH   4  10
BRANCH   6  12
ATOM     12  O   UNL     1       3.807   5.531  18.133  0.00  0.00    +0.000 OA
ATOM     13  H   UNL     1       3.269   6.227  17.694  0.00  0.00    +0.000 HD
ENDBRANCH   6  12
TORSDOF 3
ENDMDL
MODEL 7
REMARK VINA RESULT:      -4.6      2.533      3.411
REMARK  Name = 
REMARK  3 active torsions:
REMARK  status: ('A' for Active; 'I' for Inactive)
REMARK    1  A    between atoms: N_1  and  C_2
REMARK    2  A    between atoms: N_5  and  O_6
REMARK    3  A    between atoms: C_8  and  O_9
REMARK                            x       y       z     vdW  Elec       q    Type
REMARK                         _______ _______ _______ _____ _____    ______ ____
ROOT
ATOM      1  C   UNL     1       4.637   3.888  19.336  0.00  0.00    +0.000 C 
ATOM      2  C   UNL     1       3.619   4.289  18.262  0.00  0.00    +0.000 C 
ATOM      3  O   UNL     1       3.649   5.299  17.575  0.00  0.00    +0.000 OA
ATOM      4  N   UNL     1       2.736   3.226  18.110  0.00  0.00    +0.000 N 
ATOM      5  C   UNL     1       3.335   2.002  18.582  0.00  0.00    +0.000 C 
ATOM      6  C   UNL     1       4.147   2.486  19.776  0.00  0.00    +0.000 C 
ENDROOT
BRANCH   1   7
ATOM      7  N   UNL     1       6.009   3.838  18.768  0.00  0.00    +0.000 NA
ATOM      8  H   UNL     1       6.642   3.558  19.524  0.00  0.00    +0.000 HD
ATOM      9  H   UNL     1       6.310   4.789  18.535  0.00  0.00    +0.000 HD
ENDBRANCH   1   7
BRANCH   4  10
ATOM     10  O   UNL     1       2.065   3.145  16.876  0.00  0.00    +0.000 OA
ATOM     11  H   UNL     1       1.146   3.391  17.117  0.00  0.00    +0.000 HD
ENDBRANCH   4  10
BRANCH   6  12
ATOM     12  O   UNL     1       5.230   1.609  20.068  0.00  0.00    +0.000 OA
ATOM     13  H   UNL     1       5.886   2.155  20.556  0.00  0.00    +0.000 HD
ENDBRANCH   6  12
TORSDOF 3
ENDMDL
MODEL 8
REMARK VINA RESULT:      -4.6      5.087      5.724
REMARK  Name = 
REMARK  3 active torsions:
REMARK  status: ('A' for Active; 'I' for Inactive)
REMARK    1  A    between atoms: N_1  and  C_2
REMARK    2  A    between atoms: N_5  and  O_6
REMARK    3  A    between atoms: C_8  and  O_9
REMARK                            x       y       z     vdW  Elec       q    Type
REMARK                         _______ _______ _______ _____ _____    ______ ____
ROOT
ATOM      1  C   UNL     1       7.070   5.549  16.231  0.00  0.00    +0.000 C 
ATOM      2  C   UNL     1       7.108   4.589  17.425  0.00  0.00    +0.000 C 
ATOM      3  O   UNL     1       8.077   4.340  18.126  0.00  0.00    +0.000 OA
ATOM      4  N   UNL     1       5.804   4.161  17.654  0.00  0.00    +0.000 N 
ATOM      5  C   UNL     1       4.862   5.093  17.089  0.00  0.00    +0.000 C 
ATOM      6  C   UNL     1       5.577   5.536  15.819  0.00  0.00    +0.000 C 
ENDROOT
BRANCH   1   7
ATOM      7  N   UNL     1       7.519   6.907  16.633  0.00  0.00    +0.000 NA
ATOM      8  H   UNL     1       6.699   7.521  16.603  0.00  0.00    +0.000 HD
ATOM      9  H   UNL     1       8.135   7.285  15.907  0.00  0.00    +0.000 HD
ENDBRANCH   1   7
BRANCH   4  10
ATOM     10  O   UNL     1       5.517   3.711  18.957  0.00  0.00    +0.000 OA
ATOM     11  H   UNL     1       5.605   2.738  18.869  0.00  0.00    +0.000 HD
ENDBRANCH   4  10
BRANCH   6  12
ATOM     12  O   UNL     1       5.133   6.817  15.383  0.00  0.00    +0.000 OA
ATOM     13  H   UNL     1       4.432   7.083  16.019  0.00  0.00    +0.000 HD
ENDBRANCH   6  12
TORSDOF 3
ENDMDL
MODEL 9
REMARK VINA RESULT:      -4.6      2.167      3.433
REMARK  Name = 
REMARK  3 active torsions:
REMARK  status: ('A' for Active; 'I' for Inactive)
REMARK    1  A    between atoms: N_1  and  C_2
REMARK    2  A    between atoms: N_5  and  O_6
REMARK    3  A    between atoms: C_8  and  O_9
REMARK                            x       y       z     vdW  Elec       q    Type
REMARK                         _______ _______ _______ _____ _____    ______ ____
ROOT
ATOM      1  C   UNL     1       3.752   2.266  19.713  0.00  0.00    +0.000 C 
ATOM      2  C   UNL     1       2.956   2.980  20.811  0.00  0.00    +0.000 C 
ATOM      3  O   UNL     1       2.724   2.554  21.933  0.00  0.00    +0.000 OA
ATOM      4  N   UNL     1       2.668   4.260  20.350  0.00  0.00    +0.000 N 
ATOM      5  C   UNL     1       3.591   4.639  19.310  0.00  0.00    +0.000 C 
ATOM      6  C   UNL     1       3.805   3.321  18.580  0.00  0.00    +0.000 C 
ENDROOT
BRANCH   1   7
ATOM      7  N   UNL     1       5.110   1.907  20.196  0.00  0.00    +0.000 NA
ATOM      8  H   UNL     1       5.610   2.783  20.378  0.00  0.00    +0.000 HD
ATOM      9  H   UNL     1       5.636   1.480  19.428  0.00  0.00    +0.000 HD
ENDBRANCH   1   7
BRANCH   4  10
ATOM     10  O   UNL     1       2.417   5.234  21.334  0.00  0.00    +0.000 OA
ATOM     11  H   UNL     1       2.637   4.759  22.164  0.00  0.00    +0.000 HD
ENDBRANCH   4  10
BRANCH   6  12
ATOM     12  O   UNL     1       5.050   3.297  17.887  0.00  0.00    +0.000 OA
ATOM     13  H   UNL     1       5.735   3.455  18.573  0.00  0.00    +0.000 HD
ENDBRANCH   6  12
TORSDOF 3
ENDMDL
