MODEL 1
REMARK VINA RESULT:      -9.2      0.000      0.000
REMARK  Name = 
REMARK  5 active torsions:
REMARK  status: ('A' for Active; 'I' for Inactive)
REMARK    1  A    between atoms: C_2  and  C_18
REMARK    2  A    between atoms: N_3  and  C_4
REMARK    3  A    between atoms: C_9  and  C_10
REMARK    4  A    between atoms: C_22  and  S_23
REMARK    5  A    between atoms: S_23  and  N_26
REMARK                            x       y       z     vdW  Elec       q    Type
REMARK                         _______ _______ _______ _____ _____    ______ ____
ROOT
ATOM      1  O   UNL     1       2.103   9.351  17.547  0.00  0.00    +0.000 OA
ATOM      2  C   UNL     1       1.670   9.039  18.654  0.00  0.00    +0.000 C 
ATOM      3  N   UNL     1       0.865   9.853  19.438  0.00  0.00    +0.000 N 
ATOM      4  H   UNL     1       1.054   9.726  20.429  0.00  0.00    +0.000 HD
ENDROOT
BRANCH   3   5
ATOM      5  C   UNL     1       0.673  11.216  19.069  0.00  0.00    +0.000 A 
ATOM      6  C   UNL     1       1.768  12.077  19.317  0.00  0.00    +0.000 A 
ATOM      7  C   UNL     1       1.726  13.430  18.983  0.00  0.00    +0.000 A 
ATOM      8  C   UNL     1       0.572  13.968  18.436  0.00  0.00    +0.000 A 
ATOM      9  C   UNL     1      -0.525  13.134  18.212  0.00  0.00    +0.000 A 
ATOM     10  C   UNL     1      -0.506  11.746  18.505  0.00  0.00    +0.000 A 
BRANCH  10  11
ATOM     11  C   UNL     1      -1.752  11.057  18.008  0.00  0.00    +0.000 C 
ATOM     12  O   UNL     1      -1.560  10.160  17.176  0.00  0.00    +0.000 OA
ATOM     13  N   UNL     1      -3.073  11.422  18.334  0.00  0.00    +0.000 N 
ATOM     14  C   UNL     1      -4.110  10.539  17.791  0.00  0.00    +0.000 C 
ATOM     15  C   UNL     1      -5.487  11.191  17.761  0.00  0.00    +0.000 C 
ATOM     16  C   UNL     1      -5.874  11.687  19.144  0.00  0.00    +0.000 C 
ATOM     17  C   UNL     1      -4.835  12.683  19.626  0.00  0.00    +0.000 C 
ATOM     18  C   UNL     1      -3.419  12.132  19.546  0.00  0.00    +0.000 C 
ENDBRANCH  10  11
ENDBRANCH   3   5
BRANCH   2  19
ATOM     19  C   UNL     1       2.054   7.704  19.205  0.00  0.00    +0.000 A 
ATOM     20  C   UNL     1       1.572   7.205  20.424  0.00  0.00    +0.000 A 
ATOM     21  C   UNL     1       1.830   5.879  20.798  0.00  0.00    +0.000 A 
ATOM     22  C   UNL     1       2.597   5.053  19.977  0.00  0.00    +0.000 A 
ATOM     23  C   UNL     1       3.116   5.567  18.787  0.00  0.00    +0.000 A 
ATOM     24  C   UNL     1       2.843   6.880  18.390  0.00  0.00    +0.000 A 
BRANCH  23  25
ATOM     25  S   UNL     1       4.227   4.582  17.807  0.00  0.00    +0.000 S 
ATOM     26  O   UNL     1       4.986   3.787  18.744  0.00  0.00    +0.000 OA
ATOM     27  O   UNL     1       3.445   3.960  16.763  0.00  0.00    +0.000 OA
BRANCH  25  28
ATOM     28  N   UNL     1       5.285   5.702  17.075  0.00  0.00    +0.000 NA
ATOM     29  C   UNL     1       5.584   5.540  15.617  0.00  0.00    +0.000 C 
ATOM     30  C   UNL     1       6.629   4.444  15.359  0.00  0.00    +0.000 C 
ATOM     31  O   UNL     1       7.824   4.644  16.127  0.00  0.00    +0.000 OA
ATOM     32  C   UNL     1       7.543   4.735  17.532  0.00  0.00    +0.000 C 
ATOM     33  C   UNL     1       6.577   5.890  17.816  0.00  0.00    +0.000 C 
ENDBRANCH  25  28
ENDBRANCH  23  25
ENDBRANCH   2  19
TORSDOF 5
ENDMDL
MODEL 2
REMARK VINA RESULT:      -9.0      2.911      8.838
REMARK  Name = 
REMARK  5 active torsions:
REMARK  status: ('A' for Active; 'I' for Inactive)
REMARK    1  A    between atoms: C_2  and  C_18
REMARK    2  A    between atoms: N_3  and  C_4
REMARK    3  A    between atoms: C_9  and  C_10
REMARK    4  A    between atoms: C_22  and  S_23
REMARK    5  A    between atoms: S_23  and  N_26
REMARK                            x       y       z     vdW  Elec       q    Type
REMARK                         _______ _______ _______ _____ _____    ______ ____
ROOT
ATOM      1  O   UNL     1       2.417   8.567  17.047  0.00  0.00    +0.000 OA
ATOM      2  C   UNL     1       2.369   8.150  18.201  0.00  0.00    +0.000 C 
ATOM      3  N   UNL     1       3.140   7.104  18.689  0.00  0.00    +0.000 N 
ATOM      4  H   UNL     1       2.638   6.559  19.385  0.00  0.00    +0.000 HD
ENDROOT
BRANCH   3   5
ATOM      5  C   UNL     1       3.893   6.304  17.781  0.00  0.00    +0.000 A 
ATOM      6  C   UNL     1       5.080   6.891  17.286  0.00  0.00    +0.000 A 
ATOM      7  C   UNL     1       5.925   6.210  16.410  0.00  0.00    +0.000 A 
ATOM      8  C   UNL     1       5.580   4.942  15.969  0.00  0.00    +0.000 A 
ATOM      9  C   UNL     1       4.396   4.363  16.429  0.00  0.00    +0.000 A 
ATOM     10  C   UNL     1       3.532   5.010  17.349  0.00  0.00    +0.000 A 
BRANCH  10  11
ATOM     11  C   UNL     1       2.424   4.096  17.807  0.00  0.00    +0.000 C 
ATOM     12  O   UNL     1       1.640   3.735  16.920  0.00  0.00    +0.000 OA
ATOM     13  N   UNL     1       2.170   3.726  19.143  0.00  0.00    +0.000 N 
ATOM     14  C   UNL     1       1.085   2.755  19.320  0.00  0.00    +0.000 C 
ATOM     15  C   UNL     1       0.538   2.731  20.741  0.00  0.00    +0.000 C 
ATOM     16  C   UNL     1       1.656   2.476  21.740  0.00  0.00    +0.000 C 
ATOM     17  C   UNL     1       2.705   3.563  21.603  0.00  0.00    +0.000 C 
ATOM     18  C   UNL     1       3.189   3.728  20.169  0.00  0.00    +0.000 C 
ENDBRANCH  10  11
ENDBRANCH   3   5
BRANCH   2  19
ATOM     19  C   UNL     1       1.402   8.795  19.140  0.00  0.00    +0.000 A 
ATOM     20  C   UNL     1       1.499   8.699  20.536  0.00  0.00    +0.000 A 
ATOM     21  C   UNL     1       0.667   9.469  21.359  0.00  0.00    +0.000 A 
ATOM     22  C   UNL     1      -0.290  10.314  20.797  0.00  0.00    +0.000 A 
ATOM     23  C   UNL     1      -0.418  10.371  19.408  0.00  0.00    +0.000 A 
ATOM     24  C   UNL     1       0.425   9.628  18.577  0.00  0.00    +0.000 A 
BRANCH  23  25
ATOM     25  S   UNL     1      -1.736  11.318  18.679  0.00  0.00    +0.000 S 
ATOM     26  O   UNL     1      -2.512  11.836  19.781  0.00  0.00    +0.000 OA
ATOM     27  O   UNL     1      -1.142  12.204  17.703  0.00  0.00    +0.000 OA
BRANCH  25  28
ATOM     28  N   UNL     1      -2.690  10.179  17.842  0.00  0.00    +0.000 NA
ATOM     29  C   UNL     1      -2.429   9.978  16.381  0.00  0.00    +0.000 C 
ATOM     30  C   UNL     1      -3.065  11.082  15.524  0.00  0.00    +0.000 C 
ATOM     31  O   UNL     1      -4.465  11.242  15.795  0.00  0.00    +0.000 OA
ATOM     32  C   UNL     1      -4.709  11.498  17.187  0.00  0.00    +0.000 C 
ATOM     33  C   UNL     1      -4.167  10.354  18.051  0.00  0.00    +0.000 C 
ENDBRANCH  25  28
ENDBRANCH  23  25
ENDBRANCH   2  19
TORSDOF 5
ENDMDL
MODEL 3
REMARK VINA RESULT:      -8.9      3.172      8.726
REMARK  Name = 
REMARK  5 active torsions:
REMARK  status: ('A' for Active; 'I' for Inactive)
REMARK    1  A    between atoms: C_2  and  C_18
REMARK    2  A    between atoms: N_3  and  C_4
REMARK    3  A    between atoms: C_9  and  C_10
REMARK    4  A    between atoms: C_22  and  S_23
REMARK    5  A    between atoms: S_23  and  N_26
REMARK                            x       y       z     vdW  Elec       q    Type
REMARK                         _______ _______ _______ _____ _____    ______ ____
ROOT
ATOM      1  O   UNL     1       2.710   8.067  16.988  0.00  0.00    +0.000 OA
ATOM      2  C   UNL     1       2.793   7.700  18.157  0.00  0.00    +0.000 C 
ATOM      3  N   UNL     1       3.701   6.758  18.620  0.00  0.00    +0.000 N 
ATOM      4  H   UNL     1       3.311   6.199  19.374  0.00  0.00    +0.000 HD
ENDROOT
BRANCH   3   5
ATOM      5  C   UNL     1       4.460   5.995  17.685  0.00  0.00    +0.000 A 
ATOM      6  C   UNL     1       5.682   6.574  17.271  0.00  0.00    +0.000 A 
ATOM      7  C   UNL     1       6.535   5.925  16.379  0.00  0.00    +0.000 A 
ATOM      8  C   UNL     1       6.166   4.702  15.841  0.00  0.00    +0.000 A 
ATOM      9  C   UNL     1       4.949   4.134  16.221  0.00  0.00    +0.000 A 
ATOM     10  C   UNL     1       4.074   4.747  17.154  0.00  0.00    +0.000 A 
BRANCH  10  11
ATOM     11  C   UNL     1       2.922   3.842  17.512  0.00  0.00    +0.000 C 
ATOM     12  O   UNL     1       2.351   3.312  16.549  0.00  0.00    +0.000 OA
ATOM     13  N   UNL     1       2.406   3.650  18.809  0.00  0.00    +0.000 N 
ATOM     14  C   UNL     1       1.337   2.651  18.907  0.00  0.00    +0.000 C 
ATOM     15  C   UNL     1       0.507   2.795  20.176  0.00  0.00    +0.000 C 
ATOM     16  C   UNL     1       1.399   2.752  21.406  0.00  0.00    +0.000 C 
ATOM     17  C   UNL     1       2.421   3.870  21.322  0.00  0.00    +0.000 C 
ATOM     18  C   UNL     1       3.188   3.859  20.007  0.00  0.00    +0.000 C 
ENDBRANCH  10  11
ENDBRANCH   3   5
BRANCH   2  19
ATOM     19  C   UNL     1       1.840   8.288  19.146  0.00  0.00    +0.000 A 
ATOM     20  C   UNL     1       1.720   7.835  20.468  0.00  0.00    +0.000 A 
ATOM     21  C   UNL     1       0.938   8.542  21.391  0.00  0.00    +0.000 A 
ATOM     22  C   UNL     1       0.242   9.684  20.995  0.00  0.00    +0.000 A 
ATOM     23  C   UNL     1       0.324  10.105  19.667  0.00  0.00    +0.000 A 
ATOM     24  C   UNL     1       1.124   9.425  18.744  0.00  0.00    +0.000 A 
BRANCH  23  25
ATOM     25  S   UNL     1      -0.680  11.463  19.106  0.00  0.00    +0.000 S 
ATOM     26  O   UNL     1      -1.271  11.033  17.861  0.00  0.00    +0.000 OA
ATOM     27  O   UNL     1      -1.502  11.881  20.218  0.00  0.00    +0.000 OA
BRANCH  25  28
ATOM     28  N   UNL     1       0.424  12.719  18.767  0.00  0.00    +0.000 NA
ATOM     29  C   UNL     1       1.622  12.861  19.653  0.00  0.00    +0.000 C 
ATOM     30  C   UNL     1       1.284  13.568  20.974  0.00  0.00    +0.000 C 
ATOM     31  O   UNL     1       0.628  14.826  20.764  0.00  0.00    +0.000 OA
ATOM     32  C   UNL     1      -0.558  14.678  19.968  0.00  0.00    +0.000 C 
ATOM     33  C   UNL     1      -0.221  14.065  18.605  0.00  0.00    +0.000 C 
ENDBRANCH  25  28
ENDBRANCH  23  25
ENDBRANCH   2  19
TORSDOF 5
ENDMDL
MODEL 4
REMARK VINA RESULT:      -8.7      2.954      9.057
REMARK  Name = 
REMARK  5 active torsions:
REMARK  status: ('A' for Active; 'I' for Inactive)
REMARK    1  A    between atoms: C_2  and  C_18
REMARK    2  A    between atoms: N_3  and  C_4
REMARK    3  A    between atoms: C_9  and  C_10
REMARK    4  A    between atoms: C_22  and  S_23
REMARK    5  A    between atoms: S_23  and  N_26
REMARK                            x       y       z     vdW  Elec       q    Type
REMARK                         _______ _______ _______ _____ _____    ______ ____
ROOT
ATOM      1  O   UNL     1       2.675   8.112  17.066  0.00  0.00    +0.000 OA
ATOM      2  C   UNL     1       2.779   7.727  18.227  0.00  0.00    +0.000 C 
ATOM      3  N   UNL     1       3.686   6.769  18.657  0.00  0.00    +0.000 N 
ATOM      4  H   UNL     1       3.306   6.201  19.410  0.00  0.00    +0.000 HD
ENDROOT
BRANCH   3   5
ATOM      5  C   UNL     1       4.418   6.013  17.695  0.00  0.00    +0.000 A 
ATOM      6  C   UNL     1       5.631   6.592  17.255  0.00  0.00    +0.000 A 
ATOM      7  C   UNL     1       6.458   5.949  16.335  0.00  0.00    +0.000 A 
ATOM      8  C   UNL     1       6.071   4.733  15.795  0.00  0.00    +0.000 A 
ATOM      9  C   UNL     1       4.862   4.165  16.200  0.00  0.00    +0.000 A 
ATOM     10  C   UNL     1       4.014   4.771  17.161  0.00  0.00    +0.000 A 
BRANCH  10  11
ATOM     11  C   UNL     1       2.868   3.866  17.539  0.00  0.00    +0.000 C 
ATOM     12  O   UNL     1       2.277   3.341  16.587  0.00  0.00    +0.000 OA
ATOM     13  N   UNL     1       2.378   3.671  18.846  0.00  0.00    +0.000 N 
ATOM     14  C   UNL     1       1.310   2.673  18.963  0.00  0.00    +0.000 C 
ATOM     15  C   UNL     1       0.506   2.814  20.249  0.00  0.00    +0.000 C 
ATOM     16  C   UNL     1       1.423   2.766  21.460  0.00  0.00    +0.000 C 
ATOM     17  C   UNL     1       2.444   3.883  21.359  0.00  0.00    +0.000 C 
ATOM     18  C   UNL     1       3.185   3.875  20.029  0.00  0.00    +0.000 C 
ENDBRANCH  10  11
ENDBRANCH   3   5
BRANCH   2  19
ATOM     19  C   UNL     1       1.852   8.309  19.244  0.00  0.00    +0.000 A 
ATOM     20  C   UNL     1       1.672   7.768  20.526  0.00  0.00    +0.000 A 
ATOM     21  C   UNL     1       0.926   8.459  21.489  0.00  0.00    +0.000 A 
ATOM     22  C   UNL     1       0.325   9.677  21.172  0.00  0.00    +0.000 A 
ATOM     23  C   UNL     1       0.464  10.190  19.881  0.00  0.00    +0.000 A 
ATOM     24  C   UNL     1       1.230   9.523  18.920  0.00  0.00    +0.000 A 
BRANCH  23  25
ATOM     25  S   UNL     1      -0.425  11.658  19.411  0.00  0.00    +0.000 S 
ATOM     26  O   UNL     1       0.500  12.452  18.636  0.00  0.00    +0.000 OA
ATOM     27  O   UNL     1      -1.692  11.237  18.859  0.00  0.00    +0.000 OA
BRANCH  25  28
ATOM     28  N   UNL     1      -0.735  12.476  20.876  0.00  0.00    +0.000 NA
ATOM     29  C   UNL     1      -2.140  12.486  21.393  0.00  0.00    +0.000 C 
ATOM     30  C   UNL     1      -3.014  13.524  20.673  0.00  0.00    +0.000 C 
ATOM     31  O   UNL     1      -2.430  14.834  20.698  0.00  0.00    +0.000 OA
ATOM     32  C   UNL     1      -1.107  14.836  20.142  0.00  0.00    +0.000 C 
ATOM     33  C   UNL     1      -0.195  13.877  20.914  0.00  0.00    +0.000 C 
ENDBRANCH  25  28
ENDBRANCH  23  25
ENDBRANCH   2  19
TORSDOF 5
ENDMDL
MODEL 5
REMARK VINA RESULT:      -8.7      3.385      8.575
REMARK  Name = 
REMARK  5 active torsions:
REMARK  status: ('A' for Active; 'I' for Inactive)
REMARK    1  A    between atoms: C_2  and  C_18
REMARK    2  A    between atoms: N_3  and  C_4
REMARK    3  A    between atoms: C_9  and  C_10
REMARK    4  A    between atoms: C_22  and  S_23
REMARK    5  A    between atoms: S_23  and  N_26
REMARK                            x       y       z     vdW  Elec       q    Type
REMARK                         _______ _______ _______ _____ _____    ______ ____
ROOT
ATOM      1  O   UNL     1       2.585   8.324  17.165  0.00  0.00    +0.000 OA
ATOM      2  C   UNL     1       2.666   7.873  18.305  0.00  0.00    +0.000 C 
ATOM      3  N   UNL     1       3.542   6.868  18.689  0.00  0.00    +0.000 N 
ATOM      4  H   UNL     1       3.139   6.272  19.408  0.00  0.00    +0.000 HD
ENDROOT
BRANCH   3   5
ATOM      5  C   UNL     1       4.262   6.145  17.694  0.00  0.00    +0.000 A 
ATOM      6  C   UNL     1       5.436   6.769  17.212  0.00  0.00    +0.000 A 
ATOM      7  C   UNL     1       6.248   6.161  16.255  0.00  0.00    +0.000 A 
ATOM      8  C   UNL     1       5.884   4.935  15.722  0.00  0.00    +0.000 A 
ATOM      9  C   UNL     1       4.712   4.322  16.170  0.00  0.00    +0.000 A 
ATOM     10  C   UNL     1       3.881   4.892  17.168  0.00  0.00    +0.000 A 
BRANCH  10  11
ATOM     11  C   UNL     1       2.784   3.945  17.584  0.00  0.00    +0.000 C 
ATOM     12  O   UNL     1       2.190   3.386  16.652  0.00  0.00    +0.000 OA
ATOM     13  N   UNL     1       2.337   3.742  18.906  0.00  0.00    +0.000 N 
ATOM     14  C   UNL     1       1.315   2.703  19.059  0.00  0.00    +0.000 C 
ATOM     15  C   UNL     1       0.540   2.823  20.365  0.00  0.00    +0.000 C 
ATOM     16  C   UNL     1       1.489   2.823  21.552  0.00  0.00    +0.000 C 
ATOM     17  C   UNL     1       2.461   3.980  21.414  0.00  0.00    +0.000 C 
ATOM     18  C   UNL     1       3.166   3.990  20.065  0.00  0.00    +0.000 C 
ENDBRANCH  10  11
ENDBRANCH   3   5
BRANCH   2  19
ATOM     19  C   UNL     1       1.746   8.426  19.344  0.00  0.00    +0.000 A 
ATOM     20  C   UNL     1       1.559   7.837  20.603  0.00  0.00    +0.000 A 
ATOM     21  C   UNL     1       0.820   8.499  21.593  0.00  0.00    +0.000 A 
ATOM     22  C   UNL     1       0.235   9.737  21.324  0.00  0.00    +0.000 A 
ATOM     23  C   UNL     1       0.382  10.298  20.054  0.00  0.00    +0.000 A 
ATOM     24  C   UNL     1       1.140   9.660  19.068  0.00  0.00    +0.000 A 
BRANCH  23  25
ATOM     25  S   UNL     1      -0.488  11.795  19.643  0.00  0.00    +0.000 S 
ATOM     26  O   UNL     1      -0.307  11.983  18.223  0.00  0.00    +0.000 OA
ATOM     27  O   UNL     1      -1.808  11.700  20.222  0.00  0.00    +0.000 OA
BRANCH  25  28
ATOM     28  N   UNL     1       0.355  13.035  20.457  0.00  0.00    +0.000 NA
ATOM     29  C   UNL     1      -0.049  14.452  20.192  0.00  0.00    +0.000 C 
ATOM     30  C   UNL     1       0.529  14.981  18.871  0.00  0.00    +0.000 C 
ATOM     31  O   UNL     1       1.952  14.811  18.796  0.00  0.00    +0.000 OA
ATOM     32  C   UNL     1       2.334  13.440  18.986  0.00  0.00    +0.000 C 
ATOM     33  C   UNL     1       1.848  12.928  20.346  0.00  0.00    +0.000 C 
ENDBRANCH  25  28
ENDBRANCH  23  25
ENDBRANCH   2  19
TORSDOF 5
ENDMDL
MODEL 6
REMARK VINA RESULT:      -8.6      3.030      9.832
REMARK  Name = 
REMARK  5 active torsions:
REMARK  status: ('A' for Active; 'I' for Inactive)
REMARK    1  A    between atoms: C_2  and  C_18
REMARK    2  A    between atoms: N_3  and  C_4
REMARK    3  A    between atoms: C_9  and  C_10
REMARK    4  A    between atoms: C_22  and  S_23
REMARK    5  A    between atoms: S_23  and  N_26
REMARK                            x       y       z     vdW  Elec       q    Type
REMARK                         _______ _______ _______ _____ _____    ______ ____
ROOT
ATOM      1  O   UNL     1       1.973   6.438  17.787  0.00  0.00    +0.000 OA
ATOM      2  C   UNL     1       2.224   7.048  18.823  0.00  0.00    +0.000 C 
ATOM      3  N   UNL     1       2.704   6.458  19.983  0.00  0.00    +0.000 N 
ATOM      4  H   UNL     1       2.346   6.919  20.816  0.00  0.00    +0.000 HD
ENDROOT
BRANCH   3   5
ATOM      5  C   UNL     1       2.725   5.036  20.091  0.00  0.00    +0.000 A 
ATOM      6  C   UNL     1       1.527   4.438  20.545  0.00  0.00    +0.000 A 
ATOM      7  C   UNL     1       1.401   3.056  20.673  0.00  0.00    +0.000 A 
ATOM      8  C   UNL     1       2.485   2.238  20.396  0.00  0.00    +0.000 A 
ATOM      9  C   UNL     1       3.682   2.819  19.973  0.00  0.00    +0.000 A 
ATOM     10  C   UNL     1       3.835   4.217  19.795  0.00  0.00    +0.000 A 
BRANCH  10  11
ATOM     11  C   UNL     1       5.165   4.555  19.169  0.00  0.00    +0.000 C 
ATOM     12  O   UNL     1       6.037   4.934  19.962  0.00  0.00    +0.000 OA
ATOM     13  N   UNL     1       5.438   4.568  17.787  0.00  0.00    +0.000 N 
ATOM     14  C   UNL     1       6.834   4.846  17.435  0.00  0.00    +0.000 C 
ATOM     15  C   UNL     1       7.001   5.303  15.992  0.00  0.00    +0.000 C 
ATOM     16  C   UNL     1       6.397   4.288  15.036  0.00  0.00    +0.000 C 
ATOM     17  C   UNL     1       4.926   4.111  15.359  0.00  0.00    +0.000 C 
ATOM     18  C   UNL     1       4.688   3.788  16.827  0.00  0.00    +0.000 C 
ENDBRANCH  10  11
ENDBRANCH   3   5
BRANCH   2  19
ATOM     19  C   UNL     1       1.976   8.522  18.847  0.00  0.00    +0.000 A 
ATOM     20  C   UNL     1       2.120   9.348  17.723  0.00  0.00    +0.000 A 
ATOM     21  C   UNL     1       1.703  10.685  17.768  0.00  0.00    +0.000 A 
ATOM     22  C   UNL     1       1.172  11.217  18.943  0.00  0.00    +0.000 A 
ATOM     23  C   UNL     1       1.075  10.406  20.075  0.00  0.00    +0.000 A 
ATOM     24  C   UNL     1       1.461   9.063  20.033  0.00  0.00    +0.000 A 
BRANCH  23  25
ATOM     25  S   UNL     1       0.550  11.107  21.623  0.00  0.00    +0.000 S 
ATOM     26  O   UNL     1       0.886  10.133  22.635  0.00  0.00    +0.000 OA
ATOM     27  O   UNL     1       1.067  12.455  21.684  0.00  0.00    +0.000 OA
BRANCH  25  28
ATOM     28  N   UNL     1      -1.150  11.201  21.515  0.00  0.00    +0.000 NA
ATOM     29  C   UNL     1      -1.741  12.078  20.455  0.00  0.00    +0.000 C 
ATOM     30  C   UNL     1      -1.724  13.560  20.857  0.00  0.00    +0.000 C 
ATOM     31  O   UNL     1      -2.339  13.783  22.134  0.00  0.00    +0.000 OA
ATOM     32  C   UNL     1      -1.728  12.988  23.162  0.00  0.00    +0.000 C 
ATOM     33  C   UNL     1      -1.826  11.497  22.822  0.00  0.00    +0.000 C 
ENDBRANCH  25  28
ENDBRANCH  23  25
ENDBRANCH   2  19
TORSDOF 5
ENDMDL
MODEL 7
REMARK VINA RESULT:      -8.6      3.185      8.590
REMARK  Name = 
REMARK  5 active torsions:
REMARK  status: ('A' for Active; 'I' for Inactive)
REMARK    1  A    between atoms: C_2  and  C_18
REMARK    2  A    between atoms: N_3  and  C_4
REMARK    3  A    between atoms: C_9  and  C_10
REMARK    4  A    between atoms: C_22  and  S_23
REMARK    5  A    between atoms: S_23  and  N_26
REMARK                            x       y       z     vdW  Elec       q    Type
REMARK                         _______ _______ _______ _____ _____    ______ ____
ROOT
ATOM      1  O   UNL     1       2.215   7.854  17.309  0.00  0.00    +0.000 OA
ATOM      2  C   UNL     1       2.566   7.578  18.453  0.00  0.00    +0.000 C 
ATOM      3  N   UNL     1       3.664   6.790  18.767  0.00  0.00    +0.000 N 
ATOM      4  H   UNL     1       3.502   6.236  19.604  0.00  0.00    +0.000 HD
ENDROOT
BRANCH   3   5
ATOM      5  C   UNL     1       4.330   6.069  17.733  0.00  0.00    +0.000 A 
ATOM      6  C   UNL     1       5.510   6.666  17.233  0.00  0.00    +0.000 A 
ATOM      7  C   UNL     1       6.274   6.058  16.238  0.00  0.00    +0.000 A 
ATOM      8  C   UNL     1       5.853   4.859  15.684  0.00  0.00    +0.000 A 
ATOM      9  C   UNL     1       4.675   4.273  16.151  0.00  0.00    +0.000 A 
ATOM     10  C   UNL     1       3.892   4.844  17.187  0.00  0.00    +0.000 A 
BRANCH  10  11
ATOM     11  C   UNL     1       2.776   3.923  17.612  0.00  0.00    +0.000 C 
ATOM     12  O   UNL     1       2.138   3.408  16.684  0.00  0.00    +0.000 OA
ATOM     13  N   UNL     1       2.361   3.701  18.940  0.00  0.00    +0.000 N 
ATOM     14  C   UNL     1       1.308   2.692  19.098  0.00  0.00    +0.000 C 
ATOM     15  C   UNL     1       0.575   2.805  20.428  0.00  0.00    +0.000 C 
ATOM     16  C   UNL     1       1.557   2.744  21.587  0.00  0.00    +0.000 C 
ATOM     17  C   UNL     1       2.562   3.871  21.449  0.00  0.00    +0.000 C 
ATOM     18  C   UNL     1       3.229   3.892  20.081  0.00  0.00    +0.000 C 
ENDBRANCH  10  11
ENDBRANCH   3   5
BRANCH   2  19
ATOM     19  C   UNL     1       1.744   8.104  19.585  0.00  0.00    +0.000 A 
ATOM     20  C   UNL     1       1.445   7.360  20.735  0.00  0.00    +0.000 A 
ATOM     21  C   UNL     1       0.822   7.969  21.832  0.00  0.00    +0.000 A 
ATOM     22  C   UNL     1       0.463   9.316  21.778  0.00  0.00    +0.000 A 
ATOM     23  C   UNL     1       0.717  10.043  20.614  0.00  0.00    +0.000 A 
ATOM     24  C   UNL     1       1.364   9.453  19.524  0.00  0.00    +0.000 A 
BRANCH  23  25
ATOM     25  S   UNL     1       0.124  11.714  20.466  0.00  0.00    +0.000 S 
ATOM     26  O   UNL     1      -1.313  11.619  20.369  0.00  0.00    +0.000 OA
ATOM     27  O   UNL     1       0.753  12.489  21.511  0.00  0.00    +0.000 OA
BRANCH  25  28
ATOM     28  N   UNL     1       0.726  12.267  18.968  0.00  0.00    +0.000 NA
ATOM     29  C   UNL     1       2.089  12.885  18.942  0.00  0.00    +0.000 C 
ATOM     30  C   UNL     1       2.073  14.341  19.428  0.00  0.00    +0.000 C 
ATOM     31  O   UNL     1       1.114  15.139  18.719  0.00  0.00    +0.000 OA
ATOM     32  C   UNL     1      -0.205  14.580  18.800  0.00  0.00    +0.000 C 
ATOM     33  C   UNL     1      -0.226  13.159  18.225  0.00  0.00    +0.000 C 
ENDBRANCH  25  28
ENDBRANCH  23  25
ENDBRANCH   2  19
TORSDOF 5
ENDMDL
MODEL 8
REMARK VINA RESULT:      -8.5      3.152      9.985
REMARK  Name = 
REMARK  5 active torsions:
REMARK  status: ('A' for Active; 'I' for Inactive)
REMARK    1  A    between atoms: C_2  and  C_18
REMARK    2  A    between atoms: N_3  and  C_4
REMARK    3  A    between atoms: C_9  and  C_10
REMARK    4  A    between atoms: C_22  and  S_23
REMARK    5  A    between atoms: S_23  and  N_26
REMARK                            x       y       z     vdW  Elec       q    Type
REMARK                         _______ _______ _______ _____ _____    ______ ____
ROOT
ATOM      1  O   UNL     1       1.928   6.152  20.823  0.00  0.00    +0.000 OA
ATOM      2  C   UNL     1       1.924   6.514  19.649  0.00  0.00    +0.000 C 
ATOM      3  N   UNL     1       2.025   5.654  18.564  0.00  0.00    +0.000 N 
ATOM      4  H   UNL     1       2.537   6.078  17.795  0.00  0.00    +0.000 HD
ENDROOT
BRANCH   3   5
ATOM      5  C   UNL     1       2.362   4.286  18.780  0.00  0.00    +0.000 A 
ATOM      6  C   UNL     1       1.269   3.408  18.968  0.00  0.00    +0.000 A 
ATOM      7  C   UNL     1       1.454   2.040  19.164  0.00  0.00    +0.000 A 
ATOM      8  C   UNL     1       2.737   1.522  19.226  0.00  0.00    +0.000 A 
ATOM      9  C   UNL     1       3.825   2.383  19.070  0.00  0.00    +0.000 A 
ATOM     10  C   UNL     1       3.675   3.773  18.831  0.00  0.00    +0.000 A 
BRANCH  10  11
ATOM     11  C   UNL     1       4.998   4.430  18.531  0.00  0.00    +0.000 C 
ATOM     12  O   UNL     1       5.596   4.882  19.516  0.00  0.00    +0.000 OA
ATOM     13  N   UNL     1       5.528   4.650  17.243  0.00  0.00    +0.000 N 
ATOM     14  C   UNL     1       6.874   5.232  17.220  0.00  0.00    +0.000 C 
ATOM     15  C   UNL     1       7.219   5.870  15.881  0.00  0.00    +0.000 C 
ATOM     16  C   UNL     1       7.046   4.869  14.751  0.00  0.00    +0.000 C 
ATOM     17  C   UNL     1       5.613   4.374  14.737  0.00  0.00    +0.000 C 
ATOM     18  C   UNL     1       5.166   3.850  16.095  0.00  0.00    +0.000 C 
ENDBRANCH  10  11
ENDBRANCH   3   5
BRANCH   2  19
ATOM     19  C   UNL     1       1.827   7.978  19.367  0.00  0.00    +0.000 A 
ATOM     20  C   UNL     1       2.101   8.543  18.113  0.00  0.00    +0.000 A 
ATOM     21  C   UNL     1       1.821   9.894  17.868  0.00  0.00    +0.000 A 
ATOM     22  C   UNL     1       1.300  10.699  18.881  0.00  0.00    +0.000 A 
ATOM     23  C   UNL     1       1.075  10.146  20.143  0.00  0.00    +0.000 A 
ATOM     24  C   UNL     1       1.323   8.793  20.390  0.00  0.00    +0.000 A 
BRANCH  23  25
ATOM     25  S   UNL     1       0.562  11.191  21.489  0.00  0.00    +0.000 S 
ATOM     26  O   UNL     1       0.612  10.368  22.673  0.00  0.00    +0.000 OA
ATOM     27  O   UNL     1       1.324  12.416  21.398  0.00  0.00    +0.000 OA
BRANCH  25  28
ATOM     28  N   UNL     1      -1.071  11.563  21.164  0.00  0.00    +0.000 NA
ATOM     29  C   UNL     1      -1.363  12.695  20.228  0.00  0.00    +0.000 C 
ATOM     30  C   UNL     1      -1.229  14.062  20.915  0.00  0.00    +0.000 C 
ATOM     31  O   UNL     1      -2.015  14.147  22.112  0.00  0.00    +0.000 OA
ATOM     32  C   UNL     1      -1.688  13.099  23.037  0.00  0.00    +0.000 C 
ATOM     33  C   UNL     1      -1.912  11.724  22.397  0.00  0.00    +0.000 C 
ENDBRANCH  25  28
ENDBRANCH  23  25
ENDBRANCH   2  19
TORSDOF 5
ENDMDL
MODEL 9
REMARK VINA RESULT:      -8.4      2.967      9.906
REMARK  Name = 
REMARK  5 active torsions:
REMARK  status: ('A' for Active; 'I' for Inactive)
REMARK    1  A    between atoms: C_2  and  C_18
REMARK    2  A    between atoms: N_3  and  C_4
REMARK    3  A    between atoms: C_9  and  C_10
REMARK    4  A    between atoms: C_22  and  S_23
REMARK    5  A    between atoms: S_23  and  N_26
REMARK                            x       y       z     vdW  Elec       q    Type
REMARK                         _______ _______ _______ _____ _____    ______ ____
ROOT
ATOM      1  O   UNL     1       2.433   6.332  17.663  0.00  0.00    +0.000 OA
ATOM      2  C   UNL     1       2.435   6.898  18.753  0.00  0.00    +0.000 C 
ATOM      3  N   UNL     1       2.687   6.266  19.963  0.00  0.00    +0.000 N 
ATOM      4  H   UNL     1       2.143   6.673  20.720  0.00  0.00    +0.000 HD
ENDROOT
BRANCH   3   5
ATOM      5  C   UNL     1       2.749   4.843  20.013  0.00  0.00    +0.000 A 
ATOM      6  C   UNL     1       1.560   4.192  20.416  0.00  0.00    +0.000 A 
ATOM      7  C   UNL     1       1.473   2.802  20.485  0.00  0.00    +0.000 A 
ATOM      8  C   UNL     1       2.586   2.029  20.198  0.00  0.00    +0.000 A 
ATOM      9  C   UNL     1       3.774   2.661  19.826  0.00  0.00    +0.000 A 
ATOM     10  C   UNL     1       3.889   4.069  19.709  0.00  0.00    +0.000 A 
BRANCH  10  11
ATOM     11  C   UNL     1       5.221   4.471  19.128  0.00  0.00    +0.000 C 
ATOM     12  O   UNL     1       6.074   4.816  19.957  0.00  0.00    +0.000 OA
ATOM     13  N   UNL     1       5.514   4.578  17.753  0.00  0.00    +0.000 N 
ATOM     14  C   UNL     1       6.910   4.903  17.443  0.00  0.00    +0.000 C 
ATOM     15  C   UNL     1       7.090   5.455  16.034  0.00  0.00    +0.000 C 
ATOM     16  C   UNL     1       6.520   4.491  15.006  0.00  0.00    +0.000 C 
ATOM     17  C   UNL     1       5.048   4.266  15.294  0.00  0.00    +0.000 C 
ATOM     18  C   UNL     1       4.794   3.846  16.735  0.00  0.00    +0.000 C 
ENDBRANCH  10  11
ENDBRANCH   3   5
BRANCH   2  19
ATOM     19  C   UNL     1       2.122   8.359  18.786  0.00  0.00    +0.000 A 
ATOM     20  C   UNL     1       2.520   9.257  17.786  0.00  0.00    +0.000 A 
ATOM     21  C   UNL     1       2.045  10.575  17.787  0.00  0.00    +0.000 A 
ATOM     22  C   UNL     1       1.198  11.017  18.803  0.00  0.00    +0.000 A 
ATOM     23  C   UNL     1       0.842  10.135  19.825  0.00  0.00    +0.000 A 
ATOM     24  C   UNL     1       1.287   8.809  19.819  0.00  0.00    +0.000 A 
BRANCH  23  25
ATOM     25  S   UNL     1      -0.106  10.722  21.211  0.00  0.00    +0.000 S 
ATOM     26  O   UNL     1      -1.350   9.991  21.181  0.00  0.00    +0.000 OA
ATOM     27  O   UNL     1       0.756  10.683  22.371  0.00  0.00    +0.000 OA
BRANCH  25  28
ATOM     28  N   UNL     1      -0.438  12.358  20.860  0.00  0.00    +0.000 NA
ATOM     29  C   UNL     1      -0.078  13.386  21.886  0.00  0.00    +0.000 C 
ATOM     30  C   UNL     1      -1.113  13.460  23.018  0.00  0.00    +0.000 C 
ATOM     31  O   UNL     1      -2.446  13.650  22.523  0.00  0.00    +0.000 OA
ATOM     32  C   UNL     1      -2.814  12.625  21.586  0.00  0.00    +0.000 C 
ATOM     33  C   UNL     1      -1.845  12.606  20.399  0.00  0.00    +0.000 C 
ENDBRANCH  25  28
ENDBRANCH  23  25
ENDBRANCH   2  19
TORSDOF 5
ENDMDL
