MODEL 1
REMARK VINA RESULT:      -6.9      0.000      0.000
REMARK  Name = 
REMARK  6 active torsions:
REMARK  status: ('A' for Active; 'I' for Inactive)
REMARK    1  A    between atoms: C_1  and  C_2
REMARK    2  A    between atoms: C_5  and  C_6
REMARK    3  A    between atoms: C_9  and  C_10
REMARK    4  A    between atoms: C_12  and  N_13
REMARK    5  A    between atoms: C_14  and  C_15
REMARK    6  A    between atoms: C_17  and  C_18
REMARK                            x       y       z     vdW  Elec       q    Type
REMARK                         _______ _______ _______ _____ _____    ______ ____
ROOT
ATOM      1  C   UNL     1      -0.013  12.876  21.544  0.00  0.00    +0.000 C 
ATOM      2  C   UNL     1      -0.953  12.484  22.764  0.00  0.00    +0.000 C 
ATOM      3  C   UNL     1      -2.402  12.608  22.285  0.00  0.00    +0.000 A 
ATOM      4  C   UNL     1      -3.522  13.210  22.867  0.00  0.00    +0.000 A 
ATOM      5  C   UNL     1      -4.684  13.402  22.054  0.00  0.00    +0.000 A 
ATOM      6  C   UNL     1      -4.699  12.919  20.696  0.00  0.00    +0.000 A 
ATOM      7  C   UNL     1      -3.533  12.441  20.077  0.00  0.00    +0.000 A 
ATOM      8  C   UNL     1      -2.424  12.538  20.894  0.00  0.00    +0.000 A 
ATOM      9  S   UNL     1      -1.212  13.947  20.646  0.00  0.00    +0.000 S 
ENDROOT
BRANCH   1  14
ATOM     10  C   UNL     1       1.684   8.714  17.743  0.00  0.00    +0.000 C 
ATOM     11  C   UNL     1       1.363   9.831  18.689  0.00  0.00    +0.000 A 
ATOM     12  C   UNL     1       0.877   9.493  19.939  0.00  0.00    +0.000 A 
ATOM     13  C   UNL     1       0.391  10.489  20.768  0.00  0.00    +0.000 A 
ATOM     14  C   UNL     1       0.479  11.880  20.470  0.00  0.00    +0.000 A 
ATOM     15  C   UNL     1       1.022  12.212  19.227  0.00  0.00    +0.000 A 
ATOM     16  C   UNL     1       1.446  11.191  18.343  0.00  0.00    +0.000 A 
ENDBRANCH   1  14
BRANCH   7  17
ATOM     17  C   UNL     1      -3.428  11.732  18.771  0.00  0.00    +0.000 A 
ATOM     18  C   UNL     1      -2.327  10.938  18.419  0.00  0.00    +0.000 A 
ATOM     19  C   UNL     1      -2.181  10.406  17.130  0.00  0.00    +0.000 A 
ATOM     20  C   UNL     1      -3.173  10.598  16.176  0.00  0.00    +0.000 A 
ATOM     21 BR   UNL     1      -2.962   9.884  14.439  0.00  0.00    +0.000 Br
ATOM     22  C   UNL     1      -4.313  11.316  16.503  0.00  0.00    +0.000 A 
ATOM     23  C   UNL     1      -4.429  11.885  17.780  0.00  0.00    +0.000 A 
ENDBRANCH   7  17
BRANCH   5  24
ATOM     24  N   UNL     1      -5.699  14.307  22.447  0.00  0.00    +0.000 N 
ATOM     25  H   UNL     1      -6.577  13.931  22.787  0.00  0.00    +0.000 HD
ATOM     26  H   UNL     1      -5.818  15.159  21.901  0.00  0.00    +0.000 HD
ENDBRANCH   5  24
BRANCH   4  27
ATOM     27  C   UNL     1      -3.435  13.825  24.166  0.00  0.00    +0.000 C 
ATOM     28  N   UNL     1      -3.343  14.356  25.197  0.00  0.00    +0.000 NA
ENDBRANCH   4  27
BRANCH   6  29
ATOM     29  C   UNL     1      -5.948  12.916  19.993  0.00  0.00    +0.000 C 
ATOM     30  N   UNL     1      -6.979  12.887  19.464  0.00  0.00    +0.000 NA
ENDBRANCH   6  29
TORSDOF 5
ENDMDL
MODEL 2
REMARK VINA RESULT:      -6.0      1.644      2.423
REMARK  Name = 
REMARK  6 active torsions:
REMARK  status: ('A' for Active; 'I' for Inactive)
REMARK    1  A    between atoms: C_1  and  C_2
REMARK    2  A    between atoms: C_5  and  C_6
REMARK    3  A    between atoms: C_9  and  C_10
REMARK    4  A    between atoms: C_12  and  N_13
REMARK    5  A    between atoms: C_14  and  C_15
REMARK    6  A    between atoms: C_17  and  C_18
REMARK                            x       y       z     vdW  Elec       q    Type
REMARK                         _______ _______ _______ _____ _____    ______ ____
ROOT
ATOM      1  C   UNL     1      -1.335  13.780  23.295  0.00  0.00    +0.000 C 
ATOM      2  C   UNL     1      -2.701  13.951  24.089  0.00  0.00    +0.000 C 
ATOM      3  C   UNL     1      -3.797  14.240  23.058  0.00  0.00    +0.000 A 
ATOM      4  C   UNL     1      -4.810  15.203  23.030  0.00  0.00    +0.000 A 
ATOM      5  C   UNL     1      -5.517  15.403  21.801  0.00  0.00    +0.000 A 
ATOM      6  C   UNL     1      -5.219  14.576  20.658  0.00  0.00    +0.000 A 
ATOM      7  C   UNL     1      -4.115  13.710  20.650  0.00  0.00    +0.000 A 
ATOM      8  C   UNL     1      -3.370  13.793  21.810  0.00  0.00    +0.000 A 
ATOM      9  S   UNL     1      -1.781  14.788  21.820  0.00  0.00    +0.000 S 
ENDROOT
BRANCH   1  14
ATOM     10  C   UNL     1       0.902   8.959  20.765  0.00  0.00    +0.000 C 
ATOM     11  C   UNL     1       0.218  10.135  21.393  0.00  0.00    +0.000 A 
ATOM     12  C   UNL     1       0.589  11.397  20.965  0.00  0.00    +0.000 A 
ATOM     13  C   UNL     1       0.123  12.507  21.648  0.00  0.00    +0.000 A 
ATOM     14  C   UNL     1      -0.835  12.444  22.701  0.00  0.00    +0.000 A 
ATOM     15  C   UNL     1      -1.244  11.166  23.088  0.00  0.00    +0.000 A 
ATOM     16  C   UNL     1      -0.708  10.024  22.445  0.00  0.00    +0.000 A 
ENDBRANCH   1  14
BRANCH   7  17
ATOM     17  C   UNL     1      -3.797  12.660  19.641  0.00  0.00    +0.000 A 
ATOM     18  C   UNL     1      -2.489  12.377  19.220  0.00  0.00    +0.000 A 
ATOM     19  C   UNL     1      -2.228  11.494  18.163  0.00  0.00    +0.000 A 
ATOM     20  C   UNL     1      -3.270  10.816  17.543  0.00  0.00    +0.000 A 
ATOM     21 BR   UNL     1      -2.908   9.635  16.113  0.00  0.00    +0.000 Br
ATOM     22  C   UNL     1      -4.573  11.011  17.975  0.00  0.00    +0.000 A 
ATOM     23  C   UNL     1      -4.830  11.932  19.002  0.00  0.00    +0.000 A 
ENDBRANCH   7  17
BRANCH   5  24
ATOM     24  N   UNL     1      -6.282  16.575  21.591  0.00  0.00    +0.000 N 
ATOM     25  H   UNL     1      -7.281  16.538  21.765  0.00  0.00    +0.000 HD
ATOM     26  H   UNL     1      -6.040  17.169  20.799  0.00  0.00    +0.000 HD
ENDBRANCH   5  24
BRANCH   4  27
ATOM     27  C   UNL     1      -4.984  16.121  24.125  0.00  0.00    +0.000 C 
ATOM     28  N   UNL     1      -5.101  16.835  25.037  0.00  0.00    +0.000 NA
ENDBRANCH   4  27
BRANCH   6  29
ATOM     29  C   UNL     1      -6.100  14.642  19.529  0.00  0.00    +0.000 C 
ATOM     30  N   UNL     1      -6.834  14.737  18.637  0.00  0.00    +0.000 NA
ENDBRANCH   6  29
TORSDOF 5
ENDMDL
MODEL 3
REMARK VINA RESULT:      -5.8      0.824      1.244
REMARK  Name = 
REMARK  6 active torsions:
REMARK  status: ('A' for Active; 'I' for Inactive)
REMARK    1  A    between atoms: C_1  and  C_2
REMARK    2  A    between atoms: C_5  and  C_6
REMARK    3  A    between atoms: C_9  and  C_10
REMARK    4  A    between atoms: C_12  and  N_13
REMARK    5  A    between atoms: C_14  and  C_15
REMARK    6  A    between atoms: C_17  and  C_18
REMARK                            x       y       z     vdW  Elec       q    Type
REMARK                         _______ _______ _______ _____ _____    ______ ____
ROOT
ATOM      1  C   UNL     1      -0.245  13.802  21.705  0.00  0.00    +0.000 C 
ATOM      2  C   UNL     1      -1.190  13.545  22.957  0.00  0.00    +0.000 C 
ATOM      3  C   UNL     1      -2.635  13.549  22.449  0.00  0.00    +0.000 A 
ATOM      4  C   UNL     1      -3.784  14.184  22.932  0.00  0.00    +0.000 A 
ATOM      5  C   UNL     1      -4.939  14.221  22.087  0.00  0.00    +0.000 A 
ATOM      6  C   UNL     1      -4.915  13.558  20.807  0.00  0.00    +0.000 A 
ATOM      7  C   UNL     1      -3.724  13.044  20.271  0.00  0.00    +0.000 A 
ATOM      8  C   UNL     1      -2.632  13.292  21.080  0.00  0.00    +0.000 A 
ATOM      9  S   UNL     1      -1.466  14.698  20.657  0.00  0.00    +0.000 S 
ENDROOT
BRANCH   1  14
ATOM     10  C   UNL     1       1.969   9.924  17.870  0.00  0.00    +0.000 C 
ATOM     11  C   UNL     1       1.307  10.832  18.862  0.00  0.00    +0.000 A 
ATOM     12  C   UNL     1       1.199  12.171  18.532  0.00  0.00    +0.000 A 
ATOM     13  C   UNL     1       0.770  13.071  19.493  0.00  0.00    +0.000 A 
ATOM     14  C   UNL     1       0.299  12.688  20.782  0.00  0.00    +0.000 A 
ATOM     15  C   UNL     1       0.363  11.327  21.083  0.00  0.00    +0.000 A 
ATOM     16  C   UNL     1       0.876  10.412  20.132  0.00  0.00    +0.000 A 
ENDBRANCH   1  14
BRANCH   7  17
ATOM     17  C   UNL     1      -3.574  12.169  19.075  0.00  0.00    +0.000 A 
ATOM     18  C   UNL     1      -2.396  11.463  18.787  0.00  0.00    +0.000 A 
ATOM     19  C   UNL     1      -2.225  10.769  17.581  0.00  0.00    +0.000 A 
ATOM     20  C   UNL     1      -3.261  10.706  16.657  0.00  0.00    +0.000 A 
ATOM     21 BR   UNL     1      -3.018   9.776  15.030  0.00  0.00    +0.000 Br
ATOM     22  C   UNL     1      -4.469  11.330  16.932  0.00  0.00    +0.000 A 
ATOM     23  C   UNL     1      -4.615  12.061  18.120  0.00  0.00    +0.000 A 
ENDBRANCH   7  17
BRANCH   5  24
ATOM     24  N   UNL     1      -5.991  15.133  22.343  0.00  0.00    +0.000 N 
ATOM     25  H   UNL     1      -6.930  14.882  22.052  0.00  0.00    +0.000 HD
ATOM     26  H   UNL     1      -5.797  16.128  22.237  0.00  0.00    +0.000 HD
ENDBRANCH   5  24
BRANCH   4  27
ATOM     27  C   UNL     1      -3.739  14.971  24.136  0.00  0.00    +0.000 C 
ATOM     28  N   UNL     1      -3.658  15.612  25.104  0.00  0.00    +0.000 NA
ENDBRANCH   4  27
BRANCH   6  29
ATOM     29  C   UNL     1      -6.153  13.414  20.098  0.00  0.00    +0.000 C 
ATOM     30  N   UNL     1      -7.165  13.259  19.555  0.00  0.00    +0.000 NA
ENDBRANCH   6  29
TORSDOF 5
ENDMDL
MODEL 4
REMARK VINA RESULT:      -5.8      2.274      4.841
REMARK  Name = 
REMARK  6 active torsions:
REMARK  status: ('A' for Active; 'I' for Inactive)
REMARK    1  A    between atoms: C_1  and  C_2
REMARK    2  A    between atoms: C_5  and  C_6
REMARK    3  A    between atoms: C_9  and  C_10
REMARK    4  A    between atoms: C_12  and  N_13
REMARK    5  A    between atoms: C_14  and  C_15
REMARK    6  A    between atoms: C_17  and  C_18
REMARK                            x       y       z     vdW  Elec       q    Type
REMARK                         _______ _______ _______ _____ _____    ______ ____
ROOT
ATOM      1  C   UNL     1      -6.257  12.631  19.264  0.00  0.00    +0.000 C 
ATOM      2  C   UNL     1      -6.282  14.197  19.532  0.00  0.00    +0.000 C 
ATOM      3  C   UNL     1      -5.170  14.508  20.538  0.00  0.00    +0.000 A 
ATOM      4  C   UNL     1      -5.164  15.284  21.702  0.00  0.00    +0.000 A 
ATOM      5  C   UNL     1      -4.044  15.166  22.586  0.00  0.00    +0.000 A 
ATOM      6  C   UNL     1      -2.935  14.316  22.231  0.00  0.00    +0.000 A 
ATOM      7  C   UNL     1      -3.006  13.440  21.136  0.00  0.00    +0.000 A 
ATOM      8  C   UNL     1      -4.237  13.474  20.512  0.00  0.00    +0.000 A 
ATOM      9  S   UNL     1      -5.488  12.122  20.859  0.00  0.00    +0.000 S 
ENDROOT
BRANCH   1  14
ATOM     10  C   UNL     1      -2.805   9.680  15.520  0.00  0.00    +0.000 C 
ATOM     11  C   UNL     1      -3.635  10.538  16.424  0.00  0.00    +0.000 A 
ATOM     12  C   UNL     1      -3.655  10.220  17.770  0.00  0.00    +0.000 A 
ATOM     13  C   UNL     1      -4.553  10.864  18.604  0.00  0.00    +0.000 A 
ATOM     14  C   UNL     1      -5.383  11.946  18.189  0.00  0.00    +0.000 A 
ATOM     15  C   UNL     1      -5.314  12.294  16.839  0.00  0.00    +0.000 A 
ATOM     16  C   UNL     1      -4.456  11.584  15.966  0.00  0.00    +0.000 A 
ENDBRANCH   1  14
BRANCH   7  17
ATOM     17  C   UNL     1      -1.891  12.659  20.531  0.00  0.00    +0.000 A 
ATOM     18  C   UNL     1      -1.395  12.908  19.242  0.00  0.00    +0.000 A 
ATOM     19  C   UNL     1      -0.453  12.065  18.636  0.00  0.00    +0.000 A 
ATOM     20  C   UNL     1       0.072  10.985  19.335  0.00  0.00    +0.000 A 
ATOM     21 BR   UNL     1       1.335   9.850  18.506  0.00  0.00    +0.000 Br
ATOM     22  C   UNL     1      -0.336  10.743  20.638  0.00  0.00    +0.000 A 
ATOM     23  C   UNL     1      -1.315  11.563  21.219  0.00  0.00    +0.000 A 
ENDBRANCH   7  17
BRANCH   5  24
ATOM     24  N   UNL     1      -4.128  15.625  23.922  0.00  0.00    +0.000 N 
ATOM     25  H   UNL     1      -4.944  16.161  24.198  0.00  0.00    +0.000 HD
ATOM     26  H   UNL     1      -3.273  15.947  24.372  0.00  0.00    +0.000 HD
ENDBRANCH   5  24
BRANCH   4  27
ATOM     27  C   UNL     1      -6.342  16.001  22.114  0.00  0.00    +0.000 C 
ATOM     28  N   UNL     1      -7.310  16.578  22.405  0.00  0.00    +0.000 NA
ENDBRANCH   4  27
BRANCH   6  29
ATOM     29  C   UNL     1      -1.739  14.404  23.016  0.00  0.00    +0.000 C 
ATOM     30  N   UNL     1      -0.796  14.507  23.682  0.00  0.00    +0.000 NA
ENDBRANCH   6  29
TORSDOF 5
ENDMDL
MODEL 5
REMARK VINA RESULT:      -5.7      2.188      2.967
REMARK  Name = 
REMARK  6 active torsions:
REMARK  status: ('A' for Active; 'I' for Inactive)
REMARK    1  A    between atoms: C_1  and  C_2
REMARK    2  A    between atoms: C_5  and  C_6
REMARK    3  A    between atoms: C_9  and  C_10
REMARK    4  A    between atoms: C_12  and  N_13
REMARK    5  A    between atoms: C_14  and  C_15
REMARK    6  A    between atoms: C_17  and  C_18
REMARK                            x       y       z     vdW  Elec       q    Type
REMARK                         _______ _______ _______ _____ _____    ______ ____
ROOT
ATOM      1  C   UNL     1      -1.426  16.522  21.539  0.00  0.00    +0.000 C 
ATOM      2  C   UNL     1      -1.803  16.184  23.045  0.00  0.00    +0.000 C 
ATOM      3  C   UNL     1      -3.048  15.291  23.017  0.00  0.00    +0.000 A 
ATOM      4  C   UNL     1      -4.242  15.344  23.743  0.00  0.00    +0.000 A 
ATOM      5  C   UNL     1      -5.335  14.531  23.302  0.00  0.00    +0.000 A 
ATOM      6  C   UNL     1      -5.164  13.643  22.180  0.00  0.00    +0.000 A 
ATOM      7  C   UNL     1      -4.015  13.694  21.375  0.00  0.00    +0.000 A 
ATOM      8  C   UNL     1      -3.143  14.693  21.762  0.00  0.00    +0.000 A 
ATOM      9  S   UNL     1      -3.105  16.308  20.812  0.00  0.00    +0.000 S 
ENDROOT
BRANCH   1  14
ATOM     10  C   UNL     1       2.193  12.948  18.577  0.00  0.00    +0.000 C 
ATOM     11  C   UNL     1       1.311  13.952  19.255  0.00  0.00    +0.000 A 
ATOM     12  C   UNL     1       1.332  13.994  20.637  0.00  0.00    +0.000 A 
ATOM     13  C   UNL     1       0.399  14.769  21.305  0.00  0.00    +0.000 A 
ATOM     14  C   UNL     1      -0.516  15.644  20.651  0.00  0.00    +0.000 A 
ATOM     15  C   UNL     1      -0.492  15.632  19.255  0.00  0.00    +0.000 A 
ATOM     16  C   UNL     1       0.407  14.781  18.568  0.00  0.00    +0.000 A 
ENDBRANCH   1  14
BRANCH   7  17
ATOM     17  C   UNL     1      -3.606  12.724  20.321  0.00  0.00    +0.000 A 
ATOM     18  C   UNL     1      -2.291  12.256  20.182  0.00  0.00    +0.000 A 
ATOM     19  C   UNL     1      -1.898  11.464  19.094  0.00  0.00    +0.000 A 
ATOM     20  C   UNL     1      -2.833  11.062  18.148  0.00  0.00    +0.000 A 
ATOM     21 BR   UNL     1      -2.292  10.003  16.679  0.00  0.00    +0.000 Br
ATOM     22  C   UNL     1      -4.160  11.442  18.284  0.00  0.00    +0.000 A 
ATOM     23  C   UNL     1      -4.534  12.273  19.350  0.00  0.00    +0.000 A 
ENDBRANCH   7  17
BRANCH   5  24
ATOM     24  N   UNL     1      -6.653  14.793  23.747  0.00  0.00    +0.000 N 
ATOM     25  H   UNL     1      -6.835  15.665  24.232  0.00  0.00    +0.000 HD
ATOM     26  H   UNL     1      -7.197  14.014  24.117  0.00  0.00    +0.000 HD
ENDBRANCH   5  24
BRANCH   4  27
ATOM     27  C   UNL     1      -4.444  16.346  24.756  0.00  0.00    +0.000 C 
ATOM     28  N   UNL     1      -4.611  17.188  25.542  0.00  0.00    +0.000 NA
ENDBRANCH   4  27
BRANCH   6  29
ATOM     29  C   UNL     1      -6.194  12.681  21.917  0.00  0.00    +0.000 C 
ATOM     30  N   UNL     1      -7.060  11.941  21.705  0.00  0.00    +0.000 NA
ENDBRANCH   6  29
TORSDOF 5
ENDMDL
MODEL 6
REMARK VINA RESULT:      -5.7      3.350      5.999
REMARK  Name = 
REMARK  6 active torsions:
REMARK  status: ('A' for Active; 'I' for Inactive)
REMARK    1  A    between atoms: C_1  and  C_2
REMARK    2  A    between atoms: C_5  and  C_6
REMARK    3  A    between atoms: C_9  and  C_10
REMARK    4  A    between atoms: C_12  and  N_13
REMARK    5  A    between atoms: C_14  and  C_15
REMARK    6  A    between atoms: C_17  and  C_18
REMARK                            x       y       z     vdW  Elec       q    Type
REMARK                         _______ _______ _______ _____ _____    ______ ____
ROOT
ATOM      1  C   UNL     1      -0.213  12.514  22.325  0.00  0.00    +0.000 C 
ATOM      2  C   UNL     1       0.507  12.693  20.919  0.00  0.00    +0.000 C 
ATOM      3  C   UNL     1      -0.498  12.292  19.835  0.00  0.00    +0.000 A 
ATOM      4  C   UNL     1      -0.368  11.471  18.711  0.00  0.00    +0.000 A 
ATOM      5  C   UNL     1      -1.561  11.065  18.031  0.00  0.00    +0.000 A 
ATOM      6  C   UNL     1      -2.842  11.556  18.472  0.00  0.00    +0.000 A 
ATOM      7  C   UNL     1      -2.979  12.265  19.676  0.00  0.00    +0.000 A 
ATOM      8  C   UNL     1      -1.785  12.377  20.361  0.00  0.00    +0.000 A 
ATOM      9  S   UNL     1      -1.440  11.240  21.811  0.00  0.00    +0.000 S 
ENDROOT
BRANCH   1  14
ATOM     10  C   UNL     1      -3.780  16.300  25.080  0.00  0.00    +0.000 C 
ATOM     11  C   UNL     1      -2.863  15.422  24.285  0.00  0.00    +0.000 A 
ATOM     12  C   UNL     1      -3.228  14.098  24.117  0.00  0.00    +0.000 A 
ATOM     13  C   UNL     1      -2.323  13.212  23.557  0.00  0.00    +0.000 A 
ATOM     14  C   UNL     1      -1.067  13.604  23.011  0.00  0.00    +0.000 A 
ATOM     15  C   UNL     1      -0.733  14.954  23.137  0.00  0.00    +0.000 A 
ATOM     16  C   UNL     1      -1.621  15.848  23.782  0.00  0.00    +0.000 A 
ENDBRANCH   1  14
BRANCH   7  17
ATOM     17  C   UNL     1      -4.181  13.000  20.161  0.00  0.00    +0.000 A 
ATOM     18  C   UNL     1      -4.171  14.373  20.450  0.00  0.00    +0.000 A 
ATOM     19  C   UNL     1      -5.267  15.011  21.047  0.00  0.00    +0.000 A 
ATOM     20  C   UNL     1      -6.433  14.302  21.308  0.00  0.00    +0.000 A 
ATOM     21 BR   UNL     1      -7.902  15.169  22.121  0.00  0.00    +0.000 Br
ATOM     22  C   UNL     1      -6.513  12.959  20.972  0.00  0.00    +0.000 A 
ATOM     23  C   UNL     1      -5.395  12.317  20.419  0.00  0.00    +0.000 A 
ENDBRANCH   7  17
BRANCH   5  24
ATOM     24  N   UNL     1      -1.543   9.971  17.133  0.00  0.00    +0.000 N 
ATOM     25  H   UNL     1      -0.679   9.762  16.643  0.00  0.00    +0.000 HD
ATOM     26  H   UNL     1      -2.371   9.806  16.563  0.00  0.00    +0.000 HD
ENDBRANCH   5  24
BRANCH   4  27
ATOM     27  C   UNL     1       0.896  10.866  18.383  0.00  0.00    +0.000 C 
ATOM     28  N   UNL     1       1.939  10.406  18.147  0.00  0.00    +0.000 NA
ENDBRANCH   4  27
BRANCH   6  29
ATOM     29  C   UNL     1      -3.981  11.322  17.633  0.00  0.00    +0.000 C 
ATOM     30  N   UNL     1      -4.870  11.131  16.914  0.00  0.00    +0.000 NA
ENDBRANCH   6  29
TORSDOF 5
ENDMDL
MODEL 7
REMARK VINA RESULT:      -5.7      2.861      5.660
REMARK  Name = 
REMARK  6 active torsions:
REMARK  status: ('A' for Active; 'I' for Inactive)
REMARK    1  A    between atoms: C_1  and  C_2
REMARK    2  A    between atoms: C_5  and  C_6
REMARK    3  A    between atoms: C_9  and  C_10
REMARK    4  A    between atoms: C_12  and  N_13
REMARK    5  A    between atoms: C_14  and  C_15
REMARK    6  A    between atoms: C_17  and  C_18
REMARK                            x       y       z     vdW  Elec       q    Type
REMARK                         _______ _______ _______ _____ _____    ______ ____
ROOT
ATOM      1  C   UNL     1      -7.389  13.532  20.476  0.00  0.00    +0.000 C 
ATOM      2  C   UNL     1      -7.219  15.100  20.670  0.00  0.00    +0.000 C 
ATOM      3  C   UNL     1      -6.082  15.317  21.673  0.00  0.00    +0.000 A 
ATOM      4  C   UNL     1      -5.984  16.140  22.799  0.00  0.00    +0.000 A 
ATOM      5  C   UNL     1      -4.892  15.925  23.700  0.00  0.00    +0.000 A 
ATOM      6  C   UNL     1      -3.897  14.927  23.396  0.00  0.00    +0.000 A 
ATOM      7  C   UNL     1      -4.071  14.016  22.343  0.00  0.00    +0.000 A 
ATOM      8  C   UNL     1      -5.286  14.174  21.704  0.00  0.00    +0.000 A 
ATOM      9  S   UNL     1      -6.698  13.007  22.101  0.00  0.00    +0.000 S 
ENDROOT
BRANCH   1  14
ATOM     10  C   UNL     1      -4.372  10.747  16.259  0.00  0.00    +0.000 C 
ATOM     11  C   UNL     1      -5.212  11.352  17.342  0.00  0.00    +0.000 A 
ATOM     12  C   UNL     1      -5.696  12.632  17.139  0.00  0.00    +0.000 A 
ATOM     13  C   UNL     1      -6.311  13.296  18.186  0.00  0.00    +0.000 A 
ATOM     14  C   UNL     1      -6.603  12.693  19.443  0.00  0.00    +0.000 A 
ATOM     15  C   UNL     1      -6.158  11.381  19.617  0.00  0.00    +0.000 A 
ATOM     16  C   UNL     1      -5.456  10.726  18.577  0.00  0.00    +0.000 A 
ENDBRANCH   1  14
BRANCH   7  17
ATOM     17  C   UNL     1      -3.061  13.074  21.786  0.00  0.00    +0.000 A 
ATOM     18  C   UNL     1      -2.269  12.240  22.590  0.00  0.00    +0.000 A 
ATOM     19  C   UNL     1      -1.222  11.475  22.056  0.00  0.00    +0.000 A 
ATOM     20  C   UNL     1      -0.984  11.473  20.687  0.00  0.00    +0.000 A 
ATOM     21 BR   UNL     1       0.435  10.446  19.979  0.00  0.00    +0.000 Br
ATOM     22  C   UNL     1      -1.789  12.227  19.846  0.00  0.00    +0.000 A 
ATOM     23  C   UNL     1      -2.804  13.025  20.394  0.00  0.00    +0.000 A 
ENDBRANCH   7  17
BRANCH   5  24
ATOM     24  N   UNL     1      -4.924  16.454  25.012  0.00  0.00    +0.000 N 
ATOM     25  H   UNL     1      -4.053  16.523  25.527  0.00  0.00    +0.000 HD
ATOM     26  H   UNL     1      -5.716  16.211  25.606  0.00  0.00    +0.000 HD
ENDBRANCH   5  24
BRANCH   4  27
ATOM     27  C   UNL     1      -7.066  17.017  23.165  0.00  0.00    +0.000 C 
ATOM     28  N   UNL     1      -7.916  17.738  23.498  0.00  0.00    +0.000 NA
ENDBRANCH   4  27
BRANCH   6  29
ATOM     29  C   UNL     1      -2.703  14.902  24.189  0.00  0.00    +0.000 C 
ATOM     30  N   UNL     1      -1.766  14.889  24.871  0.00  0.00    +0.000 NA
ENDBRANCH   6  29
TORSDOF 5
ENDMDL
MODEL 8
REMARK VINA RESULT:      -5.7      1.013      1.702
REMARK  Name = 
REMARK  6 active torsions:
REMARK  status: ('A' for Active; 'I' for Inactive)
REMARK    1  A    between atoms: C_1  and  C_2
REMARK    2  A    between atoms: C_5  and  C_6
REMARK    3  A    between atoms: C_9  and  C_10
REMARK    4  A    between atoms: C_12  and  N_13
REMARK    5  A    between atoms: C_14  and  C_15
REMARK    6  A    between atoms: C_17  and  C_18
REMARK                            x       y       z     vdW  Elec       q    Type
REMARK                         _______ _______ _______ _____ _____    ______ ____
ROOT
ATOM      1  C   UNL     1      -1.189  12.718  21.760  0.00  0.00    +0.000 C 
ATOM      2  C   UNL     1      -2.381  12.256  22.703  0.00  0.00    +0.000 C 
ATOM      3  C   UNL     1      -3.679  12.387  21.899  0.00  0.00    +0.000 A 
ATOM      4  C   UNL     1      -4.918  12.947  22.226  0.00  0.00    +0.000 A 
ATOM      5  C   UNL     1      -5.859  13.167  21.169  0.00  0.00    +0.000 A 
ATOM      6  C   UNL     1      -5.540  12.752  19.826  0.00  0.00    +0.000 A 
ATOM      7  C   UNL     1      -4.250  12.319  19.480  0.00  0.00    +0.000 A 
ATOM      8  C   UNL     1      -3.369  12.387  20.541  0.00  0.00    +0.000 A 
ATOM      9  S   UNL     1      -2.165  13.821  20.653  0.00  0.00    +0.000 S 
ENDROOT
BRANCH   1  14
ATOM     10  C   UNL     1       1.850   9.568  17.825  0.00  0.00    +0.000 C 
ATOM     11  C   UNL     1       0.983  10.285  18.814  0.00  0.00    +0.000 A 
ATOM     12  C   UNL     1       0.832  11.651  18.663  0.00  0.00    +0.000 A 
ATOM     13  C   UNL     1       0.200  12.377  19.659  0.00  0.00    +0.000 A 
ATOM     14  C   UNL     1      -0.434  11.783  20.789  0.00  0.00    +0.000 A 
ATOM     15  C   UNL     1      -0.321  10.396  20.903  0.00  0.00    +0.000 A 
ATOM     16  C   UNL     1       0.395   9.660  19.928  0.00  0.00    +0.000 A 
ENDBRANCH   1  14
BRANCH   7  17
ATOM     17  C   UNL     1      -3.824  11.677  18.205  0.00  0.00    +0.000 A 
ATOM     18  C   UNL     1      -4.492  11.879  16.988  0.00  0.00    +0.000 A 
ATOM     19  C   UNL     1      -4.167  11.148  15.836  0.00  0.00    +0.000 A 
ATOM     20  C   UNL     1      -3.113  10.242  15.856  0.00  0.00    +0.000 A 
ATOM     21 BR   UNL     1      -2.689   9.256  14.301  0.00  0.00    +0.000 Br
ATOM     22  C   UNL     1      -2.379  10.064  17.019  0.00  0.00    +0.000 A 
ATOM     23  C   UNL     1      -2.741  10.764  18.179  0.00  0.00    +0.000 A 
ENDBRANCH   7  17
BRANCH   5  24
ATOM     24  N   UNL     1      -6.957  14.040  21.352  0.00  0.00    +0.000 N 
ATOM     25  H   UNL     1      -6.999  14.888  20.797  0.00  0.00    +0.000 HD
ATOM     26  H   UNL     1      -7.313  14.169  22.298  0.00  0.00    +0.000 HD
ENDBRANCH   5  24
BRANCH   4  27
ATOM     27  C   UNL     1      -5.154  13.497  23.535  0.00  0.00    +0.000 C 
ATOM     28  N   UNL     1      -5.351  13.982  24.575  0.00  0.00    +0.000 NA
ENDBRANCH   4  27
BRANCH   6  29
ATOM     29  C   UNL     1      -6.588  12.770  18.848  0.00  0.00    +0.000 C 
ATOM     30  N   UNL     1      -7.432  12.836  18.056  0.00  0.00    +0.000 NA
ENDBRANCH   6  29
TORSDOF 5
ENDMDL
MODEL 9
REMARK VINA RESULT:      -5.7      1.152      1.399
REMARK  Name = 
REMARK  6 active torsions:
REMARK  status: ('A' for Active; 'I' for Inactive)
REMARK    1  A    between atoms: C_1  and  C_2
REMARK    2  A    between atoms: C_5  and  C_6
REMARK    3  A    between atoms: C_9  and  C_10
REMARK    4  A    between atoms: C_12  and  N_13
REMARK    5  A    between atoms: C_14  and  C_15
REMARK    6  A    between atoms: C_17  and  C_18
REMARK                            x       y       z     vdW  Elec       q    Type
REMARK                         _______ _______ _______ _____ _____    ______ ____
ROOT
ATOM      1  C   UNL     1      -0.267  14.694  21.539  0.00  0.00    +0.000 C 
ATOM      2  C   UNL     1      -0.874  14.242  22.936  0.00  0.00    +0.000 C 
ATOM      3  C   UNL     1      -2.345  13.886  22.702  0.00  0.00    +0.000 A 
ATOM      4  C   UNL     1      -3.505  14.234  23.403  0.00  0.00    +0.000 A 
ATOM      5  C   UNL     1      -4.770  13.973  22.786  0.00  0.00    +0.000 A 
ATOM      6  C   UNL     1      -4.822  13.310  21.508  0.00  0.00    +0.000 A 
ATOM      7  C   UNL     1      -3.662  13.088  20.750  0.00  0.00    +0.000 A 
ATOM      8  C   UNL     1      -2.532  13.609  21.350  0.00  0.00    +0.000 A 
ATOM      9  S   UNL     1      -1.839  15.246  20.755  0.00  0.00    +0.000 S 
ENDROOT
BRANCH   1  14
ATOM     10  C   UNL     1       2.053  10.650  17.946  0.00  0.00    +0.000 C 
ATOM     11  C   UNL     1       1.549  11.761  18.816  0.00  0.00    +0.000 A 
ATOM     12  C   UNL     1       1.336  11.481  20.154  0.00  0.00    +0.000 A 
ATOM     13  C   UNL     1       0.695  12.417  20.947  0.00  0.00    +0.000 A 
ATOM     14  C   UNL     1       0.351  13.727  20.504  0.00  0.00    +0.000 A 
ATOM     15  C   UNL     1       0.621  14.017  19.165  0.00  0.00    +0.000 A 
ATOM     16  C   UNL     1       1.203  13.033  18.329  0.00  0.00    +0.000 A 
ENDBRANCH   1  14
BRANCH   7  17
ATOM     17  C   UNL     1      -3.528  12.251  19.525  0.00  0.00    +0.000 A 
ATOM     18  C   UNL     1      -2.351  11.562  19.195  0.00  0.00    +0.000 A 
ATOM     19  C   UNL     1      -2.198  10.906  17.965  0.00  0.00    +0.000 A 
ATOM     20  C   UNL     1      -3.249  10.864  17.058  0.00  0.00    +0.000 A 
ATOM     21 BR   UNL     1      -3.030   9.986  15.400  0.00  0.00    +0.000 Br
ATOM     22  C   UNL     1      -4.456  11.471  17.373  0.00  0.00    +0.000 A 
ATOM     23  C   UNL     1      -4.585  12.165  18.585  0.00  0.00    +0.000 A 
ENDBRANCH   7  17
BRANCH   5  24
ATOM     24  N   UNL     1      -5.945  14.609  23.253  0.00  0.00    +0.000 N 
ATOM     25  H   UNL     1      -5.865  15.269  24.020  0.00  0.00    +0.000 HD
ATOM     26  H   UNL     1      -6.803  14.061  23.292  0.00  0.00    +0.000 HD
ENDBRANCH   5  24
BRANCH   4  27
ATOM     27  C   UNL     1      -3.430  15.033  24.598  0.00  0.00    +0.000 C 
ATOM     28  N   UNL     1      -3.329  15.694  25.551  0.00  0.00    +0.000 NA
ENDBRANCH   4  27
BRANCH   6  29
ATOM     29  C   UNL     1      -6.097  12.856  21.034  0.00  0.00    +0.000 C 
ATOM     30  N   UNL     1      -7.125  12.524  20.614  0.00  0.00    +0.000 NA
ENDBRANCH   6  29
TORSDOF 5
ENDMDL
