MODEL 1
REMARK VINA RESULT:      -7.4      0.000      0.000
REMARK  Name = 
REMARK  5 active torsions:
REMARK  status: ('A' for Active; 'I' for Inactive)
REMARK    1  A    between atoms: C_1  and  N_2
REMARK    2  A    between atoms: N_11  and  C_12
REMARK    3  A    between atoms: C_12  and  C_13
REMARK    4  A    between atoms: C_12  and  C_14
REMARK    5  A    between atoms: C_12  and  C_15
REMARK                            x       y       z     vdW  Elec       q    Type
REMARK                         _______ _______ _______ _____ _____    ______ ____
ROOT
ATOM      1  C   UNL     1       0.735   2.123  18.881  0.00  0.00    +0.000 C 
ATOM      2  N   UNL     1       2.134   2.260  19.310  0.00  0.00    +0.000 NA
ATOM      3  C   UNL     1       3.069   2.255  18.163  0.00  0.00    +0.000 C 
ATOM      4  C   UNL     1       3.075   3.600  17.417  0.00  0.00    +0.000 C 
ATOM      5  C   UNL     1       3.425   4.753  18.368  0.00  0.00    +0.000 C 
ATOM      6  C   UNL     1       2.405   4.770  19.526  0.00  0.00    +0.000 C 
ATOM      7  C   UNL     1       2.357   3.398  20.239  0.00  0.00    +0.000 C 
ATOM      8  O   UNL     1       3.420   5.942  17.659  0.00  0.00    +0.000 OA
ATOM      9  C   UNL     1       4.690   6.383  17.525  0.00  0.00    +0.000 C 
ATOM     10  O   UNL     1       4.969   7.368  16.853  0.00  0.00    +0.000 OA
ATOM     11  N   UNL     1       5.602   5.609  18.152  0.00  0.00    +0.000 N 
ATOM     12  C   UNL     1       4.878   4.652  18.771  0.00  0.00    +0.000 C 
ATOM     13  O   UNL     1       5.347   3.768  19.470  0.00  0.00    +0.000 OA
ENDROOT
BRANCH  11  14
ATOM     14  C   UNL     1       7.073   5.741  18.065  0.00  0.00    +0.000 C 
ATOM     15  C   UNL     1       7.468   7.084  17.428  0.00  0.00    +0.000 C 
ATOM     16  C   UNL     1       7.767   5.644  19.448  0.00  0.00    +0.000 C 
ATOM     17  C   UNL     1       7.607   4.572  17.211  0.00  0.00    +0.000 C 
ENDBRANCH  11  14
TORSDOF 1
ENDMDL
MODEL 2
REMARK VINA RESULT:      -7.4      0.130      1.062
REMARK  Name = 
REMARK  5 active torsions:
REMARK  status: ('A' for Active; 'I' for Inactive)
REMARK    1  A    between atoms: C_1  and  N_2
REMARK    2  A    between atoms: N_11  and  C_12
REMARK    3  A    between atoms: C_12  and  C_13
REMARK    4  A    between atoms: C_12  and  C_14
REMARK    5  A    between atoms: C_12  and  C_15
REMARK                            x       y       z     vdW  Elec       q    Type
REMARK                         _______ _______ _______ _____ _____    ______ ____
ROOT
ATOM      1  C   UNL     1       0.652   2.119  18.942  0.00  0.00    +0.000 C 
ATOM      2  N   UNL     1       2.068   2.210  19.322  0.00  0.00    +0.000 NA
ATOM      3  C   UNL     1       2.958   2.257  18.141  0.00  0.00    +0.000 C 
ATOM      4  C   UNL     1       2.959   3.643  17.474  0.00  0.00    +0.000 C 
ATOM      5  C   UNL     1       3.366   4.733  18.476  0.00  0.00    +0.000 C 
ATOM      6  C   UNL     1       2.391   4.699  19.671  0.00  0.00    +0.000 C 
ATOM      7  C   UNL     1       2.346   3.288  20.306  0.00  0.00    +0.000 C 
ATOM      8  O   UNL     1       3.354   5.962  17.837  0.00  0.00    +0.000 OA
ATOM      9  C   UNL     1       4.625   6.390  17.679  0.00  0.00    +0.000 C 
ATOM     10  O   UNL     1       4.895   7.409  17.054  0.00  0.00    +0.000 OA
ATOM     11  N   UNL     1       5.547   5.567  18.224  0.00  0.00    +0.000 N 
ATOM     12  C   UNL     1       4.830   4.587  18.814  0.00  0.00    +0.000 C 
ATOM     13  O   UNL     1       5.311   3.657  19.442  0.00  0.00    +0.000 OA
ENDROOT
BRANCH  11  14
ATOM     14  C   UNL     1       7.016   5.682  18.087  0.00  0.00    +0.000 C 
ATOM     15  C   UNL     1       7.580   4.539  17.226  0.00  0.00    +0.000 C 
ATOM     16  C   UNL     1       7.456   7.025  17.450  0.00  0.00    +0.000 C 
ATOM     17  C   UNL     1       7.630   5.632  19.502  0.00  0.00    +0.000 C 
ENDBRANCH  11  14
TORSDOF 1
ENDMDL
MODEL 3
REMARK VINA RESULT:      -7.3      1.810      2.881
REMARK  Name = 
REMARK  5 active torsions:
REMARK  status: ('A' for Active; 'I' for Inactive)
REMARK    1  A    between atoms: C_1  and  N_2
REMARK    2  A    between atoms: N_11  and  C_12
REMARK    3  A    between atoms: C_12  and  C_13
REMARK    4  A    between atoms: C_12  and  C_14
REMARK    5  A    between atoms: C_12  and  C_15
REMARK                            x       y       z     vdW  Elec       q    Type
REMARK                         _______ _______ _______ _____ _____    ______ ____
ROOT
ATOM      1  C   UNL     1       1.289   2.904  21.266  0.00  0.00    +0.000 C 
ATOM      2  N   UNL     1       1.499   3.050  19.819  0.00  0.00    +0.000 NA
ATOM      3  C   UNL     1       1.930   4.419  19.456  0.00  0.00    +0.000 C 
ATOM      4  C   UNL     1       3.413   4.663  19.783  0.00  0.00    +0.000 C 
ATOM      5  C   UNL     1       4.306   3.632  19.080  0.00  0.00    +0.000 C 
ATOM      6  C   UNL     1       3.873   2.217  19.516  0.00  0.00    +0.000 C 
ATOM      7  C   UNL     1       2.367   1.992  19.240  0.00  0.00    +0.000 C 
ATOM      8  O   UNL     1       5.629   3.887  19.400  0.00  0.00    +0.000 OA
ATOM      9  C   UNL     1       6.261   4.378  18.311  0.00  0.00    +0.000 C 
ATOM     10  O   UNL     1       7.419   4.775  18.355  0.00  0.00    +0.000 OA
ATOM     11  N   UNL     1       5.481   4.431  17.209  0.00  0.00    +0.000 N 
ATOM     12  C   UNL     1       4.303   3.893  17.592  0.00  0.00    +0.000 C 
ATOM     13  O   UNL     1       3.339   3.740  16.860  0.00  0.00    +0.000 OA
ENDROOT
BRANCH  11  14
ATOM     14  C   UNL     1       5.835   5.053  15.914  0.00  0.00    +0.000 C 
ATOM     15  C   UNL     1       7.360   5.170  15.758  0.00  0.00    +0.000 C 
ATOM     16  C   UNL     1       5.286   4.262  14.699  0.00  0.00    +0.000 C 
ATOM     17  C   UNL     1       5.189   6.454  15.868  0.00  0.00    +0.000 C 
ENDBRANCH  11  14
TORSDOF 1
ENDMDL
MODEL 4
REMARK VINA RESULT:      -7.2      1.797      2.724
REMARK  Name = 
REMARK  5 active torsions:
REMARK  status: ('A' for Active; 'I' for Inactive)
REMARK    1  A    between atoms: C_1  and  N_2
REMARK    2  A    between atoms: N_11  and  C_12
REMARK    3  A    between atoms: C_12  and  C_13
REMARK    4  A    between atoms: C_12  and  C_14
REMARK    5  A    between atoms: C_12  and  C_15
REMARK                            x       y       z     vdW  Elec       q    Type
REMARK                         _______ _______ _______ _____ _____    ______ ____
ROOT
ATOM      1  C   UNL     1       1.250   2.897  21.248  0.00  0.00    +0.000 C 
ATOM      2  N   UNL     1       1.454   3.087  19.806  0.00  0.00    +0.000 NA
ATOM      3  C   UNL     1       1.909   4.458  19.485  0.00  0.00    +0.000 C 
ATOM      4  C   UNL     1       3.399   4.662  19.810  0.00  0.00    +0.000 C 
ATOM      5  C   UNL     1       4.268   3.638  19.068  0.00  0.00    +0.000 C 
ATOM      6  C   UNL     1       3.809   2.218  19.460  0.00  0.00    +0.000 C 
ATOM      7  C   UNL     1       2.298   2.032  19.187  0.00  0.00    +0.000 C 
ATOM      8  O   UNL     1       5.597   3.857  19.387  0.00  0.00    +0.000 OA
ATOM      9  C   UNL     1       6.232   4.370  18.311  0.00  0.00    +0.000 C 
ATOM     10  O   UNL     1       7.398   4.744  18.362  0.00  0.00    +0.000 OA
ATOM     11  N   UNL     1       5.448   4.475  17.217  0.00  0.00    +0.000 N 
ATOM     12  C   UNL     1       4.262   3.948  17.590  0.00  0.00    +0.000 C 
ATOM     13  O   UNL     1       3.290   3.838  16.859  0.00  0.00    +0.000 OA
ENDROOT
BRANCH  11  14
ATOM     14  C   UNL     1       5.806   5.133  15.941  0.00  0.00    +0.000 C 
ATOM     15  C   UNL     1       5.147   6.518  15.832  0.00  0.00    +0.000 C 
ATOM     16  C   UNL     1       7.335   5.314  15.768  0.00  0.00    +0.000 C 
ATOM     17  C   UNL     1       5.326   4.225  14.788  0.00  0.00    +0.000 C 
ENDBRANCH  11  14
TORSDOF 1
ENDMDL
MODEL 5
REMARK VINA RESULT:      -7.2      0.122      1.048
REMARK  Name = 
REMARK  5 active torsions:
REMARK  status: ('A' for Active; 'I' for Inactive)
REMARK    1  A    between atoms: C_1  and  N_2
REMARK    2  A    between atoms: N_11  and  C_12
REMARK    3  A    between atoms: C_12  and  C_13
REMARK    4  A    between atoms: C_12  and  C_14
REMARK    5  A    between atoms: C_12  and  C_15
REMARK                            x       y       z     vdW  Elec       q    Type
REMARK                         _______ _______ _______ _____ _____    ______ ____
ROOT
ATOM      1  C   UNL     1       0.655   2.124  18.921  0.00  0.00    +0.000 C 
ATOM      2  N   UNL     1       2.069   2.212  19.309  0.00  0.00    +0.000 NA
ATOM      3  C   UNL     1       2.966   2.255  18.133  0.00  0.00    +0.000 C 
ATOM      4  C   UNL     1       2.974   3.640  17.463  0.00  0.00    +0.000 C 
ATOM      5  C   UNL     1       3.376   4.731  18.464  0.00  0.00    +0.000 C 
ATOM      6  C   UNL     1       2.395   4.701  19.654  0.00  0.00    +0.000 C 
ATOM      7  C   UNL     1       2.343   3.292  20.292  0.00  0.00    +0.000 C 
ATOM      8  O   UNL     1       3.371   5.958  17.822  0.00  0.00    +0.000 OA
ATOM      9  C   UNL     1       4.644   6.383  17.671  0.00  0.00    +0.000 C 
ATOM     10  O   UNL     1       4.920   7.400  17.045  0.00  0.00    +0.000 OA
ATOM     11  N   UNL     1       5.561   5.560  18.223  0.00  0.00    +0.000 N 
ATOM     12  C   UNL     1       4.839   4.582  18.812  0.00  0.00    +0.000 C 
ATOM     13  O   UNL     1       5.314   3.653  19.445  0.00  0.00    +0.000 OA
ENDROOT
BRANCH  11  14
ATOM     14  C   UNL     1       7.031   5.671  18.095  0.00  0.00    +0.000 C 
ATOM     15  C   UNL     1       7.707   5.645  19.475  0.00  0.00    +0.000 C 
ATOM     16  C   UNL     1       7.646   4.536  17.237  0.00  0.00    +0.000 C 
ATOM     17  C   UNL     1       7.346   7.001  17.376  0.00  0.00    +0.000 C 
ENDBRANCH  11  14
TORSDOF 1
ENDMDL
MODEL 6
REMARK VINA RESULT:      -7.1      1.569      2.647
REMARK  Name = 
REMARK  5 active torsions:
REMARK  status: ('A' for Active; 'I' for Inactive)
REMARK    1  A    between atoms: C_1  and  N_2
REMARK    2  A    between atoms: N_11  and  C_12
REMARK    3  A    between atoms: C_12  and  C_13
REMARK    4  A    between atoms: C_12  and  C_14
REMARK    5  A    between atoms: C_12  and  C_15
REMARK                            x       y       z     vdW  Elec       q    Type
REMARK                         _______ _______ _______ _____ _____    ______ ____
ROOT
ATOM      1  C   UNL     1       1.083   2.852  20.864  0.00  0.00    +0.000 C 
ATOM      2  N   UNL     1       1.525   3.134  19.492  0.00  0.00    +0.000 NA
ATOM      3  C   UNL     1       1.925   4.549  19.317  0.00  0.00    +0.000 C 
ATOM      4  C   UNL     1       3.313   4.834  19.916  0.00  0.00    +0.000 C 
ATOM      5  C   UNL     1       4.375   3.913  19.300  0.00  0.00    +0.000 C 
ATOM      6  C   UNL     1       3.963   2.446  19.543  0.00  0.00    +0.000 C 
ATOM      7  C   UNL     1       2.543   2.174  18.992  0.00  0.00    +0.000 C 
ATOM      8  O   UNL     1       5.607   4.202  19.865  0.00  0.00    +0.000 OA
ATOM      9  C   UNL     1       6.382   4.816  18.944  0.00  0.00    +0.000 C 
ATOM     10  O   UNL     1       7.488   5.263  19.221  0.00  0.00    +0.000 OA
ATOM     11  N   UNL     1       5.798   4.929  17.731  0.00  0.00    +0.000 N 
ATOM     12  C   UNL     1       4.608   4.304  17.860  0.00  0.00    +0.000 C 
ATOM     13  O   UNL     1       3.794   4.169  16.961  0.00  0.00    +0.000 OA
ENDROOT
BRANCH  11  14
ATOM     14  C   UNL     1       6.327   5.679  16.570  0.00  0.00    +0.000 C 
ATOM     15  C   UNL     1       7.082   4.745  15.610  0.00  0.00    +0.000 C 
ATOM     16  C   UNL     1       5.215   6.398  15.765  0.00  0.00    +0.000 C 
ATOM     17  C   UNL     1       7.277   6.772  17.103  0.00  0.00    +0.000 C 
ENDBRANCH  11  14
TORSDOF 1
ENDMDL
MODEL 7
REMARK VINA RESULT:      -6.9      1.658      5.255
REMARK  Name = 
REMARK  5 active torsions:
REMARK  status: ('A' for Active; 'I' for Inactive)
REMARK    1  A    between atoms: C_1  and  N_2
REMARK    2  A    between atoms: N_11  and  C_12
REMARK    3  A    between atoms: C_12  and  C_13
REMARK    4  A    between atoms: C_12  and  C_14
REMARK    5  A    between atoms: C_12  and  C_15
REMARK                            x       y       z     vdW  Elec       q    Type
REMARK                         _______ _______ _______ _____ _____    ______ ____
ROOT
ATOM      1  C   UNL     1       6.922   5.236  15.425  0.00  0.00    +0.000 C 
ATOM      2  N   UNL     1       5.599   5.558  15.976  0.00  0.00    +0.000 NA
ATOM      3  C   UNL     1       4.699   4.383  15.983  0.00  0.00    +0.000 C 
ATOM      4  C   UNL     1       5.032   3.408  17.125  0.00  0.00    +0.000 C 
ATOM      5  C   UNL     1       4.974   4.116  18.485  0.00  0.00    +0.000 C 
ATOM      6  C   UNL     1       5.959   5.304  18.471  0.00  0.00    +0.000 C 
ATOM      7  C   UNL     1       5.660   6.254  17.287  0.00  0.00    +0.000 C 
ATOM      8  O   UNL     1       5.279   3.206  19.483  0.00  0.00    +0.000 OA
ATOM      9  C   UNL     1       4.159   2.928  20.186  0.00  0.00    +0.000 C 
ATOM     10  O   UNL     1       4.139   2.076  21.065  0.00  0.00    +0.000 OA
ATOM     11  N   UNL     1       3.080   3.635  19.788  0.00  0.00    +0.000 N 
ATOM     12  C   UNL     1       3.540   4.453  18.817  0.00  0.00    +0.000 C 
ATOM     13  O   UNL     1       2.861   5.274  18.222  0.00  0.00    +0.000 OA
ENDROOT
BRANCH  11  14
ATOM     14  C   UNL     1       1.688   3.448  20.256  0.00  0.00    +0.000 C 
ATOM     15  C   UNL     1       0.852   2.696  19.208  0.00  0.00    +0.000 C 
ATOM     16  C   UNL     1       1.604   2.665  21.591  0.00  0.00    +0.000 C 
ATOM     17  C   UNL     1       1.082   4.845  20.514  0.00  0.00    +0.000 C 
ENDBRANCH  11  14
TORSDOF 1
ENDMDL
MODEL 8
REMARK VINA RESULT:      -6.9      1.552      5.149
REMARK  Name = 
REMARK  5 active torsions:
REMARK  status: ('A' for Active; 'I' for Inactive)
REMARK    1  A    between atoms: C_1  and  N_2
REMARK    2  A    between atoms: N_11  and  C_12
REMARK    3  A    between atoms: C_12  and  C_13
REMARK    4  A    between atoms: C_12  and  C_14
REMARK    5  A    between atoms: C_12  and  C_15
REMARK                            x       y       z     vdW  Elec       q    Type
REMARK                         _______ _______ _______ _____ _____    ______ ____
ROOT
ATOM      1  C   UNL     1       7.470   7.083  17.175  0.00  0.00    +0.000 C 
ATOM      2  N   UNL     1       6.664   5.885  16.903  0.00  0.00    +0.000 NA
ATOM      3  C   UNL     1       6.639   4.959  18.058  0.00  0.00    +0.000 C 
ATOM      4  C   UNL     1       5.694   5.447  19.169  0.00  0.00    +0.000 C 
ATOM      5  C   UNL     1       4.271   5.646  18.630  0.00  0.00    +0.000 C 
ATOM      6  C   UNL     1       4.316   6.655  17.464  0.00  0.00    +0.000 C 
ATOM      7  C   UNL     1       5.311   6.193  16.373  0.00  0.00    +0.000 C 
ATOM      8  O   UNL     1       3.455   6.085  19.659  0.00  0.00    +0.000 OA
ATOM      9  C   UNL     1       2.606   5.092  20.004  0.00  0.00    +0.000 C 
ATOM     10  O   UNL     1       1.843   5.191  20.957  0.00  0.00    +0.000 OA
ATOM     11  N   UNL     1       2.725   3.985  19.239  0.00  0.00    +0.000 N 
ATOM     12  C   UNL     1       3.658   4.302  18.316  0.00  0.00    +0.000 C 
ATOM     13  O   UNL     1       4.027   3.561  17.419  0.00  0.00    +0.000 OA
ENDROOT
BRANCH  11  14
ATOM     14  C   UNL     1       2.049   2.688  19.461  0.00  0.00    +0.000 C 
ATOM     15  C   UNL     1       2.907   1.524  18.939  0.00  0.00    +0.000 C 
ATOM     16  C   UNL     1       1.737   2.423  20.956  0.00  0.00    +0.000 C 
ATOM     17  C   UNL     1       0.696   2.724  18.719  0.00  0.00    +0.000 C 
ENDBRANCH  11  14
TORSDOF 1
ENDMDL
MODEL 9
REMARK VINA RESULT:      -6.9      1.546      5.175
REMARK  Name = 
REMARK  5 active torsions:
REMARK  status: ('A' for Active; 'I' for Inactive)
REMARK    1  A    between atoms: C_1  and  N_2
REMARK    2  A    between atoms: N_11  and  C_12
REMARK    3  A    between atoms: C_12  and  C_13
REMARK    4  A    between atoms: C_12  and  C_14
REMARK    5  A    between atoms: C_12  and  C_15
REMARK                            x       y       z     vdW  Elec       q    Type
REMARK                         _______ _______ _______ _____ _____    ______ ____
ROOT
ATOM      1  C   UNL     1       7.465   7.143  17.262  0.00  0.00    +0.000 C 
ATOM      2  N   UNL     1       6.678   5.938  16.969  0.00  0.00    +0.000 NA
ATOM      3  C   UNL     1       6.639   5.006  18.118  0.00  0.00    +0.000 C 
ATOM      4  C   UNL     1       5.667   5.480  19.212  0.00  0.00    +0.000 C 
ATOM      5  C   UNL     1       4.253   5.666  18.646  0.00  0.00    +0.000 C 
ATOM      6  C   UNL     1       4.311   6.682  17.485  0.00  0.00    +0.000 C 
ATOM      7  C   UNL     1       5.333   6.234  16.412  0.00  0.00    +0.000 C 
ATOM      8  O   UNL     1       3.412   6.092  19.660  0.00  0.00    +0.000 OA
ATOM      9  C   UNL     1       2.567   5.088  19.983  0.00  0.00    +0.000 C 
ATOM     10  O   UNL     1       1.783   5.176  20.921  0.00  0.00    +0.000 OA
ATOM     11  N   UNL     1       2.712   3.987  19.216  0.00  0.00    +0.000 N 
ATOM     12  C   UNL     1       3.661   4.318  18.313  0.00  0.00    +0.000 C 
ATOM     13  O   UNL     1       4.055   3.585  17.420  0.00  0.00    +0.000 OA
ENDROOT
BRANCH  11  14
ATOM     14  C   UNL     1       2.045   2.682  19.418  0.00  0.00    +0.000 C 
ATOM     15  C   UNL     1       0.662   2.661  18.746  0.00  0.00    +0.000 C 
ATOM     16  C   UNL     1       2.869   1.494  18.859  0.00  0.00    +0.000 C 
ATOM     17  C   UNL     1       1.900   2.453  20.938  0.00  0.00    +0.000 C 
ENDBRANCH  11  14
TORSDOF 1
ENDMDL
