MODEL 1
REMARK VINA RESULT:      -7.4      0.000      0.000
REMARK  Name = 
REMARK  4 active torsions:
REMARK  status: ('A' for Active; 'I' for Inactive)
REMARK    1  A    between atoms: C_3  and  C_4
REMARK    2  A    between atoms: N_5  and  C_6
REMARK    3  A    between atoms: C_6  and  C_7
REMARK    4  A    between atoms: C_13  and  O_14
REMARK                            x       y       z     vdW  Elec       q    Type
REMARK                         _______ _______ _______ _____ _____    ______ ____
ROOT
ATOM      1  O   UNL     1       2.084   9.090  17.286  0.00  0.00    +0.000 OA
ATOM      2  C   UNL     1       1.934   8.606  18.391  0.00  0.00    +0.000 C 
ATOM      3  C   UNL     1       2.323   7.246  18.816  0.00  0.00    +0.000 C 
ATOM      4  C   UNL     1       1.983   7.115  20.108  0.00  0.00    +0.000 C 
ATOM      5  C   UNL     1       1.371   8.330  20.601  0.00  0.00    +0.000 A 
ATOM      6  C   UNL     1       0.867   8.664  21.844  0.00  0.00    +0.000 A 
ATOM      7  C   UNL     1       0.325   9.944  22.016  0.00  0.00    +0.000 A 
ATOM      8  C   UNL     1       0.296  10.867  20.952  0.00  0.00    +0.000 A 
ATOM      9  C   UNL     1       0.808  10.524  19.699  0.00  0.00    +0.000 A 
ATOM     10  C   UNL     1       1.334   9.253  19.560  0.00  0.00    +0.000 A 
ENDROOT
BRANCH   3  11
ATOM     11  C   UNL     1       2.964   6.211  18.007  0.00  0.00    +0.000 C 
ATOM     12  N   UNL     1       2.716   4.959  18.210  0.00  0.00    +0.000 NA
BRANCH  12  13
ATOM     13  C   UNL     1       3.437   4.032  17.336  0.00  0.00    +0.000 C 
BRANCH  13  14
ATOM     14  C   UNL     1       4.919   4.271  17.397  0.00  0.00    +0.000 A 
ATOM     15  C   UNL     1       5.685   4.425  16.240  0.00  0.00    +0.000 A 
ATOM     16  C   UNL     1       7.061   4.612  16.344  0.00  0.00    +0.000 A 
ATOM     17  C   UNL     1       7.628   4.632  17.607  0.00  0.00    +0.000 A 
ATOM     18  N   UNL     1       6.916   4.527  18.750  0.00  0.00    +0.000 NA
ATOM     19  C   UNL     1       5.579   4.369  18.618  0.00  0.00    +0.000 A 
ENDBRANCH  13  14
ENDBRANCH  12  13
ENDBRANCH   3  11
BRANCH   4  20
ATOM     20  O   UNL     1       2.153   6.034  20.922  0.00  0.00    +0.000 OA
ATOM     21  H   UNL     1       1.565   6.176  21.698  0.00  0.00    +0.000 HD
ENDBRANCH   4  20
TORSDOF 4
ENDMDL
MODEL 2
REMARK VINA RESULT:      -7.4      1.342      1.555
REMARK  Name = 
REMARK  4 active torsions:
REMARK  status: ('A' for Active; 'I' for Inactive)
REMARK    1  A    between atoms: C_3  and  C_4
REMARK    2  A    between atoms: N_5  and  C_6
REMARK    3  A    between atoms: C_6  and  C_7
REMARK    4  A    between atoms: C_13  and  O_14
REMARK                            x       y       z     vdW  Elec       q    Type
REMARK                         _______ _______ _______ _____ _____    ______ ____
ROOT
ATOM      1  O   UNL     1       1.230  10.338  17.984  0.00  0.00    +0.000 OA
ATOM      2  C   UNL     1       1.164   9.725  19.031  0.00  0.00    +0.000 C 
ATOM      3  C   UNL     1       1.800   8.426  19.333  0.00  0.00    +0.000 C 
ATOM      4  C   UNL     1       1.479   8.103  20.595  0.00  0.00    +0.000 C 
ATOM      5  C   UNL     1       0.643   9.125  21.187  0.00  0.00    +0.000 A 
ATOM      6  C   UNL     1       0.073   9.231  22.442  0.00  0.00    +0.000 A 
ATOM      7  C   UNL     1      -0.703  10.362  22.723  0.00  0.00    +0.000 A 
ATOM      8  C   UNL     1      -0.896  11.366  21.755  0.00  0.00    +0.000 A 
ATOM      9  C   UNL     1      -0.317  11.254  20.488  0.00  0.00    +0.000 A 
ATOM     10  C   UNL     1       0.442  10.126  20.241  0.00  0.00    +0.000 A 
ENDROOT
BRANCH   3  11
ATOM     11  C   UNL     1       2.634   7.617  18.445  0.00  0.00    +0.000 C 
ATOM     12  N   UNL     1       2.786   6.349  18.646  0.00  0.00    +0.000 NA
BRANCH  12  13
ATOM     13  C   UNL     1       3.657   5.667  17.688  0.00  0.00    +0.000 C 
BRANCH  13  14
ATOM     14  C   UNL     1       5.103   5.826  18.061  0.00  0.00    +0.000 A 
ATOM     15  C   UNL     1       5.992   6.548  17.262  0.00  0.00    +0.000 A 
ATOM     16  C   UNL     1       7.331   6.642  17.631  0.00  0.00    +0.000 A 
ATOM     17  C   UNL     1       7.740   6.000  18.788  0.00  0.00    +0.000 A 
ATOM     18  N   UNL     1       6.905   5.327  19.607  0.00  0.00    +0.000 NA
ATOM     19  C   UNL     1       5.605   5.272  19.235  0.00  0.00    +0.000 A 
ENDBRANCH  13  14
ENDBRANCH  12  13
ENDBRANCH   3  11
BRANCH   4  20
ATOM     20  O   UNL     1       1.843   6.996  21.304  0.00  0.00    +0.000 OA
ATOM     21  H   UNL     1       1.620   7.182  22.244  0.00  0.00    +0.000 HD
ENDBRANCH   4  20
TORSDOF 4
ENDMDL
MODEL 3
REMARK VINA RESULT:      -7.2      0.933      1.130
REMARK  Name = 
REMARK  4 active torsions:
REMARK  status: ('A' for Active; 'I' for Inactive)
REMARK    1  A    between atoms: C_3  and  C_4
REMARK    2  A    between atoms: N_5  and  C_6
REMARK    3  A    between atoms: C_6  and  C_7
REMARK    4  A    between atoms: C_13  and  O_14
REMARK                            x       y       z     vdW  Elec       q    Type
REMARK                         _______ _______ _______ _____ _____    ______ ____
ROOT
ATOM      1  O   UNL     1       2.384   8.483  17.177  0.00  0.00    +0.000 OA
ATOM      2  C   UNL     1       2.169   8.131  18.320  0.00  0.00    +0.000 C 
ATOM      3  C   UNL     1       2.439   6.798  18.896  0.00  0.00    +0.000 C 
ATOM      4  C   UNL     1       2.058   6.830  20.183  0.00  0.00    +0.000 C 
ATOM      5  C   UNL     1       1.532   8.134  20.528  0.00  0.00    +0.000 A 
ATOM      6  C   UNL     1       1.025   8.634  21.712  0.00  0.00    +0.000 A 
ATOM      7  C   UNL     1       0.582   9.962  21.734  0.00  0.00    +0.000 A 
ATOM      8  C   UNL     1       0.653  10.767  20.580  0.00  0.00    +0.000 A 
ATOM      9  C   UNL     1       1.166  10.256  19.385  0.00  0.00    +0.000 A 
ATOM     10  C   UNL     1       1.594   8.942  19.396  0.00  0.00    +0.000 A 
ENDROOT
BRANCH   3  11
ATOM     11  C   UNL     1       3.016   5.638  18.220  0.00  0.00    +0.000 C 
ATOM     12  N   UNL     1       3.806   4.827  18.846  0.00  0.00    +0.000 NA
BRANCH  12  13
ATOM     13  C   UNL     1       4.320   3.717  18.044  0.00  0.00    +0.000 C 
BRANCH  13  14
ATOM     14  C   UNL     1       5.289   4.202  17.004  0.00  0.00    +0.000 A 
ATOM     15  C   UNL     1       4.938   4.283  15.655  0.00  0.00    +0.000 A 
ATOM     16  C   UNL     1       5.879   4.708  14.721  0.00  0.00    +0.000 A 
ATOM     17  C   UNL     1       7.149   5.032  15.170  0.00  0.00    +0.000 A 
ATOM     18  N   UNL     1       7.515   5.006  16.468  0.00  0.00    +0.000 NA
ATOM     19  C   UNL     1       6.572   4.611  17.355  0.00  0.00    +0.000 A 
ENDBRANCH  13  14
ENDBRANCH  12  13
ENDBRANCH   3  11
BRANCH   4  20
ATOM     20  O   UNL     1       2.122   5.831  21.109  0.00  0.00    +0.000 OA
ATOM     21  H   UNL     1       3.023   5.444  21.038  0.00  0.00    +0.000 HD
ENDBRANCH   4  20
TORSDOF 4
ENDMDL
MODEL 4
REMARK VINA RESULT:      -7.1      3.595      5.076
REMARK  Name = 
REMARK  4 active torsions:
REMARK  status: ('A' for Active; 'I' for Inactive)
REMARK    1  A    between atoms: C_3  and  C_4
REMARK    2  A    between atoms: N_5  and  C_6
REMARK    3  A    between atoms: C_6  and  C_7
REMARK    4  A    between atoms: C_13  and  O_14
REMARK                            x       y       z     vdW  Elec       q    Type
REMARK                         _______ _______ _______ _____ _____    ______ ____
ROOT
ATOM      1  O   UNL     1       1.899   5.879  18.002  0.00  0.00    +0.000 OA
ATOM      2  C   UNL     1       2.630   5.063  18.527  0.00  0.00    +0.000 C 
ATOM      3  C   UNL     1       4.039   4.789  18.176  0.00  0.00    +0.000 C 
ATOM      4  C   UNL     1       4.478   3.822  18.995  0.00  0.00    +0.000 C 
ATOM      5  C   UNL     1       3.431   3.408  19.904  0.00  0.00    +0.000 A 
ATOM      6  C   UNL     1       3.412   2.459  20.910  0.00  0.00    +0.000 A 
ATOM      7  C   UNL     1       2.224   2.283  21.630  0.00  0.00    +0.000 A 
ATOM      8  C   UNL     1       1.081   3.053  21.340  0.00  0.00    +0.000 A 
ATOM      9  C   UNL     1       1.107   4.012  20.324  0.00  0.00    +0.000 A 
ATOM     10  C   UNL     1       2.293   4.161  19.630  0.00  0.00    +0.000 A 
ENDROOT
BRANCH   3  11
ATOM     11  C   UNL     1       4.838   5.437  17.136  0.00  0.00    +0.000 C 
ATOM     12  N   UNL     1       5.883   4.859  16.643  0.00  0.00    +0.000 NA
BRANCH  12  13
ATOM     13  C   UNL     1       6.594   5.626  15.619  0.00  0.00    +0.000 C 
BRANCH  13  14
ATOM     14  C   UNL     1       6.606   4.898  14.306  0.00  0.00    +0.000 A 
ATOM     15  C   UNL     1       7.599   5.124  13.351  0.00  0.00    +0.000 A 
ATOM     16  C   UNL     1       7.553   4.450  12.134  0.00  0.00    +0.000 A 
ATOM     17  C   UNL     1       6.505   3.573  11.909  0.00  0.00    +0.000 A 
ATOM     18  N   UNL     1       5.549   3.297  12.821  0.00  0.00    +0.000 NA
ATOM     19  C   UNL     1       5.633   3.950  14.003  0.00  0.00    +0.000 A 
ENDBRANCH  13  14
ENDBRANCH  12  13
ENDBRANCH   3  11
BRANCH   4  20
ATOM     20  O   UNL     1       5.715   3.249  19.041  0.00  0.00    +0.000 OA
ATOM     21  H   UNL     1       5.775   2.653  18.261  0.00  0.00    +0.000 HD
ENDBRANCH   4  20
TORSDOF 4
ENDMDL
MODEL 5
REMARK VINA RESULT:      -7.1      1.882      2.531
REMARK  Name = 
REMARK  4 active torsions:
REMARK  status: ('A' for Active; 'I' for Inactive)
REMARK    1  A    between atoms: C_3  and  C_4
REMARK    2  A    between atoms: N_5  and  C_6
REMARK    3  A    between atoms: C_6  and  C_7
REMARK    4  A    between atoms: C_13  and  O_14
REMARK                            x       y       z     vdW  Elec       q    Type
REMARK                         _______ _______ _______ _____ _____    ______ ____
ROOT
ATOM      1  O   UNL     1       0.752  10.514  18.274  0.00  0.00    +0.000 OA
ATOM      2  C   UNL     1       0.772   9.918  19.333  0.00  0.00    +0.000 C 
ATOM      3  C   UNL     1       1.488   8.658  19.620  0.00  0.00    +0.000 C 
ATOM      4  C   UNL     1       1.252   8.343  20.902  0.00  0.00    +0.000 C 
ATOM      5  C   UNL     1       0.398   9.333  21.523  0.00  0.00    +0.000 A 
ATOM      6  C   UNL     1      -0.109   9.432  22.805  0.00  0.00    +0.000 A 
ATOM      7  C   UNL     1      -0.926  10.528  23.110  0.00  0.00    +0.000 A 
ATOM      8  C   UNL     1      -1.221  11.503  22.138  0.00  0.00    +0.000 A 
ATOM      9  C   UNL     1      -0.705  11.398  20.844  0.00  0.00    +0.000 A 
ATOM     10  C   UNL     1       0.096  10.305  20.573  0.00  0.00    +0.000 A 
ENDROOT
BRANCH   3  11
ATOM     11  C   UNL     1       2.314   7.876  18.701  0.00  0.00    +0.000 C 
ATOM     12  N   UNL     1       2.442   6.598  18.844  0.00  0.00    +0.000 NA
BRANCH  12  13
ATOM     13  C   UNL     1       3.307   5.945  17.861  0.00  0.00    +0.000 C 
BRANCH  13  14
ATOM     14  C   UNL     1       3.387   4.465  18.107  0.00  0.00    +0.000 A 
ATOM     15  C   UNL     1       2.576   3.563  17.415  0.00  0.00    +0.000 A 
ATOM     16  C   UNL     1       2.660   2.202  17.698  0.00  0.00    +0.000 A 
ATOM     17  C   UNL     1       3.552   1.789  18.674  0.00  0.00    +0.000 A 
ATOM     18  N   UNL     1       4.380   2.624  19.335  0.00  0.00    +0.000 NA
ATOM     19  C   UNL     1       4.292   3.938  19.022  0.00  0.00    +0.000 A 
ENDBRANCH  13  14
ENDBRANCH  12  13
ENDBRANCH   3  11
BRANCH   4  20
ATOM     20  O   UNL     1       1.709   7.269  21.608  0.00  0.00    +0.000 OA
ATOM     21  H   UNL     1       0.914   6.766  21.895  0.00  0.00    +0.000 HD
ENDBRANCH   4  20
TORSDOF 4
ENDMDL
MODEL 6
REMARK VINA RESULT:      -7.1      2.041      2.997
REMARK  Name = 
REMARK  4 active torsions:
REMARK  status: ('A' for Active; 'I' for Inactive)
REMARK    1  A    between atoms: C_3  and  C_4
REMARK    2  A    between atoms: N_5  and  C_6
REMARK    3  A    between atoms: C_6  and  C_7
REMARK    4  A    between atoms: C_13  and  O_14
REMARK                            x       y       z     vdW  Elec       q    Type
REMARK                         _______ _______ _______ _____ _____    ______ ____
ROOT
ATOM      1  O   UNL     1       0.160  10.788  18.313  0.00  0.00    +0.000 OA
ATOM      2  C   UNL     1       0.328  10.244  19.387  0.00  0.00    +0.000 C 
ATOM      3  C   UNL     1       1.194   9.079  19.657  0.00  0.00    +0.000 C 
ATOM      4  C   UNL     1       1.095   8.797  20.965  0.00  0.00    +0.000 C 
ATOM      5  C   UNL     1       0.192   9.719  21.619  0.00  0.00    +0.000 A 
ATOM      6  C   UNL     1      -0.220   9.822  22.935  0.00  0.00    +0.000 A 
ATOM      7  C   UNL     1      -1.123  10.839  23.268  0.00  0.00    +0.000 A 
ATOM      8  C   UNL     1      -1.596  11.735  22.290  0.00  0.00    +0.000 A 
ATOM      9  C   UNL     1      -1.175  11.628  20.963  0.00  0.00    +0.000 A 
ATOM     10  C   UNL     1      -0.286  10.612  20.665  0.00  0.00    +0.000 A 
ENDROOT
BRANCH   3  11
ATOM     11  C   UNL     1       2.024   8.348  18.700  0.00  0.00    +0.000 C 
ATOM     12  N   UNL     1       2.485   7.173  18.981  0.00  0.00    +0.000 NA
BRANCH  12  13
ATOM     13  C   UNL     1       3.309   6.563  17.937  0.00  0.00    +0.000 C 
BRANCH  13  14
ATOM     14  C   UNL     1       3.069   5.082  17.852  0.00  0.00    +0.000 A 
ATOM     15  C   UNL     1       4.124   4.170  17.798  0.00  0.00    +0.000 A 
ATOM     16  C   UNL     1       3.855   2.808  17.687  0.00  0.00    +0.000 A 
ATOM     17  C   UNL     1       2.532   2.404  17.627  0.00  0.00    +0.000 A 
ATOM     18  N   UNL     1       1.484   3.250  17.718  0.00  0.00    +0.000 NA
ATOM     19  C   UNL     1       1.777   4.565  17.847  0.00  0.00    +0.000 A 
ENDBRANCH  13  14
ENDBRANCH  12  13
ENDBRANCH   3  11
BRANCH   4  20
ATOM     20  O   UNL     1       1.719   7.808  21.667  0.00  0.00    +0.000 OA
ATOM     21  H   UNL     1       2.130   7.212  21.001  0.00  0.00    +0.000 HD
ENDBRANCH   4  20
TORSDOF 4
ENDMDL
MODEL 7
REMARK VINA RESULT:      -7.0      3.684      7.432
REMARK  Name = 
REMARK  4 active torsions:
REMARK  status: ('A' for Active; 'I' for Inactive)
REMARK    1  A    between atoms: C_3  and  C_4
REMARK    2  A    between atoms: N_5  and  C_6
REMARK    3  A    between atoms: C_6  and  C_7
REMARK    4  A    between atoms: C_13  and  O_14
REMARK                            x       y       z     vdW  Elec       q    Type
REMARK                         _______ _______ _______ _____ _____    ______ ____
ROOT
ATOM      1  O   UNL     1       7.539   6.510  16.421  0.00  0.00    +0.000 OA
ATOM      2  C   UNL     1       6.776   5.698  15.935  0.00  0.00    +0.000 C 
ATOM      3  C   UNL     1       5.588   5.109  16.584  0.00  0.00    +0.000 C 
ATOM      4  C   UNL     1       5.026   4.263  15.707  0.00  0.00    +0.000 C 
ATOM      5  C   UNL     1       5.777   4.238  14.470  0.00  0.00    +0.000 A 
ATOM      6  C   UNL     1       5.588   3.531  13.297  0.00  0.00    +0.000 A 
ATOM      7  C   UNL     1       6.504   3.722  12.255  0.00  0.00    +0.000 A 
ATOM      8  C   UNL     1       7.586   4.612  12.397  0.00  0.00    +0.000 A 
ATOM      9  C   UNL     1       7.771   5.325  13.584  0.00  0.00    +0.000 A 
ATOM     10  C   UNL     1       6.852   5.113  14.594  0.00  0.00    +0.000 A 
ENDROOT
BRANCH   3  11
ATOM     11  C   UNL     1       5.086   5.378  17.931  0.00  0.00    +0.000 C 
ATOM     12  N   UNL     1       3.819   5.493  18.159  0.00  0.00    +0.000 NA
BRANCH  12  13
ATOM     13  C   UNL     1       3.459   5.774  19.549  0.00  0.00    +0.000 C 
BRANCH  13  14
ATOM     14  C   UNL     1       2.621   4.669  20.126  0.00  0.00    +0.000 A 
ATOM     15  C   UNL     1       1.619   4.044  19.382  0.00  0.00    +0.000 A 
ATOM     16  C   UNL     1       0.844   3.046  19.968  0.00  0.00    +0.000 A 
ATOM     17  C   UNL     1       1.095   2.711  21.288  0.00  0.00    +0.000 A 
ATOM     18  N   UNL     1       2.080   3.263  22.028  0.00  0.00    +0.000 NA
ATOM     19  C   UNL     1       2.830   4.214  21.424  0.00  0.00    +0.000 A 
ENDBRANCH  13  14
ENDBRANCH  12  13
ENDBRANCH   3  11
BRANCH   4  20
ATOM     20  O   UNL     1       3.909   3.498  15.866  0.00  0.00    +0.000 OA
ATOM     21  H   UNL     1       3.269   4.043  16.377  0.00  0.00    +0.000 HD
ENDBRANCH   4  20
TORSDOF 4
ENDMDL
MODEL 8
REMARK VINA RESULT:      -7.0      1.418      1.953
REMARK  Name = 
REMARK  4 active torsions:
REMARK  status: ('A' for Active; 'I' for Inactive)
REMARK    1  A    between atoms: C_3  and  C_4
REMARK    2  A    between atoms: N_5  and  C_6
REMARK    3  A    between atoms: C_6  and  C_7
REMARK    4  A    between atoms: C_13  and  O_14
REMARK                            x       y       z     vdW  Elec       q    Type
REMARK                         _______ _______ _______ _____ _____    ______ ____
ROOT
ATOM      1  O   UNL     1       1.921   9.565  17.402  0.00  0.00    +0.000 OA
ATOM      2  C   UNL     1       1.746   9.090  18.507  0.00  0.00    +0.000 C 
ATOM      3  C   UNL     1       2.130   7.736  18.953  0.00  0.00    +0.000 C 
ATOM      4  C   UNL     1       1.761   7.614  20.238  0.00  0.00    +0.000 C 
ATOM      5  C   UNL     1       1.132   8.831  20.706  0.00  0.00    +0.000 A 
ATOM      6  C   UNL     1       0.598   9.174  21.934  0.00  0.00    +0.000 A 
ATOM      7  C   UNL     1       0.047  10.453  22.081  0.00  0.00    +0.000 A 
ATOM      8  C   UNL     1       0.040  11.366  21.009  0.00  0.00    +0.000 A 
ATOM      9  C   UNL     1       0.582  11.015  19.771  0.00  0.00    +0.000 A 
ATOM     10  C   UNL     1       1.117   9.745  19.655  0.00  0.00    +0.000 A 
ENDROOT
BRANCH   3  11
ATOM     11  C   UNL     1       2.795   6.696  18.169  0.00  0.00    +0.000 C 
ATOM     12  N   UNL     1       4.082   6.679  18.040  0.00  0.00    +0.000 NA
BRANCH  12  13
ATOM     13  C   UNL     1       4.610   5.590  17.218  0.00  0.00    +0.000 C 
BRANCH  13  14
ATOM     14  C   UNL     1       4.358   4.255  17.859  0.00  0.00    +0.000 A 
ATOM     15  C   UNL     1       3.533   3.300  17.263  0.00  0.00    +0.000 A 
ATOM     16  C   UNL     1       3.302   2.088  17.908  0.00  0.00    +0.000 A 
ATOM     17  C   UNL     1       3.901   1.875  19.139  0.00  0.00    +0.000 A 
ATOM     18  N   UNL     1       4.736   2.756  19.729  0.00  0.00    +0.000 NA
ATOM     19  C   UNL     1       4.960   3.915  19.067  0.00  0.00    +0.000 A 
ENDBRANCH  13  14
ENDBRANCH  12  13
ENDBRANCH   3  11
BRANCH   4  20
ATOM     20  O   UNL     1       1.916   6.541  21.065  0.00  0.00    +0.000 OA
ATOM     21  H   UNL     1       2.150   6.903  21.949  0.00  0.00    +0.000 HD
ENDBRANCH   4  20
TORSDOF 4
ENDMDL
MODEL 9
REMARK VINA RESULT:      -7.0      1.226      1.518
REMARK  Name = 
REMARK  4 active torsions:
REMARK  status: ('A' for Active; 'I' for Inactive)
REMARK    1  A    between atoms: C_3  and  C_4
REMARK    2  A    between atoms: N_5  and  C_6
REMARK    3  A    between atoms: C_6  and  C_7
REMARK    4  A    between atoms: C_13  and  O_14
REMARK                            x       y       z     vdW  Elec       q    Type
REMARK                         _______ _______ _______ _____ _____    ______ ____
ROOT
ATOM      1  O   UNL     1       1.706   9.858  17.521  0.00  0.00    +0.000 OA
ATOM      2  C   UNL     1       1.568   9.292  18.587  0.00  0.00    +0.000 C 
ATOM      3  C   UNL     1       2.150   7.991  18.974  0.00  0.00    +0.000 C 
ATOM      4  C   UNL     1       1.755   7.730  20.230  0.00  0.00    +0.000 C 
ATOM      5  C   UNL     1       0.919   8.797  20.735  0.00  0.00    +0.000 A 
ATOM      6  C   UNL     1       0.287   8.970  21.952  0.00  0.00    +0.000 A 
ATOM      7  C   UNL     1      -0.471  10.132  22.145  0.00  0.00    +0.000 A 
ATOM      8  C   UNL     1      -0.585  11.099  21.128  0.00  0.00    +0.000 A 
ATOM      9  C   UNL     1       0.057  10.919  19.899  0.00  0.00    +0.000 A 
ATOM     10  C   UNL     1       0.796   9.762  19.739  0.00  0.00    +0.000 A 
ENDROOT
BRANCH   3  11
ATOM     11  C   UNL     1       3.007   7.124  18.166  0.00  0.00    +0.000 C 
ATOM     12  N   UNL     1       2.952   5.838  18.282  0.00  0.00    +0.000 NA
BRANCH  12  13
ATOM     13  C   UNL     1       3.872   5.095  17.421  0.00  0.00    +0.000 C 
BRANCH  13  14
ATOM     14  C   UNL     1       5.297   5.499  17.675  0.00  0.00    +0.000 A 
ATOM     15  C   UNL     1       5.911   5.284  18.910  0.00  0.00    +0.000 A 
ATOM     16  C   UNL     1       7.224   5.704  19.110  0.00  0.00    +0.000 A 
ATOM     17  C   UNL     1       7.878   6.334  18.065  0.00  0.00    +0.000 A 
ATOM     18  N   UNL     1       7.333   6.524  16.845  0.00  0.00    +0.000 NA
ATOM     19  C   UNL     1       6.065   6.085  16.673  0.00  0.00    +0.000 A 
ENDBRANCH  13  14
ENDBRANCH  12  13
ENDBRANCH   3  11
BRANCH   4  20
ATOM     20  O   UNL     1       2.051   6.645  21.002  0.00  0.00    +0.000 OA
ATOM     21  H   UNL     1       1.440   6.677  21.772  0.00  0.00    +0.000 HD
ENDBRANCH   4  20
TORSDOF 4
ENDMDL
