MODEL 1
REMARK VINA RESULT:      -7.9      0.000      0.000
REMARK  Name = 
REMARK  2 active torsions:
REMARK  status: ('A' for Active; 'I' for Inactive)
REMARK    1  A    between atoms: C_4  and  C_5
REMARK    2  A    between atoms: C_11  and  C_12
REMARK                            x       y       z     vdW  Elec       q    Type
REMARK                         _______ _______ _______ _____ _____    ______ ____
ROOT
ATOM      1  O   UNL     1       1.488   9.257  17.782  0.00  0.00    +0.000 OA
ATOM      2  C   UNL     1       2.251   8.351  18.067  0.00  0.00    +0.000 C 
ATOM      3  N   UNL     1       3.261   7.857  17.288  0.00  0.00    +0.000 NA
ATOM      4  C   UNL     1       3.757   6.840  17.928  0.00  0.00    +0.000 C 
ATOM      5  C   UNL     1       3.076   6.527  19.248  0.00  0.00    +0.000 C 
ATOM      6  N   UNL     1       2.205   7.661  19.243  0.00  0.00    +0.000 N 
ATOM      7  H   UNL     1       1.455   7.829  19.894  0.00  0.00    +0.000 HD
ENDROOT
BRANCH   4   8
ATOM      8  C   UNL     1       4.892   6.032  17.409  0.00  0.00    +0.000 A 
ATOM      9  C   UNL     1       5.812   5.506  18.325  0.00  0.00    +0.000 A 
ATOM     10  C   UNL     1       6.902   4.756  17.879  0.00  0.00    +0.000 A 
ATOM     11  C   UNL     1       7.083   4.531  16.516  0.00  0.00    +0.000 A 
ATOM     12  C   UNL     1       6.172   5.052  15.598  0.00  0.00    +0.000 A 
ATOM     13  C   UNL     1       5.076   5.796  16.042  0.00  0.00    +0.000 A 
ENDBRANCH   4   8
BRANCH   5  14
ATOM     14  C   UNL     1       2.301   5.234  19.290  0.00  0.00    +0.000 A 
ATOM     15  C   UNL     1       1.829   4.748  20.519  0.00  0.00    +0.000 A 
ATOM     16  C   UNL     1       1.154   3.529  20.589  0.00  0.00    +0.000 A 
ATOM     17  C   UNL     1       0.931   2.786  19.431  0.00  0.00    +0.000 A 
ATOM     18  C   UNL     1       1.361   3.272  18.199  0.00  0.00    +0.000 A 
ATOM     19  C   UNL     1       2.029   4.492  18.126  0.00  0.00    +0.000 A 
ENDBRANCH   5  14
TORSDOF 2
ENDMDL
MODEL 2
REMARK VINA RESULT:      -7.8      0.113      1.611
REMARK  Name = 
REMARK  2 active torsions:
REMARK  status: ('A' for Active; 'I' for Inactive)
REMARK    1  A    between atoms: C_4  and  C_5
REMARK    2  A    between atoms: C_11  and  C_12
REMARK                            x       y       z     vdW  Elec       q    Type
REMARK                         _______ _______ _______ _____ _____    ______ ____
ROOT
ATOM      1  O   UNL     1       1.450   9.202  17.774  0.00  0.00    +0.000 OA
ATOM      2  C   UNL     1       2.224   8.318  18.096  0.00  0.00    +0.000 C 
ATOM      3  N   UNL     1       3.274   7.843  17.360  0.00  0.00    +0.000 NA
ATOM      4  C   UNL     1       3.771   6.844  18.027  0.00  0.00    +0.000 C 
ATOM      5  C   UNL     1       3.048   6.525  19.324  0.00  0.00    +0.000 C 
ATOM      6  N   UNL     1       2.151   7.637  19.275  0.00  0.00    +0.000 N 
ATOM      7  H   UNL     1       1.372   7.791  19.896  0.00  0.00    +0.000 HD
ENDROOT
BRANCH   4   8
ATOM      8  C   UNL     1       4.945   6.061  17.559  0.00  0.00    +0.000 A 
ATOM      9  C   UNL     1       5.054   5.772  16.194  0.00  0.00    +0.000 A 
ATOM     10  C   UNL     1       6.133   5.025  15.714  0.00  0.00    +0.000 A 
ATOM     11  C   UNL     1       7.105   4.559  16.596  0.00  0.00    +0.000 A 
ATOM     12  C   UNL     1       7.003   4.841  17.958  0.00  0.00    +0.000 A 
ATOM     13  C   UNL     1       5.929   5.595  18.439  0.00  0.00    +0.000 A 
ENDBRANCH   4   8
BRANCH   5  14
ATOM     14  C   UNL     1       2.304   5.214  19.348  0.00  0.00    +0.000 A 
ATOM     15  C   UNL     1       2.041   4.543  18.143  0.00  0.00    +0.000 A 
ATOM     16  C   UNL     1       1.310   3.355  18.136  0.00  0.00    +0.000 A 
ATOM     17  C   UNL     1       0.843   2.815  19.334  0.00  0.00    +0.000 A 
ATOM     18  C   UNL     1       1.126   3.449  20.540  0.00  0.00    +0.000 A 
ATOM     19  C   UNL     1       1.862   4.632  20.550  0.00  0.00    +0.000 A 
ENDBRANCH   5  14
TORSDOF 2
ENDMDL
MODEL 3
REMARK VINA RESULT:      -7.8      0.123      1.144
REMARK  Name = 
REMARK  2 active torsions:
REMARK  status: ('A' for Active; 'I' for Inactive)
REMARK    1  A    between atoms: C_4  and  C_5
REMARK    2  A    between atoms: C_11  and  C_12
REMARK                            x       y       z     vdW  Elec       q    Type
REMARK                         _______ _______ _______ _____ _____    ______ ____
ROOT
ATOM      1  O   UNL     1       1.406   9.218  17.931  0.00  0.00    +0.000 OA
ATOM      2  C   UNL     1       2.187   8.323  18.204  0.00  0.00    +0.000 C 
ATOM      3  N   UNL     1       3.203   7.855  17.417  0.00  0.00    +0.000 NA
ATOM      4  C   UNL     1       3.718   6.840  18.046  0.00  0.00    +0.000 C 
ATOM      5  C   UNL     1       3.047   6.502  19.364  0.00  0.00    +0.000 C 
ATOM      6  N   UNL     1       2.157   7.621  19.373  0.00  0.00    +0.000 N 
ATOM      7  H   UNL     1       1.405   7.768  20.028  0.00  0.00    +0.000 HD
ENDROOT
BRANCH   4   8
ATOM      8  C   UNL     1       4.867   6.058  17.515  0.00  0.00    +0.000 A 
ATOM      9  C   UNL     1       5.814   5.564  18.421  0.00  0.00    +0.000 A 
ATOM     10  C   UNL     1       6.916   4.839  17.963  0.00  0.00    +0.000 A 
ATOM     11  C   UNL     1       7.081   4.607  16.600  0.00  0.00    +0.000 A 
ATOM     12  C   UNL     1       6.143   5.096  15.692  0.00  0.00    +0.000 A 
ATOM     13  C   UNL     1       5.035   5.815  16.147  0.00  0.00    +0.000 A 
ENDBRANCH   4   8
BRANCH   5  14
ATOM     14  C   UNL     1       2.295   5.195  19.395  0.00  0.00    +0.000 A 
ATOM     15  C   UNL     1       2.039   4.514  18.194  0.00  0.00    +0.000 A 
ATOM     16  C   UNL     1       1.301   3.330  18.193  0.00  0.00    +0.000 A 
ATOM     17  C   UNL     1       0.820   2.805  19.391  0.00  0.00    +0.000 A 
ATOM     18  C   UNL     1       1.097   3.450  20.594  0.00  0.00    +0.000 A 
ATOM     19  C   UNL     1       1.839   4.628  20.599  0.00  0.00    +0.000 A 
ENDBRANCH   5  14
TORSDOF 2
ENDMDL
MODEL 4
REMARK VINA RESULT:      -7.6      0.532      1.259
REMARK  Name = 
REMARK  2 active torsions:
REMARK  status: ('A' for Active; 'I' for Inactive)
REMARK    1  A    between atoms: C_4  and  C_5
REMARK    2  A    between atoms: C_11  and  C_12
REMARK                            x       y       z     vdW  Elec       q    Type
REMARK                         _______ _______ _______ _____ _____    ______ ____
ROOT
ATOM      1  O   UNL     1       1.545   8.938  18.216  0.00  0.00    +0.000 OA
ATOM      2  C   UNL     1       2.330   8.020  18.379  0.00  0.00    +0.000 C 
ATOM      3  N   UNL     1       3.377   7.685  17.566  0.00  0.00    +0.000 NA
ATOM      4  C   UNL     1       3.888   6.593  18.053  0.00  0.00    +0.000 C 
ATOM      5  C   UNL     1       3.180   6.055  19.283  0.00  0.00    +0.000 C 
ATOM      6  N   UNL     1       2.273   7.151  19.429  0.00  0.00    +0.000 N 
ATOM      7  H   UNL     1       1.499   7.191  20.073  0.00  0.00    +0.000 HD
ENDROOT
BRANCH   4   8
ATOM      8  C   UNL     1       5.064   5.911  17.452  0.00  0.00    +0.000 A 
ATOM      9  C   UNL     1       5.148   5.828  16.056  0.00  0.00    +0.000 A 
ATOM     10  C   UNL     1       6.227   5.182  15.451  0.00  0.00    +0.000 A 
ATOM     11  C   UNL     1       7.227   4.610  16.235  0.00  0.00    +0.000 A 
ATOM     12  C   UNL     1       7.151   4.687  17.625  0.00  0.00    +0.000 A 
ATOM     13  C   UNL     1       6.075   5.340  18.234  0.00  0.00    +0.000 A 
ENDBRANCH   4   8
BRANCH   5  14
ATOM     14  C   UNL     1       2.447   4.751  19.094  0.00  0.00    +0.000 A 
ATOM     15  C   UNL     1       1.528   4.324  20.065  0.00  0.00    +0.000 A 
ATOM     16  C   UNL     1       0.876   3.097  19.937  0.00  0.00    +0.000 A 
ATOM     17  C   UNL     1       1.125   2.287  18.830  0.00  0.00    +0.000 A 
ATOM     18  C   UNL     1       2.006   2.712  17.840  0.00  0.00    +0.000 A 
ATOM     19  C   UNL     1       2.653   3.940  17.962  0.00  0.00    +0.000 A 
ENDBRANCH   5  14
TORSDOF 2
ENDMDL
MODEL 5
REMARK VINA RESULT:      -7.6      2.887      4.207
REMARK  Name = 
REMARK  2 active torsions:
REMARK  status: ('A' for Active; 'I' for Inactive)
REMARK    1  A    between atoms: C_4  and  C_5
REMARK    2  A    between atoms: C_11  and  C_12
REMARK                            x       y       z     vdW  Elec       q    Type
REMARK                         _______ _______ _______ _____ _____    ______ ____
ROOT
ATOM      1  O   UNL     1       7.923   7.552  18.226  0.00  0.00    +0.000 OA
ATOM      2  C   UNL     1       7.494   6.587  17.618  0.00  0.00    +0.000 C 
ATOM      3  N   UNL     1       7.487   6.414  16.261  0.00  0.00    +0.000 NA
ATOM      4  C   UNL     1       6.854   5.301  16.034  0.00  0.00    +0.000 C 
ATOM      5  C   UNL     1       6.331   4.604  17.277  0.00  0.00    +0.000 C 
ATOM      6  N   UNL     1       6.926   5.502  18.217  0.00  0.00    +0.000 N 
ATOM      7  H   UNL     1       6.759   5.508  19.211  0.00  0.00    +0.000 HD
ENDROOT
BRANCH   4   8
ATOM      8  C   UNL     1       6.643   4.753  14.668  0.00  0.00    +0.000 A 
ATOM      9  C   UNL     1       7.583   5.054  13.675  0.00  0.00    +0.000 A 
ATOM     10  C   UNL     1       7.414   4.574  12.375  0.00  0.00    +0.000 A 
ATOM     11  C   UNL     1       6.304   3.794  12.058  0.00  0.00    +0.000 A 
ATOM     12  C   UNL     1       5.364   3.489  13.041  0.00  0.00    +0.000 A 
ATOM     13  C   UNL     1       5.534   3.963  14.346  0.00  0.00    +0.000 A 
ENDBRANCH   4   8
BRANCH   5  14
ATOM     14  C   UNL     1       4.830   4.569  17.419  0.00  0.00    +0.000 A 
ATOM     15  C   UNL     1       4.126   5.763  17.640  0.00  0.00    +0.000 A 
ATOM     16  C   UNL     1       2.743   5.749  17.826  0.00  0.00    +0.000 A 
ATOM     17  C   UNL     1       2.045   4.543  17.782  0.00  0.00    +0.000 A 
ATOM     18  C   UNL     1       2.724   3.355  17.528  0.00  0.00    +0.000 A 
ATOM     19  C   UNL     1       4.103   3.367  17.335  0.00  0.00    +0.000 A 
ENDBRANCH   5  14
TORSDOF 2
ENDMDL
MODEL 6
REMARK VINA RESULT:      -7.5      2.838      4.166
REMARK  Name = 
REMARK  2 active torsions:
REMARK  status: ('A' for Active; 'I' for Inactive)
REMARK    1  A    between atoms: C_4  and  C_5
REMARK    2  A    between atoms: C_11  and  C_12
REMARK                            x       y       z     vdW  Elec       q    Type
REMARK                         _______ _______ _______ _____ _____    ______ ____
ROOT
ATOM      1  O   UNL     1       7.899   7.700  18.239  0.00  0.00    +0.000 OA
ATOM      2  C   UNL     1       7.473   6.716  17.660  0.00  0.00    +0.000 C 
ATOM      3  N   UNL     1       7.453   6.508  16.308  0.00  0.00    +0.000 NA
ATOM      4  C   UNL     1       6.829   5.383  16.117  0.00  0.00    +0.000 C 
ATOM      5  C   UNL     1       6.325   4.714  17.383  0.00  0.00    +0.000 C 
ATOM      6  N   UNL     1       6.922   5.641  18.293  0.00  0.00    +0.000 N 
ATOM      7  H   UNL     1       6.765   5.671  19.288  0.00  0.00    +0.000 HD
ENDROOT
BRANCH   4   8
ATOM      8  C   UNL     1       6.608   4.798  14.768  0.00  0.00    +0.000 A 
ATOM      9  C   UNL     1       7.559   5.044  13.770  0.00  0.00    +0.000 A 
ATOM     10  C   UNL     1       7.382   4.527  12.485  0.00  0.00    +0.000 A 
ATOM     11  C   UNL     1       6.254   3.766  12.188  0.00  0.00    +0.000 A 
ATOM     12  C   UNL     1       5.302   3.518  13.176  0.00  0.00    +0.000 A 
ATOM     13  C   UNL     1       5.480   4.027  14.465  0.00  0.00    +0.000 A 
ENDBRANCH   4   8
BRANCH   5  14
ATOM     14  C   UNL     1       4.826   4.668  17.542  0.00  0.00    +0.000 A 
ATOM     15  C   UNL     1       4.160   3.434  17.481  0.00  0.00    +0.000 A 
ATOM     16  C   UNL     1       2.769   3.373  17.574  0.00  0.00    +0.000 A 
ATOM     17  C   UNL     1       2.027   4.541  17.743  0.00  0.00    +0.000 A 
ATOM     18  C   UNL     1       2.676   5.768  17.842  0.00  0.00    +0.000 A 
ATOM     19  C   UNL     1       4.065   5.832  17.756  0.00  0.00    +0.000 A 
ENDBRANCH   5  14
TORSDOF 2
ENDMDL
MODEL 7
REMARK VINA RESULT:      -7.5      2.886      4.192
REMARK  Name = 
REMARK  2 active torsions:
REMARK  status: ('A' for Active; 'I' for Inactive)
REMARK    1  A    between atoms: C_4  and  C_5
REMARK    2  A    between atoms: C_11  and  C_12
REMARK                            x       y       z     vdW  Elec       q    Type
REMARK                         _______ _______ _______ _____ _____    ______ ____
ROOT
ATOM      1  O   UNL     1       7.995   7.310  18.467  0.00  0.00    +0.000 OA
ATOM      2  C   UNL     1       7.534   6.400  17.801  0.00  0.00    +0.000 C 
ATOM      3  N   UNL     1       7.537   6.301  16.437  0.00  0.00    +0.000 NA
ATOM      4  C   UNL     1       6.861   5.230  16.143  0.00  0.00    +0.000 C 
ATOM      5  C   UNL     1       6.293   4.489  17.340  0.00  0.00    +0.000 C 
ATOM      6  N   UNL     1       6.914   5.308  18.334  0.00  0.00    +0.000 N 
ATOM      7  H   UNL     1       6.734   5.267  19.325  0.00  0.00    +0.000 HD
ENDROOT
BRANCH   4   8
ATOM      8  C   UNL     1       6.645   4.767  14.747  0.00  0.00    +0.000 A 
ATOM      9  C   UNL     1       5.474   4.058  14.452  0.00  0.00    +0.000 A 
ATOM     10  C   UNL     1       5.239   3.591  13.157  0.00  0.00    +0.000 A 
ATOM     11  C   UNL     1       6.174   3.824  12.151  0.00  0.00    +0.000 A 
ATOM     12  C   UNL     1       7.343   4.528  12.437  0.00  0.00    +0.000 A 
ATOM     13  C   UNL     1       7.577   5.004  13.730  0.00  0.00    +0.000 A 
ENDBRANCH   4   8
BRANCH   5  14
ATOM     14  C   UNL     1       4.791   4.510  17.465  0.00  0.00    +0.000 A 
ATOM     15  C   UNL     1       4.128   5.733  17.655  0.00  0.00    +0.000 A 
ATOM     16  C   UNL     1       2.743   5.771  17.824  0.00  0.00    +0.000 A 
ATOM     17  C   UNL     1       2.002   4.590  17.793  0.00  0.00    +0.000 A 
ATOM     18  C   UNL     1       2.641   3.374  17.569  0.00  0.00    +0.000 A 
ATOM     19  C   UNL     1       4.022   3.334  17.393  0.00  0.00    +0.000 A 
ENDBRANCH   5  14
TORSDOF 2
ENDMDL
MODEL 8
REMARK VINA RESULT:      -7.5      2.894      4.230
REMARK  Name = 
REMARK  2 active torsions:
REMARK  status: ('A' for Active; 'I' for Inactive)
REMARK    1  A    between atoms: C_4  and  C_5
REMARK    2  A    between atoms: C_11  and  C_12
REMARK                            x       y       z     vdW  Elec       q    Type
REMARK                         _______ _______ _______ _____ _____    ______ ____
ROOT
ATOM      1  O   UNL     1       7.944   7.533  18.235  0.00  0.00    +0.000 OA
ATOM      2  C   UNL     1       7.512   6.572  17.623  0.00  0.00    +0.000 C 
ATOM      3  N   UNL     1       7.474   6.419  16.264  0.00  0.00    +0.000 NA
ATOM      4  C   UNL     1       6.850   5.302  16.036  0.00  0.00    +0.000 C 
ATOM      5  C   UNL     1       6.367   4.580  17.281  0.00  0.00    +0.000 C 
ATOM      6  N   UNL     1       6.974   5.471  18.219  0.00  0.00    +0.000 N 
ATOM      7  H   UNL     1       6.831   5.460  19.217  0.00  0.00    +0.000 HD
ENDROOT
BRANCH   4   8
ATOM      8  C   UNL     1       6.612   4.772  14.668  0.00  0.00    +0.000 A 
ATOM      9  C   UNL     1       5.419   4.083  14.415  0.00  0.00    +0.000 A 
ATOM     10  C   UNL     1       5.163   3.555  13.148  0.00  0.00    +0.000 A 
ATOM     11  C   UNL     1       6.099   3.707  12.127  0.00  0.00    +0.000 A 
ATOM     12  C   UNL     1       7.290   4.390  12.371  0.00  0.00    +0.000 A 
ATOM     13  C   UNL     1       7.545   4.927  13.636  0.00  0.00    +0.000 A 
ENDBRANCH   4   8
BRANCH   5  14
ATOM     14  C   UNL     1       4.871   4.522  17.459  0.00  0.00    +0.000 A 
ATOM     15  C   UNL     1       4.210   3.286  17.381  0.00  0.00    +0.000 A 
ATOM     16  C   UNL     1       2.821   3.214  17.492  0.00  0.00    +0.000 A 
ATOM     17  C   UNL     1       2.075   4.375  17.695  0.00  0.00    +0.000 A 
ATOM     18  C   UNL     1       2.719   5.604  17.811  0.00  0.00    +0.000 A 
ATOM     19  C   UNL     1       4.106   5.677  17.707  0.00  0.00    +0.000 A 
ENDBRANCH   5  14
TORSDOF 2
ENDMDL
MODEL 9
REMARK VINA RESULT:      -7.5      2.795      3.947
REMARK  Name = 
REMARK  2 active torsions:
REMARK  status: ('A' for Active; 'I' for Inactive)
REMARK    1  A    between atoms: C_4  and  C_5
REMARK    2  A    between atoms: C_11  and  C_12
REMARK                            x       y       z     vdW  Elec       q    Type
REMARK                         _______ _______ _______ _____ _____    ______ ____
ROOT
ATOM      1  O   UNL     1       2.994   2.368  21.777  0.00  0.00    +0.000 OA
ATOM      2  C   UNL     1       3.146   2.893  20.688  0.00  0.00    +0.000 C 
ATOM      3  N   UNL     1       4.317   3.000  19.989  0.00  0.00    +0.000 NA
ATOM      4  C   UNL     1       4.052   3.712  18.934  0.00  0.00    +0.000 C 
ATOM      5  C   UNL     1       2.616   4.192  18.836  0.00  0.00    +0.000 C 
ATOM      6  N   UNL     1       2.140   3.483  19.983  0.00  0.00    +0.000 N 
ATOM      7  H   UNL     1       1.227   3.583  20.398  0.00  0.00    +0.000 HD
ENDROOT
BRANCH   4   8
ATOM      8  C   UNL     1       5.073   4.046  17.906  0.00  0.00    +0.000 A 
ATOM      9  C   UNL     1       4.757   3.838  16.557  0.00  0.00    +0.000 A 
ATOM     10  C   UNL     1       5.692   4.123  15.561  0.00  0.00    +0.000 A 
ATOM     11  C   UNL     1       6.950   4.613  15.905  0.00  0.00    +0.000 A 
ATOM     12  C   UNL     1       7.274   4.822  17.245  0.00  0.00    +0.000 A 
ATOM     13  C   UNL     1       6.337   4.545  18.244  0.00  0.00    +0.000 A 
ENDBRANCH   4   8
BRANCH   5  14
ATOM     14  C   UNL     1       2.416   5.679  18.982  0.00  0.00    +0.000 A 
ATOM     15  C   UNL     1       1.996   6.205  20.215  0.00  0.00    +0.000 A 
ATOM     16  C   UNL     1       1.755   7.572  20.360  0.00  0.00    +0.000 A 
ATOM     17  C   UNL     1       1.941   8.432  19.279  0.00  0.00    +0.000 A 
ATOM     18  C   UNL     1       2.392   7.932  18.061  0.00  0.00    +0.000 A 
ATOM     19  C   UNL     1       2.640   6.569  17.916  0.00  0.00    +0.000 A 
ENDBRANCH   5  14
TORSDOF 2
ENDMDL
