MODEL 1
REMARK VINA RESULT:      -7.9      0.000      0.000
REMARK  Name = 
REMARK  8 active torsions:
REMARK  status: ('A' for Active; 'I' for Inactive)
REMARK    1  A    between atoms: C_1  and  O_2
REMARK    2  A    between atoms: O_2  and  C_3
REMARK    3  A    between atoms: C_3  and  C_5
REMARK    4  A    between atoms: C_5  and  C_6
REMARK    5  A    between atoms: C_11  and  N_12
REMARK    6  A    between atoms: C_13  and  C_15
REMARK    7  A    between atoms: C_26  and  C_27
REMARK    8  A    between atoms: C_27  and  O_28
REMARK                            x       y       z     vdW  Elec       q    Type
REMARK                         _______ _______ _______ _____ _____    ______ ____
ROOT
ATOM      1  C   UNL     1       2.523   5.043  18.024  0.00  0.00    +0.000 C 
ATOM      2  C   UNL     1       3.637   6.087  17.942  0.00  0.00    +0.000 C 
ATOM      3  C   UNL     1       4.823   5.594  17.113  0.00  0.00    +0.000 C 
ATOM      4  C   UNL     1       6.079   6.281  17.526  0.00  0.00    +0.000 A 
ATOM      5  C   UNL     1       6.512   7.571  17.269  0.00  0.00    +0.000 A 
ATOM      6  C   UNL     1       7.700   8.021  17.859  0.00  0.00    +0.000 A 
ATOM      7  C   UNL     1       8.441   7.145  18.680  0.00  0.00    +0.000 A 
ATOM      8  C   UNL     1       7.984   5.847  18.947  0.00  0.00    +0.000 A 
ATOM      9  C   UNL     1       6.808   5.443  18.350  0.00  0.00    +0.000 A 
ATOM     10  O   UNL     1       6.228   4.217  18.524  0.00  0.00    +0.000 OA
ATOM     11  C   UNL     1       5.248   4.155  17.442  0.00  0.00    +0.000 C 
ATOM     12  C   UNL     1       4.076   3.226  17.800  0.00  0.00    +0.000 C 
ATOM     13  O   UNL     1       3.074   3.860  18.607  0.00  0.00    +0.000 OA
ENDROOT
BRANCH   6  14
ATOM     14  N   UNL     1       8.198   9.329  17.662  0.00  0.00    +0.000 N 
ATOM     15  C   UNL     1       8.866  10.086  18.615  0.00  0.00    +0.000 C 
ATOM     16  O   UNL     1       9.228   9.676  19.709  0.00  0.00    +0.000 OA
ATOM     17  H   UNL     1       8.174   9.686  16.714  0.00  0.00    +0.000 HD
BRANCH  15  18
ATOM     18  C   UNL     1       9.172  11.523  18.168  0.00  0.00    +0.000 C 
ATOM     19  C   UNL     1       8.990  12.519  19.317  0.00  0.00    +0.000 C 
ATOM     20  C   UNL     1      10.088  12.343  20.360  0.00  0.00    +0.000 C 
ATOM     21  O   UNL     1      11.371  12.524  19.762  0.00  0.00    +0.000 OA
ATOM     22  C   UNL     1      11.641  11.558  18.745  0.00  0.00    +0.000 C 
ATOM     23  C   UNL     1      10.605  11.653  17.626  0.00  0.00    +0.000 C 
ENDBRANCH  15  18
ENDBRANCH   6  14
BRANCH   1  24
ATOM     24  C   UNL     1       1.427   5.564  18.957  0.00  0.00    +0.000 C 
BRANCH  24  25
ATOM     25  C   UNL     1       1.526   5.013  20.357  0.00  0.00    +0.000 C 
ATOM     26  O   UNL     1       2.271   5.432  21.235  0.00  0.00    +0.000 OA
BRANCH  25  28
ATOM     27  C   UNL     1       1.257   2.844  21.241  0.00  0.00    +0.000 C 
ATOM     28  O   UNL     1       0.719   3.915  20.465  0.00  0.00    +0.000 OA
ENDBRANCH  25  28
ENDBRANCH  24  25
ENDBRANCH   1  24
BRANCH  12  29
ATOM     29  C   UNL     1       4.561   1.997  18.582  0.00  0.00    +0.000 C 
BRANCH  29  30
ATOM     30  O   UNL     1       4.893   2.312  19.930  0.00  0.00    +0.000 OA
ATOM     31  H   UNL     1       5.130   1.468  20.356  0.00  0.00    +0.000 HD
ENDBRANCH  29  30
ENDBRANCH  12  29
TORSDOF 7
ENDMDL
MODEL 2
REMARK VINA RESULT:      -7.9      5.427      9.597
REMARK  Name = 
REMARK  8 active torsions:
REMARK  status: ('A' for Active; 'I' for Inactive)
REMARK    1  A    between atoms: C_1  and  O_2
REMARK    2  A    between atoms: O_2  and  C_3
REMARK    3  A    between atoms: C_3  and  C_5
REMARK    4  A    between atoms: C_5  and  C_6
REMARK    5  A    between atoms: C_11  and  N_12
REMARK    6  A    between atoms: C_13  and  C_15
REMARK    7  A    between atoms: C_26  and  C_27
REMARK    8  A    between atoms: C_27  and  O_28
REMARK                            x       y       z     vdW  Elec       q    Type
REMARK                         _______ _______ _______ _____ _____    ______ ____
ROOT
ATOM      1  C   UNL     1       1.619  13.117  18.462  0.00  0.00    +0.000 C 
ATOM      2  C   UNL     1       2.063  11.662  18.315  0.00  0.00    +0.000 C 
ATOM      3  C   UNL     1       0.880  10.695  18.357  0.00  0.00    +0.000 C 
ATOM      4  C   UNL     1       1.312   9.349  18.825  0.00  0.00    +0.000 A 
ATOM      5  C   UNL     1       2.020   8.361  18.161  0.00  0.00    +0.000 A 
ATOM      6  C   UNL     1       2.396   7.206  18.859  0.00  0.00    +0.000 A 
ATOM      7  C   UNL     1       2.029   7.064  20.213  0.00  0.00    +0.000 A 
ATOM      8  C   UNL     1       1.329   8.078  20.881  0.00  0.00    +0.000 A 
ATOM      9  C   UNL     1       0.978   9.201  20.160  0.00  0.00    +0.000 A 
ATOM     10  O   UNL     1       0.309  10.278  20.673  0.00  0.00    +0.000 OA
ATOM     11  C   UNL     1      -0.124  11.000  19.479  0.00  0.00    +0.000 C 
ATOM     12  C   UNL     1      -0.302  12.500  19.765  0.00  0.00    +0.000 C 
ATOM     13  O   UNL     1       0.927  13.238  19.707  0.00  0.00    +0.000 OA
ENDROOT
BRANCH   6  14
ATOM     14  N   UNL     1       3.135   6.162  18.257  0.00  0.00    +0.000 N 
ATOM     15  C   UNL     1       2.605   4.960  17.807  0.00  0.00    +0.000 C 
ATOM     16  O   UNL     1       1.412   4.696  17.751  0.00  0.00    +0.000 OA
ATOM     17  H   UNL     1       4.100   6.364  18.025  0.00  0.00    +0.000 HD
BRANCH  15  18
ATOM     18  C   UNL     1       3.662   3.957  17.322  0.00  0.00    +0.000 C 
ATOM     19  C   UNL     1       4.912   3.986  18.208  0.00  0.00    +0.000 C 
ATOM     20  C   UNL     1       4.613   3.391  19.580  0.00  0.00    +0.000 C 
ATOM     21  O   UNL     1       4.148   2.049  19.445  0.00  0.00    +0.000 OA
ATOM     22  C   UNL     1       2.926   1.965  18.709  0.00  0.00    +0.000 C 
ATOM     23  C   UNL     1       3.110   2.521  17.298  0.00  0.00    +0.000 C 
ENDBRANCH  15  18
ENDBRANCH   6  14
BRANCH   1  24
ATOM     24  C   UNL     1       2.862  14.008  18.523  0.00  0.00    +0.000 C 
BRANCH  24  25
ATOM     25  C   UNL     1       2.551  15.475  18.364  0.00  0.00    +0.000 C 
ATOM     26  O   UNL     1       1.682  16.088  18.972  0.00  0.00    +0.000 OA
BRANCH  25  28
ATOM     27  C   UNL     1       2.757  17.094  16.661  0.00  0.00    +0.000 C 
ATOM     28  O   UNL     1       3.331  15.993  17.368  0.00  0.00    +0.000 OA
ENDBRANCH  25  28
ENDBRANCH  24  25
ENDBRANCH   1  24
BRANCH  12  29
ATOM     29  C   UNL     1      -0.892  12.733  21.164  0.00  0.00    +0.000 C 
BRANCH  29  30
ATOM     30  O   UNL     1       0.112  12.772  22.173  0.00  0.00    +0.000 OA
ATOM     31  H   UNL     1       0.918  13.110  21.740  0.00  0.00    +0.000 HD
ENDBRANCH  29  30
ENDBRANCH  12  29
TORSDOF 7
ENDMDL
MODEL 3
REMARK VINA RESULT:      -7.7      5.337      9.080
REMARK  Name = 
REMARK  8 active torsions:
REMARK  status: ('A' for Active; 'I' for Inactive)
REMARK    1  A    between atoms: C_1  and  O_2
REMARK    2  A    between atoms: O_2  and  C_3
REMARK    3  A    between atoms: C_3  and  C_5
REMARK    4  A    between atoms: C_5  and  C_6
REMARK    5  A    between atoms: C_11  and  N_12
REMARK    6  A    between atoms: C_13  and  C_15
REMARK    7  A    between atoms: C_26  and  C_27
REMARK    8  A    between atoms: C_27  and  O_28
REMARK                            x       y       z     vdW  Elec       q    Type
REMARK                         _______ _______ _______ _____ _____    ______ ____
ROOT
ATOM      1  C   UNL     1       0.364  13.549  18.928  0.00  0.00    +0.000 C 
ATOM      2  C   UNL     1       1.064  12.215  18.666  0.00  0.00    +0.000 C 
ATOM      3  C   UNL     1       0.081  11.045  18.663  0.00  0.00    +0.000 C 
ATOM      4  C   UNL     1       0.771   9.774  19.023  0.00  0.00    +0.000 A 
ATOM      5  C   UNL     1       1.625   8.982  18.274  0.00  0.00    +0.000 A 
ATOM      6  C   UNL     1       2.232   7.874  18.878  0.00  0.00    +0.000 A 
ATOM      7  C   UNL     1       1.944   7.575  20.226  0.00  0.00    +0.000 A 
ATOM      8  C   UNL     1       1.092   8.394  20.980  0.00  0.00    +0.000 A 
ATOM      9  C   UNL     1       0.516   9.477  20.351  0.00  0.00    +0.000 A 
ATOM     10  O   UNL     1      -0.322  10.374  20.954  0.00  0.00    +0.000 OA
ATOM     11  C   UNL     1      -0.923  11.081  19.825  0.00  0.00    +0.000 C 
ATOM     12  C   UNL     1      -1.364  12.499  20.223  0.00  0.00    +0.000 C 
ATOM     13  O   UNL     1      -0.296  13.455  20.193  0.00  0.00    +0.000 OA
ENDROOT
BRANCH   6  14
ATOM     14  N   UNL     1       3.129   7.029  18.186  0.00  0.00    +0.000 N 
ATOM     15  C   UNL     1       2.894   5.699  17.866  0.00  0.00    +0.000 C 
ATOM     16  O   UNL     1       1.830   5.117  18.022  0.00  0.00    +0.000 OA
ATOM     17  H   UNL     1       3.950   7.468  17.788  0.00  0.00    +0.000 HD
BRANCH  15  18
ATOM     18  C   UNL     1       4.100   4.988  17.234  0.00  0.00    +0.000 C 
ATOM     19  C   UNL     1       5.424   5.579  17.731  0.00  0.00    +0.000 C 
ATOM     20  C   UNL     1       5.658   5.217  19.194  0.00  0.00    +0.000 C 
ATOM     21  O   UNL     1       5.671   3.799  19.356  0.00  0.00    +0.000 OA
ATOM     22  C   UNL     1       4.425   3.197  19.001  0.00  0.00    +0.000 C 
ATOM     23  C   UNL     1       4.090   3.480  17.537  0.00  0.00    +0.000 C 
ENDBRANCH  15  18
ENDBRANCH   6  14
BRANCH   1  24
ATOM     24  C   UNL     1       1.423  14.651  19.026  0.00  0.00    +0.000 C 
BRANCH  24  25
ATOM     25  C   UNL     1       2.667  14.215  19.757  0.00  0.00    +0.000 C 
ATOM     26  O   UNL     1       2.709  13.811  20.913  0.00  0.00    +0.000 OA
BRANCH  25  28
ATOM     27  C   UNL     1       4.888  14.995  19.612  0.00  0.00    +0.000 C 
ATOM     28  O   UNL     1       3.754  14.427  18.956  0.00  0.00    +0.000 OA
ENDBRANCH  25  28
ENDBRANCH  24  25
ENDBRANCH   1  24
BRANCH  12  29
ATOM     29  C   UNL     1      -1.938  12.523  21.648  0.00  0.00    +0.000 C 
BRANCH  29  30
ATOM     30  O   UNL     1      -0.920  12.631  22.637  0.00  0.00    +0.000 OA
ATOM     31  H   UNL     1      -0.959  13.547  22.968  0.00  0.00    +0.000 HD
ENDBRANCH  29  30
ENDBRANCH  12  29
TORSDOF 7
ENDMDL
MODEL 4
REMARK VINA RESULT:      -7.7      5.972      9.432
REMARK  Name = 
REMARK  8 active torsions:
REMARK  status: ('A' for Active; 'I' for Inactive)
REMARK    1  A    between atoms: C_1  and  O_2
REMARK    2  A    between atoms: O_2  and  C_3
REMARK    3  A    between atoms: C_3  and  C_5
REMARK    4  A    between atoms: C_5  and  C_6
REMARK    5  A    between atoms: C_11  and  N_12
REMARK    6  A    between atoms: C_13  and  C_15
REMARK    7  A    between atoms: C_26  and  C_27
REMARK    8  A    between atoms: C_27  and  O_28
REMARK                            x       y       z     vdW  Elec       q    Type
REMARK                         _______ _______ _______ _____ _____    ______ ____
ROOT
ATOM      1  C   UNL     1       0.644  13.607  19.164  0.00  0.00    +0.000 C 
ATOM      2  C   UNL     1       1.270  12.248  18.847  0.00  0.00    +0.000 C 
ATOM      3  C   UNL     1       0.233  11.126  18.847  0.00  0.00    +0.000 C 
ATOM      4  C   UNL     1       0.871   9.815  19.152  0.00  0.00    +0.000 A 
ATOM      5  C   UNL     1       1.661   9.004  18.356  0.00  0.00    +0.000 A 
ATOM      6  C   UNL     1       2.233   7.853  18.911  0.00  0.00    +0.000 A 
ATOM      7  C   UNL     1       1.974   7.532  20.261  0.00  0.00    +0.000 A 
ATOM      8  C   UNL     1       1.187   8.370  21.063  0.00  0.00    +0.000 A 
ATOM      9  C   UNL     1       0.644   9.496  20.479  0.00  0.00    +0.000 A 
ATOM     10  O   UNL     1      -0.130  10.415  21.133  0.00  0.00    +0.000 OA
ATOM     11  C   UNL     1      -0.731  11.179  20.042  0.00  0.00    +0.000 C 
ATOM     12  C   UNL     1      -1.091  12.606  20.490  0.00  0.00    +0.000 C 
ATOM     13  O   UNL     1       0.021  13.511  20.448  0.00  0.00    +0.000 OA
ENDROOT
BRANCH   6  14
ATOM     14  N   UNL     1       3.066   6.984  18.170  0.00  0.00    +0.000 N 
ATOM     15  C   UNL     1       2.817   5.639  17.935  0.00  0.00    +0.000 C 
ATOM     16  O   UNL     1       1.781   5.056  18.225  0.00  0.00    +0.000 OA
ATOM     17  H   UNL     1       3.836   7.412  17.670  0.00  0.00    +0.000 HD
BRANCH  15  18
ATOM     18  C   UNL     1       3.961   4.910  17.214  0.00  0.00    +0.000 C 
ATOM     19  C   UNL     1       5.318   5.549  17.527  0.00  0.00    +0.000 C 
ATOM     20  C   UNL     1       5.719   5.277  18.973  0.00  0.00    +0.000 C 
ATOM     21  O   UNL     1       5.780   3.872  19.214  0.00  0.00    +0.000 OA
ATOM     22  C   UNL     1       4.516   3.232  19.034  0.00  0.00    +0.000 C 
ATOM     23  C   UNL     1       4.016   3.423  17.603  0.00  0.00    +0.000 C 
ENDBRANCH  15  18
ENDBRANCH   6  14
BRANCH   1  24
ATOM     24  C   UNL     1       1.757  14.654  19.255  0.00  0.00    +0.000 C 
BRANCH  24  25
ATOM     25  C   UNL     1       1.255  16.025  19.629  0.00  0.00    +0.000 C 
ATOM     26  O   UNL     1       1.442  16.583  20.704  0.00  0.00    +0.000 OA
BRANCH  25  28
ATOM     27  C   UNL     1       1.075  17.562  17.850  0.00  0.00    +0.000 C 
ATOM     28  O   UNL     1       0.481  16.511  18.612  0.00  0.00    +0.000 OA
ENDBRANCH  25  28
ENDBRANCH  24  25
ENDBRANCH   1  24
BRANCH  12  29
ATOM     29  C   UNL     1      -1.617  12.619  21.932  0.00  0.00    +0.000 C 
BRANCH  29  30
ATOM     30  O   UNL     1      -0.580  12.417  22.887  0.00  0.00    +0.000 OA
ATOM     31  H   UNL     1      -0.062  11.655  22.568  0.00  0.00    +0.000 HD
ENDBRANCH  29  30
ENDBRANCH  12  29
TORSDOF 7
ENDMDL
MODEL 5
REMARK VINA RESULT:      -7.7      0.933      1.334
REMARK  Name = 
REMARK  8 active torsions:
REMARK  status: ('A' for Active; 'I' for Inactive)
REMARK    1  A    between atoms: C_1  and  O_2
REMARK    2  A    between atoms: O_2  and  C_3
REMARK    3  A    between atoms: C_3  and  C_5
REMARK    4  A    between atoms: C_5  and  C_6
REMARK    5  A    between atoms: C_11  and  N_12
REMARK    6  A    between atoms: C_13  and  C_15
REMARK    7  A    between atoms: C_26  and  C_27
REMARK    8  A    between atoms: C_27  and  O_28
REMARK                            x       y       z     vdW  Elec       q    Type
REMARK                         _______ _______ _______ _____ _____    ______ ____
ROOT
ATOM      1  C   UNL     1       2.591   5.137  17.944  0.00  0.00    +0.000 C 
ATOM      2  C   UNL     1       3.738   6.143  17.852  0.00  0.00    +0.000 C 
ATOM      3  C   UNL     1       4.975   5.541  17.187  0.00  0.00    +0.000 C 
ATOM      4  C   UNL     1       6.211   6.242  17.634  0.00  0.00    +0.000 A 
ATOM      5  C   UNL     1       6.703   7.489  17.283  0.00  0.00    +0.000 A 
ATOM      6  C   UNL     1       7.849   7.974  17.924  0.00  0.00    +0.000 A 
ATOM      7  C   UNL     1       8.491   7.176  18.895  0.00  0.00    +0.000 A 
ATOM      8  C   UNL     1       7.975   5.924  19.255  0.00  0.00    +0.000 A 
ATOM      9  C   UNL     1       6.842   5.482  18.603  0.00  0.00    +0.000 A 
ATOM     10  O   UNL     1       6.214   4.293  18.852  0.00  0.00    +0.000 OA
ATOM     11  C   UNL     1       5.328   4.137  17.700  0.00  0.00    +0.000 C 
ATOM     12  C   UNL     1       4.103   3.275  18.049  0.00  0.00    +0.000 C 
ATOM     13  O   UNL     1       3.056   4.012  18.694  0.00  0.00    +0.000 OA
ENDROOT
BRANCH   6  14
ATOM     14  N   UNL     1       8.401   9.243  17.636  0.00  0.00    +0.000 N 
ATOM     15  C   UNL     1       8.912  10.128  18.575  0.00  0.00    +0.000 C 
ATOM     16  O   UNL     1       9.075   9.877  19.761  0.00  0.00    +0.000 OA
ATOM     17  H   UNL     1       8.545   9.464  16.658  0.00  0.00    +0.000 HD
BRANCH  15  18
ATOM     18  C   UNL     1       9.319  11.490  17.992  0.00  0.00    +0.000 C 
ATOM     19  C   UNL     1       8.973  12.636  18.947  0.00  0.00    +0.000 C 
ATOM     20  C   UNL     1       9.881  12.607  20.172  0.00  0.00    +0.000 C 
ATOM     21  O   UNL     1      11.248  12.705  19.776  0.00  0.00    +0.000 OA
ATOM     22  C   UNL     1      11.661  11.607  18.960  0.00  0.00    +0.000 C 
ATOM     23  C   UNL     1      10.825  11.544  17.683  0.00  0.00    +0.000 C 
ENDBRANCH  15  18
ENDBRANCH   6  14
BRANCH   1  24
ATOM     24  C   UNL     1       1.435   5.777  18.718  0.00  0.00    +0.000 C 
BRANCH  24  25
ATOM     25  C   UNL     1       1.817   6.200  20.114  0.00  0.00    +0.000 C 
ATOM     26  O   UNL     1       1.936   5.452  21.077  0.00  0.00    +0.000 OA
BRANCH  25  28
ATOM     27  C   UNL     1       1.178   8.194  21.201  0.00  0.00    +0.000 C 
ATOM     28  O   UNL     1       1.920   7.563  20.157  0.00  0.00    +0.000 OA
ENDBRANCH  25  28
ENDBRANCH  24  25
ENDBRANCH   1  24
BRANCH  12  29
ATOM     29  C   UNL     1       4.483   2.127  18.996  0.00  0.00    +0.000 C 
BRANCH  29  30
ATOM     30  O   UNL     1       4.195   0.850  18.437  0.00  0.00    +0.000 OA
ATOM     31  H   UNL     1       4.283   0.208  19.166  0.00  0.00    +0.000 HD
ENDBRANCH  29  30
ENDBRANCH  12  29
TORSDOF 7
ENDMDL
MODEL 6
REMARK VINA RESULT:      -7.6      6.309      9.721
REMARK  Name = 
REMARK  8 active torsions:
REMARK  status: ('A' for Active; 'I' for Inactive)
REMARK    1  A    between atoms: C_1  and  O_2
REMARK    2  A    between atoms: O_2  and  C_3
REMARK    3  A    between atoms: C_3  and  C_5
REMARK    4  A    between atoms: C_5  and  C_6
REMARK    5  A    between atoms: C_11  and  N_12
REMARK    6  A    between atoms: C_13  and  C_15
REMARK    7  A    between atoms: C_26  and  C_27
REMARK    8  A    between atoms: C_27  and  O_28
REMARK                            x       y       z     vdW  Elec       q    Type
REMARK                         _______ _______ _______ _____ _____    ______ ____
ROOT
ATOM      1  C   UNL     1      -1.280  12.241  21.882  0.00  0.00    +0.000 C 
ATOM      2  C   UNL     1      -0.661  10.862  21.651  0.00  0.00    +0.000 C 
ATOM      3  C   UNL     1       0.824  10.954  21.298  0.00  0.00    +0.000 C 
ATOM      4  C   UNL     1       1.253   9.769  20.504  0.00  0.00    +0.000 A 
ATOM      5  C   UNL     1       1.491   8.466  20.908  0.00  0.00    +0.000 A 
ATOM      6  C   UNL     1       1.792   7.497  19.943  0.00  0.00    +0.000 A 
ATOM      7  C   UNL     1       1.870   7.872  18.585  0.00  0.00    +0.000 A 
ATOM      8  C   UNL     1       1.609   9.190  18.185  0.00  0.00    +0.000 A 
ATOM      9  C   UNL     1       1.313  10.114  19.165  0.00  0.00    +0.000 A 
ATOM     10  O   UNL     1       1.023  11.431  18.932  0.00  0.00    +0.000 OA
ATOM     11  C   UNL     1       1.143  12.037  20.257  0.00  0.00    +0.000 C 
ATOM     12  C   UNL     1       0.267  13.295  20.377  0.00  0.00    +0.000 C 
ATOM     13  O   UNL     1      -1.104  13.005  20.686  0.00  0.00    +0.000 OA
ENDROOT
BRANCH   6  14
ATOM     14  N   UNL     1       2.028   6.144  20.274  0.00  0.00    +0.000 N 
ATOM     15  C   UNL     1       3.113   5.390  19.846  0.00  0.00    +0.000 C 
ATOM     16  O   UNL     1       4.078   5.832  19.236  0.00  0.00    +0.000 OA
ATOM     17  H   UNL     1       1.423   5.736  20.976  0.00  0.00    +0.000 HD
BRANCH  15  18
ATOM     18  C   UNL     1       3.041   3.909  20.247  0.00  0.00    +0.000 C 
ATOM     19  C   UNL     1       1.623   3.352  20.081  0.00  0.00    +0.000 C 
ATOM     20  C   UNL     1       1.264   3.230  18.604  0.00  0.00    +0.000 C 
ATOM     21  O   UNL     1       2.198   2.382  17.938  0.00  0.00    +0.000 OA
ATOM     22  C   UNL     1       3.529   2.899  17.972  0.00  0.00    +0.000 C 
ATOM     23  C   UNL     1       4.008   3.051  19.416  0.00  0.00    +0.000 C 
ENDBRANCH  15  18
ENDBRANCH   6  14
BRANCH   1  24
ATOM     24  C   UNL     1      -2.783  12.073  22.119  0.00  0.00    +0.000 C 
BRANCH  24  25
ATOM     25  C   UNL     1      -3.231  12.570  23.469  0.00  0.00    +0.000 C 
ATOM     26  O   UNL     1      -4.082  12.042  24.177  0.00  0.00    +0.000 OA
BRANCH  25  28
ATOM     27  C   UNL     1      -3.153  14.492  24.834  0.00  0.00    +0.000 C 
ATOM     28  O   UNL     1      -2.604  13.754  23.742  0.00  0.00    +0.000 OA
ENDBRANCH  25  28
ENDBRANCH  24  25
ENDBRANCH   1  24
BRANCH  12  29
ATOM     29  C   UNL     1       0.264  14.098  19.068  0.00  0.00    +0.000 C 
BRANCH  29  30
ATOM     30  O   UNL     1      -0.749  13.659  18.169  0.00  0.00    +0.000 OA
ATOM     31  H   UNL     1      -0.324  13.592  17.293  0.00  0.00    +0.000 HD
ENDBRANCH  29  30
ENDBRANCH  12  29
TORSDOF 7
ENDMDL
MODEL 7
REMARK VINA RESULT:      -7.5      5.321      9.194
REMARK  Name = 
REMARK  8 active torsions:
REMARK  status: ('A' for Active; 'I' for Inactive)
REMARK    1  A    between atoms: C_1  and  O_2
REMARK    2  A    between atoms: O_2  and  C_3
REMARK    3  A    between atoms: C_3  and  C_5
REMARK    4  A    between atoms: C_5  and  C_6
REMARK    5  A    between atoms: C_11  and  N_12
REMARK    6  A    between atoms: C_13  and  C_15
REMARK    7  A    between atoms: C_26  and  C_27
REMARK    8  A    between atoms: C_27  and  O_28
REMARK                            x       y       z     vdW  Elec       q    Type
REMARK                         _______ _______ _______ _____ _____    ______ ____
ROOT
ATOM      1  C   UNL     1       1.454  13.350  19.025  0.00  0.00    +0.000 C 
ATOM      2  C   UNL     1       1.929  11.920  18.767  0.00  0.00    +0.000 C 
ATOM      3  C   UNL     1       0.765  10.932  18.709  0.00  0.00    +0.000 C 
ATOM      4  C   UNL     1       1.217   9.560  19.073  0.00  0.00    +0.000 A 
ATOM      5  C   UNL     1       1.954   8.643  18.343  0.00  0.00    +0.000 A 
ATOM      6  C   UNL     1       2.343   7.443  18.950  0.00  0.00    +0.000 A 
ATOM      7  C   UNL     1       1.957   7.182  20.282  0.00  0.00    +0.000 A 
ATOM      8  C   UNL     1       1.227   8.125  21.018  0.00  0.00    +0.000 A 
ATOM      9  C   UNL     1       0.865   9.297  20.386  0.00  0.00    +0.000 A 
ATOM     10  O   UNL     1       0.167  10.316  20.973  0.00  0.00    +0.000 OA
ATOM     11  C   UNL     1      -0.262  11.125  19.835  0.00  0.00    +0.000 C 
ATOM     12  C   UNL     1      -0.474  12.593  20.240  0.00  0.00    +0.000 C 
ATOM     13  O   UNL     1       0.740  13.356  20.263  0.00  0.00    +0.000 OA
ENDROOT
BRANCH   6  14
ATOM     14  N   UNL     1       3.111   6.465  18.277  0.00  0.00    +0.000 N 
ATOM     15  C   UNL     1       2.654   5.214  17.885  0.00  0.00    +0.000 C 
ATOM     16  O   UNL     1       1.491   4.840  17.950  0.00  0.00    +0.000 OA
ATOM     17  H   UNL     1       4.025   6.754  17.949  0.00  0.00    +0.000 HD
BRANCH  15  18
ATOM     18  C   UNL     1       3.746   4.308  17.296  0.00  0.00    +0.000 C 
ATOM     19  C   UNL     1       5.148   4.820  17.646  0.00  0.00    +0.000 C 
ATOM     20  C   UNL     1       5.435   4.627  19.131  0.00  0.00    +0.000 C 
ATOM     21  O   UNL     1       5.323   3.248  19.480  0.00  0.00    +0.000 OA
ATOM     22  C   UNL     1       4.006   2.736  19.270  0.00  0.00    +0.000 C 
ATOM     23  C   UNL     1       3.611   2.861  17.799  0.00  0.00    +0.000 C 
ENDBRANCH  15  18
ENDBRANCH   6  14
BRANCH   1  24
ATOM     24  C   UNL     1       2.678  14.257  19.179  0.00  0.00    +0.000 C 
BRANCH  24  25
ATOM     25  C   UNL     1       3.055  14.506  20.617  0.00  0.00    +0.000 C 
ATOM     26  O   UNL     1       3.541  13.679  21.380  0.00  0.00    +0.000 OA
BRANCH  25  28
ATOM     27  C   UNL     1       2.632  16.028  22.369  0.00  0.00    +0.000 C 
ATOM     28  O   UNL     1       2.686  15.776  20.964  0.00  0.00    +0.000 OA
ENDBRANCH  25  28
ENDBRANCH  24  25
ENDBRANCH   1  24
BRANCH  12  29
ATOM     29  C   UNL     1      -1.090  12.699  21.643  0.00  0.00    +0.000 C 
BRANCH  29  30
ATOM     30  O   UNL     1      -2.246  11.881  21.787  0.00  0.00    +0.000 OA
ATOM     31  H   UNL     1      -2.724  12.221  22.566  0.00  0.00    +0.000 HD
ENDBRANCH  29  30
ENDBRANCH  12  29
TORSDOF 7
ENDMDL
MODEL 8
REMARK VINA RESULT:      -7.5      6.235      9.757
REMARK  Name = 
REMARK  8 active torsions:
REMARK  status: ('A' for Active; 'I' for Inactive)
REMARK    1  A    between atoms: C_1  and  O_2
REMARK    2  A    between atoms: O_2  and  C_3
REMARK    3  A    between atoms: C_3  and  C_5
REMARK    4  A    between atoms: C_5  and  C_6
REMARK    5  A    between atoms: C_11  and  N_12
REMARK    6  A    between atoms: C_13  and  C_15
REMARK    7  A    between atoms: C_26  and  C_27
REMARK    8  A    between atoms: C_27  and  O_28
REMARK                            x       y       z     vdW  Elec       q    Type
REMARK                         _______ _______ _______ _____ _____    ______ ____
ROOT
ATOM      1  C   UNL     1      -1.290  12.433  21.389  0.00  0.00    +0.000 C 
ATOM      2  C   UNL     1      -0.738  11.009  21.336  0.00  0.00    +0.000 C 
ATOM      3  C   UNL     1       0.778  10.990  21.143  0.00  0.00    +0.000 C 
ATOM      4  C   UNL     1       1.215   9.721  20.496  0.00  0.00    +0.000 A 
ATOM      5  C   UNL     1       1.326   8.446  21.025  0.00  0.00    +0.000 A 
ATOM      6  C   UNL     1       1.667   7.385  20.177  0.00  0.00    +0.000 A 
ATOM      7  C   UNL     1       1.911   7.639  18.811  0.00  0.00    +0.000 A 
ATOM      8  C   UNL     1       1.777   8.931  18.283  0.00  0.00    +0.000 A 
ATOM      9  C   UNL     1       1.438   9.949  19.150  0.00  0.00    +0.000 A 
ATOM     10  O   UNL     1       1.257  11.254  18.784  0.00  0.00    +0.000 OA
ATOM     11  C   UNL     1       1.273  11.963  20.062  0.00  0.00    +0.000 C 
ATOM     12  C   UNL     1       0.469  13.272  19.987  0.00  0.00    +0.000 C 
ATOM     13  O   UNL     1      -0.941  13.083  20.164  0.00  0.00    +0.000 OA
ENDROOT
BRANCH   6  14
ATOM     14  N   UNL     1       1.781   6.053  20.637  0.00  0.00    +0.000 N 
ATOM     15  C   UNL     1       2.807   5.176  20.308  0.00  0.00    +0.000 C 
ATOM     16  O   UNL     1       3.816   5.477  19.685  0.00  0.00    +0.000 OA
ATOM     17  H   UNL     1       1.131   5.764  21.358  0.00  0.00    +0.000 HD
BRANCH  15  18
ATOM     18  C   UNL     1       2.602   3.750  20.841  0.00  0.00    +0.000 C 
ATOM     19  C   UNL     1       1.158   3.278  20.639  0.00  0.00    +0.000 C 
ATOM     20  C   UNL     1       0.875   3.035  19.160  0.00  0.00    +0.000 C 
ATOM     21  O   UNL     1       1.779   2.064  18.637  0.00  0.00    +0.000 OA
ATOM     22  C   UNL     1       3.141   2.490  18.707  0.00  0.00    +0.000 C 
ATOM     23  C   UNL     1       3.548   2.750  20.157  0.00  0.00    +0.000 C 
ENDBRANCH  15  18
ENDBRANCH   6  14
BRANCH   1  24
ATOM     24  C   UNL     1      -2.818  12.366  21.471  0.00  0.00    +0.000 C 
BRANCH  24  25
ATOM     25  C   UNL     1      -3.381  13.084  22.670  0.00  0.00    +0.000 C 
ATOM     26  O   UNL     1      -2.966  14.144  23.125  0.00  0.00    +0.000 OA
BRANCH  25  28
ATOM     27  C   UNL     1      -4.480  12.415  24.647  0.00  0.00    +0.000 C 
ATOM     28  O   UNL     1      -4.370  12.322  23.226  0.00  0.00    +0.000 OA
ENDBRANCH  25  28
ENDBRANCH  24  25
ENDBRANCH   1  24
BRANCH  12  29
ATOM     29  C   UNL     1       0.655  13.961  18.627  0.00  0.00    +0.000 C 
BRANCH  29  30
ATOM     30  O   UNL     1       2.016  13.966  18.207  0.00  0.00    +0.000 OA
ATOM     31  H   UNL     1       2.336  14.878  18.333  0.00  0.00    +0.000 HD
ENDBRANCH  29  30
ENDBRANCH  12  29
TORSDOF 7
ENDMDL
MODEL 9
REMARK VINA RESULT:      -7.5      5.216      8.612
REMARK  Name = 
REMARK  8 active torsions:
REMARK  status: ('A' for Active; 'I' for Inactive)
REMARK    1  A    between atoms: C_1  and  O_2
REMARK    2  A    between atoms: O_2  and  C_3
REMARK    3  A    between atoms: C_3  and  C_5
REMARK    4  A    between atoms: C_5  and  C_6
REMARK    5  A    between atoms: C_11  and  N_12
REMARK    6  A    between atoms: C_13  and  C_15
REMARK    7  A    between atoms: C_26  and  C_27
REMARK    8  A    between atoms: C_27  and  O_28
REMARK                            x       y       z     vdW  Elec       q    Type
REMARK                         _______ _______ _______ _____ _____    ______ ____
ROOT
ATOM      1  C   UNL     1       1.817  12.781  18.444  0.00  0.00    +0.000 C 
ATOM      2  C   UNL     1       2.275  11.333  18.275  0.00  0.00    +0.000 C 
ATOM      3  C   UNL     1       1.099  10.357  18.272  0.00  0.00    +0.000 C 
ATOM      4  C   UNL     1       1.533   9.004  18.720  0.00  0.00    +0.000 A 
ATOM      5  C   UNL     1       2.261   8.035  18.049  0.00  0.00    +0.000 A 
ATOM      6  C   UNL     1       2.632   6.869  18.729  0.00  0.00    +0.000 A 
ATOM      7  C   UNL     1       2.239   6.695  20.073  0.00  0.00    +0.000 A 
ATOM      8  C   UNL     1       1.518   7.689  20.748  0.00  0.00    +0.000 A 
ATOM      9  C   UNL     1       1.174   8.825  20.044  0.00  0.00    +0.000 A 
ATOM     10  O   UNL     1       0.486   9.886  20.567  0.00  0.00    +0.000 OA
ATOM     11  C   UNL     1       0.071  10.630  19.380  0.00  0.00    +0.000 C 
ATOM     12  C   UNL     1      -0.124  12.123  19.695  0.00  0.00    +0.000 C 
ATOM     13  O   UNL     1       1.099  12.871  19.677  0.00  0.00    +0.000 OA
ENDROOT
BRANCH   6  14
ATOM     14  N   UNL     1       3.391   5.844  18.119  0.00  0.00    +0.000 N 
ATOM     15  C   UNL     1       4.629   5.393  18.558  0.00  0.00    +0.000 C 
ATOM     16  O   UNL     1       5.169   5.728  19.603  0.00  0.00    +0.000 OA
ATOM     17  H   UNL     1       2.935   5.318  17.383  0.00  0.00    +0.000 HD
BRANCH  15  18
ATOM     18  C   UNL     1       5.283   4.364  17.623  0.00  0.00    +0.000 C 
ATOM     19  C   UNL     1       4.805   4.536  16.177  0.00  0.00    +0.000 C 
ATOM     20  C   UNL     1       5.370   5.818  15.574  0.00  0.00    +0.000 C 
ATOM     21  O   UNL     1       6.796   5.796  15.612  0.00  0.00    +0.000 OA
ATOM     22  C   UNL     1       7.306   5.736  16.945  0.00  0.00    +0.000 C 
ATOM     23  C   UNL     1       6.817   4.472  17.650  0.00  0.00    +0.000 C 
ENDBRANCH  15  18
ENDBRANCH   6  14
BRANCH   1  24
ATOM     24  C   UNL     1       3.052  13.680  18.548  0.00  0.00    +0.000 C 
BRANCH  24  25
ATOM     25  C   UNL     1       2.762  15.018  19.179  0.00  0.00    +0.000 C 
ATOM     26  O   UNL     1       3.038  15.338  20.330  0.00  0.00    +0.000 OA
BRANCH  25  28
ATOM     27  C   UNL     1       2.831  16.775  17.608  0.00  0.00    +0.000 C 
ATOM     28  O   UNL     1       2.060  15.788  18.294  0.00  0.00    +0.000 OA
ENDBRANCH  25  28
ENDBRANCH  24  25
ENDBRANCH   1  24
BRANCH  12  29
ATOM     29  C   UNL     1      -0.743  12.320  21.086  0.00  0.00    +0.000 C 
BRANCH  29  30
ATOM     30  O   UNL     1      -2.148  12.542  21.025  0.00  0.00    +0.000 OA
ATOM     31  H   UNL     1      -2.385  13.017  21.843  0.00  0.00    +0.000 HD
ENDBRANCH  29  30
ENDBRANCH  12  29
TORSDOF 7
ENDMDL
