MODEL 1
REMARK VINA RESULT:      -7.3      0.000      0.000
REMARK  Name = 
REMARK  2 active torsions:
REMARK  status: ('A' for Active; 'I' for Inactive)
REMARK    1  A    between atoms: C_4  and  S_5
REMARK    2  A    between atoms: S_5  and  C_6
REMARK                            x       y       z     vdW  Elec       q    Type
REMARK                         _______ _______ _______ _____ _____    ______ ____
ROOT
ATOM      1  O   UNL     1       3.404   8.149  17.029  0.00  0.00    +0.000 OA
ATOM      2  C   UNL     1       2.452   8.217  17.803  0.00  0.00    +0.000 C 
ATOM      3  C   UNL     1       1.644   9.463  17.909  0.00  0.00    +0.000 C 
ATOM      4  C   UNL     1       1.309   9.901  19.355  0.00  0.00    +0.000 C 
ATOM      5  C   UNL     1       1.223   8.757  20.565  0.00  0.00    +0.000 C 
ATOM      6  O   UNL     1      -0.172   8.983  20.689  0.00  0.00    +0.000 OA
ATOM      7  C   UNL     1      -0.200  10.157  21.613  0.00  0.00    +0.000 C 
ATOM      8  C   UNL     1      -0.081   9.174  22.650  0.00  0.00    +0.000 C 
ATOM      9  O   UNL     1       1.305   8.760  22.104  0.00  0.00    +0.000 OA
ATOM     10  C   UNL     1       1.585   7.345  19.992  0.00  0.00    +0.000 C 
ATOM     11  O   UNL     1       2.766   6.752  20.579  0.00  0.00    +0.000 OA
ATOM     12  N   UNL     1       3.204   5.566  19.827  0.00  0.00    +0.000 NA
ATOM     13  C   UNL     1       2.337   4.515  20.213  0.00  0.00    +0.000 C 
ATOM     14  C   UNL     1       1.484   3.461  20.629  0.00  0.00    +0.000 C 
ATOM     15  C   UNL     1       0.791   3.268  19.201  0.00  0.00    +0.000 C 
ATOM     16  C   UNL     1       1.541   4.292  17.933  0.00  0.00    +0.000 C 
ATOM     17  C   UNL     1       2.545   5.715  18.388  0.00  0.00    +0.000 C 
ATOM     18  C   UNL     1       1.773   7.047  18.496  0.00  0.00    +0.000 C 
ENDROOT
BRANCH   4  19
ATOM     19  S   UNL     1      -0.643  10.380  18.902  0.00  0.00    +0.000 S 
BRANCH  19  20
ATOM     20  C   UNL     1      -0.710  12.065  18.846  0.00  0.00    +0.000 A 
ATOM     21  C   UNL     1       0.360  12.911  18.521  0.00  0.00    +0.000 A 
ATOM     22  C   UNL     1       0.328  14.190  19.054  0.00  0.00    +0.000 A 
ATOM     23  C   UNL     1      -0.758  14.558  19.871  0.00  0.00    +0.000 A 
ATOM     24  C   UNL     1      -1.802  13.685  20.162  0.00  0.00    +0.000 A 
ATOM     25  C   UNL     1      -1.769  12.434  19.636  0.00  0.00    +0.000 A 
ENDBRANCH  19  20
ENDBRANCH   4  19
TORSDOF 2
ENDMDL
MODEL 2
REMARK VINA RESULT:      -7.2      5.404      9.099
REMARK  Name = 
REMARK  2 active torsions:
REMARK  status: ('A' for Active; 'I' for Inactive)
REMARK    1  A    between atoms: C_4  and  S_5
REMARK    2  A    between atoms: S_5  and  C_6
REMARK                            x       y       z     vdW  Elec       q    Type
REMARK                         _______ _______ _______ _____ _____    ______ ____
ROOT
ATOM      1  O   UNL     1      -3.777  12.251  24.434  0.00  0.00    +0.000 OA
ATOM      2  C   UNL     1      -3.150  12.918  23.615  0.00  0.00    +0.000 C 
ATOM      3  C   UNL     1      -2.803  12.358  22.280  0.00  0.00    +0.000 C 
ATOM      4  C   UNL     1      -1.351  12.625  21.818  0.00  0.00    +0.000 C 
ATOM      5  C   UNL     1      -0.539  13.967  22.384  0.00  0.00    +0.000 C 
ATOM      6  O   UNL     1      -0.544  14.529  21.081  0.00  0.00    +0.000 OA
ATOM      7  C   UNL     1       0.663  13.887  20.479  0.00  0.00    +0.000 C 
ATOM      8  C   UNL     1       1.384  14.941  21.129  0.00  0.00    +0.000 C 
ATOM      9  O   UNL     1       0.933  14.404  22.508  0.00  0.00    +0.000 OA
ATOM     10  C   UNL     1      -1.436  14.742  23.409  0.00  0.00    +0.000 C 
ATOM     11  O   UNL     1      -0.889  14.805  24.746  0.00  0.00    +0.000 OA
ATOM     12  N   UNL     1      -1.881  15.303  25.710  0.00  0.00    +0.000 NA
ATOM     13  C   UNL     1      -1.930  16.708  25.533  0.00  0.00    +0.000 C 
ATOM     14  C   UNL     1      -1.948  18.116  25.370  0.00  0.00    +0.000 C 
ATOM     15  C   UNL     1      -3.451  18.176  24.829  0.00  0.00    +0.000 C 
ATOM     16  C   UNL     1      -4.264  16.577  24.889  0.00  0.00    +0.000 C 
ATOM     17  C   UNL     1      -3.293  15.067  25.019  0.00  0.00    +0.000 C 
ATOM     18  C   UNL     1      -2.915  14.419  23.670  0.00  0.00    +0.000 C 
ENDROOT
BRANCH   4  19
ATOM     19  S   UNL     1      -1.907  13.085  19.888  0.00  0.00    +0.000 S 
BRANCH  19  20
ATOM     20  C   UNL     1      -2.097  11.609  19.092  0.00  0.00    +0.000 A 
ATOM     21  C   UNL     1      -1.054  10.802  18.614  0.00  0.00    +0.000 A 
ATOM     22  C   UNL     1      -1.346   9.978  17.539  0.00  0.00    +0.000 A 
ATOM     23  C   UNL     1      -2.648   9.996  17.004  0.00  0.00    +0.000 A 
ATOM     24  C   UNL     1      -3.654  10.810  17.516  0.00  0.00    +0.000 A 
ATOM     25  C   UNL     1      -3.366  11.614  18.571  0.00  0.00    +0.000 A 
ENDBRANCH  19  20
ENDBRANCH   4  19
TORSDOF 2
ENDMDL
MODEL 3
REMARK VINA RESULT:      -6.9      3.079      7.453
REMARK  Name = 
REMARK  2 active torsions:
REMARK  status: ('A' for Active; 'I' for Inactive)
REMARK    1  A    between atoms: C_4  and  S_5
REMARK    2  A    between atoms: S_5  and  C_6
REMARK                            x       y       z     vdW  Elec       q    Type
REMARK                         _______ _______ _______ _____ _____    ______ ____
ROOT
ATOM      1  O   UNL     1      -0.107   9.977  23.892  0.00  0.00    +0.000 OA
ATOM      2  C   UNL     1      -0.072  10.348  22.721  0.00  0.00    +0.000 C 
ATOM      3  C   UNL     1       0.678   9.571  21.697  0.00  0.00    +0.000 C 
ATOM      4  C   UNL     1       1.546  10.422  20.739  0.00  0.00    +0.000 C 
ATOM      5  C   UNL     1       1.119  12.002  20.423  0.00  0.00    +0.000 C 
ATOM      6  O   UNL     1       0.825  11.662  19.078  0.00  0.00    +0.000 OA
ATOM      7  C   UNL     1       2.176  11.761  18.447  0.00  0.00    +0.000 C 
ATOM      8  C   UNL     1       1.881  13.161  18.350  0.00  0.00    +0.000 C 
ATOM      9  O   UNL     1       1.832  13.261  19.893  0.00  0.00    +0.000 OA
ATOM     10  C   UNL     1      -0.144  12.393  21.265  0.00  0.00    +0.000 C 
ATOM     11  O   UNL     1       0.084  13.458  22.216  0.00  0.00    +0.000 OA
ATOM     12  N   UNL     1      -1.044  13.597  23.149  0.00  0.00    +0.000 NA
ATOM     13  C   UNL     1      -2.058  14.285  22.439  0.00  0.00    +0.000 C 
ATOM     14  C   UNL     1      -3.054  15.002  21.728  0.00  0.00    +0.000 C 
ATOM     15  C   UNL     1      -4.107  13.799  21.708  0.00  0.00    +0.000 C 
ATOM     16  C   UNL     1      -3.549  12.387  22.666  0.00  0.00    +0.000 C 
ATOM     17  C   UNL     1      -1.810  12.206  23.092  0.00  0.00    +0.000 C 
ATOM     18  C   UNL     1      -0.974  11.391  22.082  0.00  0.00    +0.000 C 
ENDROOT
BRANCH   4  19
ATOM     19  S   UNL     1       0.991   9.352  19.068  0.00  0.00    +0.000 S 
BRANCH  19  20
ATOM     20  C   UNL     1       2.224   8.231  18.799  0.00  0.00    +0.000 A 
ATOM     21  C   UNL     1       3.038   8.176  17.658  0.00  0.00    +0.000 A 
ATOM     22  C   UNL     1       3.567   6.938  17.329  0.00  0.00    +0.000 A 
ATOM     23  C   UNL     1       3.265   5.832  18.146  0.00  0.00    +0.000 A 
ATOM     24  C   UNL     1       2.455   5.936  19.273  0.00  0.00    +0.000 A 
ATOM     25  C   UNL     1       1.941   7.150  19.596  0.00  0.00    +0.000 A 
ENDBRANCH  19  20
ENDBRANCH   4  19
TORSDOF 2
ENDMDL
MODEL 4
REMARK VINA RESULT:      -6.9      3.567      7.740
REMARK  Name = 
REMARK  2 active torsions:
REMARK  status: ('A' for Active; 'I' for Inactive)
REMARK    1  A    between atoms: C_4  and  S_5
REMARK    2  A    between atoms: S_5  and  C_6
REMARK                            x       y       z     vdW  Elec       q    Type
REMARK                         _______ _______ _______ _____ _____    ______ ____
ROOT
ATOM      1  O   UNL     1       0.696  13.790  22.222  0.00  0.00    +0.000 OA
ATOM      2  C   UNL     1       0.014  12.917  21.691  0.00  0.00    +0.000 C 
ATOM      3  C   UNL     1       0.653  11.756  21.013  0.00  0.00    +0.000 C 
ATOM      4  C   UNL     1       0.043  11.387  19.639  0.00  0.00    +0.000 C 
ATOM      5  C   UNL     1      -1.552  11.752  19.319  0.00  0.00    +0.000 C 
ATOM      6  O   UNL     1      -1.869  10.370  19.289  0.00  0.00    +0.000 OA
ATOM      7  C   UNL     1      -1.527  10.019  17.878  0.00  0.00    +0.000 C 
ATOM      8  C   UNL     1      -2.839  10.514  17.577  0.00  0.00    +0.000 C 
ATOM      9  O   UNL     1      -2.420  11.923  18.058  0.00  0.00    +0.000 OA
ATOM     10  C   UNL     1      -2.179  12.517  20.534  0.00  0.00    +0.000 C 
ATOM     11  O   UNL     1      -2.616  13.861  20.226  0.00  0.00    +0.000 OA
ATOM     12  N   UNL     1      -2.945  14.613  21.446  0.00  0.00    +0.000 NA
ATOM     13  C   UNL     1      -4.224  14.160  21.853  0.00  0.00    +0.000 C 
ATOM     14  C   UNL     1      -5.518  13.723  22.234  0.00  0.00    +0.000 C 
ATOM     15  C   UNL     1      -5.041  13.044  23.601  0.00  0.00    +0.000 C 
ATOM     16  C   UNL     1      -3.304  13.341  23.942  0.00  0.00    +0.000 C 
ATOM     17  C   UNL     1      -2.192  13.854  22.622  0.00  0.00    +0.000 C 
ATOM     18  C   UNL     1      -1.478  12.699  21.889  0.00  0.00    +0.000 C 
ENDROOT
BRANCH   4  19
ATOM     19  S   UNL     1       0.087   9.362  20.013  0.00  0.00    +0.000 S 
BRANCH  19  20
ATOM     20  C   UNL     1       1.527   8.793  19.341  0.00  0.00    +0.000 A 
ATOM     21  C   UNL     1       1.973   9.051  18.037  0.00  0.00    +0.000 A 
ATOM     22  C   UNL     1       2.811   8.106  17.466  0.00  0.00    +0.000 A 
ATOM     23  C   UNL     1       3.162   6.968  18.216  0.00  0.00    +0.000 A 
ATOM     24  C   UNL     1       2.698   6.757  19.512  0.00  0.00    +0.000 A 
ATOM     25  C   UNL     1       1.879   7.685  20.069  0.00  0.00    +0.000 A 
ENDBRANCH  19  20
ENDBRANCH   4  19
TORSDOF 2
ENDMDL
MODEL 5
REMARK VINA RESULT:      -6.7      3.090      7.401
REMARK  Name = 
REMARK  2 active torsions:
REMARK  status: ('A' for Active; 'I' for Inactive)
REMARK    1  A    between atoms: C_4  and  S_5
REMARK    2  A    between atoms: S_5  and  C_6
REMARK                            x       y       z     vdW  Elec       q    Type
REMARK                         _______ _______ _______ _____ _____    ______ ____
ROOT
ATOM      1  O   UNL     1       0.093   9.726  23.701  0.00  0.00    +0.000 OA
ATOM      2  C   UNL     1       0.089  10.190  22.563  0.00  0.00    +0.000 C 
ATOM      3  C   UNL     1       0.727   9.453  21.438  0.00  0.00    +0.000 C 
ATOM      4  C   UNL     1       1.598  10.323  20.500  0.00  0.00    +0.000 C 
ATOM      5  C   UNL     1       1.266  11.949  20.338  0.00  0.00    +0.000 C 
ATOM      6  O   UNL     1       0.876  11.742  18.989  0.00  0.00    +0.000 OA
ATOM      7  C   UNL     1       2.195  11.805  18.289  0.00  0.00    +0.000 C 
ATOM      8  C   UNL     1       1.993  13.224  18.321  0.00  0.00    +0.000 C 
ATOM      9  O   UNL     1       2.035  13.198  19.867  0.00  0.00    +0.000 OA
ATOM     10  C   UNL     1       0.082  12.349  21.282  0.00  0.00    +0.000 C 
ATOM     11  O   UNL     1       0.435  13.314  22.299  0.00  0.00    +0.000 OA
ATOM     12  N   UNL     1      -0.629  13.449  23.306  0.00  0.00    +0.000 NA
ATOM     13  C   UNL     1      -1.629  14.258  22.715  0.00  0.00    +0.000 C 
ATOM     14  C   UNL     1      -2.611  15.095  22.124  0.00  0.00    +0.000 C 
ATOM     15  C   UNL     1      -3.744  13.968  22.072  0.00  0.00    +0.000 C 
ATOM     16  C   UNL     1      -3.235  12.448  22.879  0.00  0.00    +0.000 C 
ATOM     17  C   UNL     1      -1.492  12.120  23.185  0.00  0.00    +0.000 C 
ATOM     18  C   UNL     1      -0.771  11.339  22.065  0.00  0.00    +0.000 C 
ENDROOT
BRANCH   4  19
ATOM     19  S   UNL     1       0.880   9.434  18.786  0.00  0.00    +0.000 S 
BRANCH  19  20
ATOM     20  C   UNL     1       1.753   8.002  18.601  0.00  0.00    +0.000 A 
ATOM     21  C   UNL     1       1.937   7.028  19.594  0.00  0.00    +0.000 A 
ATOM     22  C   UNL     1       3.082   6.252  19.500  0.00  0.00    +0.000 A 
ATOM     23  C   UNL     1       3.971   6.480  18.433  0.00  0.00    +0.000 A 
ATOM     24  C   UNL     1       3.742   7.455  17.466  0.00  0.00    +0.000 A 
ATOM     25  C   UNL     1       2.619   8.212  17.558  0.00  0.00    +0.000 A 
ENDBRANCH  19  20
ENDBRANCH   4  19
TORSDOF 2
ENDMDL
MODEL 6
REMARK VINA RESULT:      -6.6      0.818      1.321
REMARK  Name = 
REMARK  2 active torsions:
REMARK  status: ('A' for Active; 'I' for Inactive)
REMARK    1  A    between atoms: C_4  and  S_5
REMARK    2  A    between atoms: S_5  and  C_6
REMARK                            x       y       z     vdW  Elec       q    Type
REMARK                         _______ _______ _______ _____ _____    ______ ____
ROOT
ATOM      1  O   UNL     1       4.069   7.300  17.137  0.00  0.00    +0.000 OA
ATOM      2  C   UNL     1       3.062   7.518  17.807  0.00  0.00    +0.000 C 
ATOM      3  C   UNL     1       2.438   8.869  17.828  0.00  0.00    +0.000 C 
ATOM      4  C   UNL     1       2.021   9.373  19.230  0.00  0.00    +0.000 C 
ATOM      5  C   UNL     1       1.643   8.272  20.424  0.00  0.00    +0.000 C 
ATOM      6  O   UNL     1       0.291   8.700  20.400  0.00  0.00    +0.000 OA
ATOM      7  C   UNL     1       0.338   9.879  21.317  0.00  0.00    +0.000 C 
ATOM      8  C   UNL     1       0.203   8.905  22.360  0.00  0.00    +0.000 C 
ATOM      9  O   UNL     1       1.563   8.285  21.963  0.00  0.00    +0.000 OA
ATOM     10  C   UNL     1       1.853   6.813  19.892  0.00  0.00    +0.000 C 
ATOM     11  O   UNL     1       2.866   6.064  20.599  0.00  0.00    +0.000 OA
ATOM     12  N   UNL     1       3.202   4.816  19.897  0.00  0.00    +0.000 NA
ATOM     13  C   UNL     1       2.156   3.908  20.189  0.00  0.00    +0.000 C 
ATOM     14  C   UNL     1       1.118   2.996  20.513  0.00  0.00    +0.000 C 
ATOM     15  C   UNL     1       0.558   2.884  19.019  0.00  0.00    +0.000 C 
ATOM     16  C   UNL     1       1.578   3.769  17.838  0.00  0.00    +0.000 C 
ATOM     17  C   UNL     1       2.726   5.038  18.397  0.00  0.00    +0.000 C 
ATOM     18  C   UNL     1       2.150   6.469  18.424  0.00  0.00    +0.000 C 
ENDROOT
BRANCH   4  19
ATOM     19  S   UNL     1       0.219  10.123  18.574  0.00  0.00    +0.000 S 
BRANCH  19  20
ATOM     20  C   UNL     1       0.207  11.755  19.005  0.00  0.00    +0.000 A 
ATOM     21  C   UNL     1      -0.941  12.543  19.175  0.00  0.00    +0.000 A 
ATOM     22  C   UNL     1      -0.800  13.905  18.959  0.00  0.00    +0.000 A 
ATOM     23  C   UNL     1       0.463  14.407  18.594  0.00  0.00    +0.000 A 
ATOM     24  C   UNL     1       1.577  13.586  18.442  0.00  0.00    +0.000 A 
ATOM     25  C   UNL     1       1.437  12.253  18.657  0.00  0.00    +0.000 A 
ENDBRANCH  19  20
ENDBRANCH   4  19
TORSDOF 2
ENDMDL
MODEL 7
REMARK VINA RESULT:      -6.5      4.610      7.202
REMARK  Name = 
REMARK  2 active torsions:
REMARK  status: ('A' for Active; 'I' for Inactive)
REMARK    1  A    between atoms: C_4  and  S_5
REMARK    2  A    between atoms: S_5  and  C_6
REMARK                            x       y       z     vdW  Elec       q    Type
REMARK                         _______ _______ _______ _____ _____    ______ ____
ROOT
ATOM      1  O   UNL     1       1.455  11.468  21.199  0.00  0.00    +0.000 OA
ATOM      2  C   UNL     1       1.244  12.313  20.333  0.00  0.00    +0.000 C 
ATOM      3  C   UNL     1       2.248  13.371  20.039  0.00  0.00    +0.000 C 
ATOM      4  C   UNL     1       1.666  14.796  19.877  0.00  0.00    +0.000 C 
ATOM      5  C   UNL     1       0.091  14.991  19.366  0.00  0.00    +0.000 C 
ATOM      6  O   UNL     1       0.548  15.563  18.151  0.00  0.00    +0.000 OA
ATOM      7  C   UNL     1       0.737  16.990  18.550  0.00  0.00    +0.000 C 
ATOM      8  C   UNL     1      -0.668  17.109  18.290  0.00  0.00    +0.000 C 
ATOM      9  O   UNL     1      -0.967  16.109  19.431  0.00  0.00    +0.000 OA
ATOM     10  C   UNL     1      -0.590  13.591  19.188  0.00  0.00    +0.000 C 
ATOM     11  O   UNL     1      -1.718  13.365  20.064  0.00  0.00    +0.000 OA
ATOM     12  N   UNL     1      -2.144  11.958  20.041  0.00  0.00    +0.000 NA
ATOM     13  C   UNL     1      -2.885  11.792  18.845  0.00  0.00    +0.000 C 
ATOM     14  C   UNL     1      -3.651  11.644  17.661  0.00  0.00    +0.000 C 
ATOM     15  C   UNL     1      -2.629  10.635  16.957  0.00  0.00    +0.000 C 
ATOM     16  C   UNL     1      -1.280  10.161  18.041  0.00  0.00    +0.000 C 
ATOM     17  C   UNL     1      -0.890  11.149  19.495  0.00  0.00    +0.000 C 
ATOM     18  C   UNL     1       0.163  12.254  19.266  0.00  0.00    +0.000 C 
ENDROOT
BRANCH   4  19
ATOM     19  S   UNL     1       2.840  15.236  18.242  0.00  0.00    +0.000 S 
BRANCH  19  20
ATOM     20  C   UNL     1       4.357  15.651  18.853  0.00  0.00    +0.000 A 
ATOM     21  C   UNL     1       4.688  16.880  19.443  0.00  0.00    +0.000 A 
ATOM     22  C   UNL     1       6.015  17.272  19.364  0.00  0.00    +0.000 A 
ATOM     23  C   UNL     1       6.934  16.428  18.713  0.00  0.00    +0.000 A 
ATOM     24  C   UNL     1       6.560  15.213  18.146  0.00  0.00    +0.000 A 
ATOM     25  C   UNL     1       5.261  14.830  18.228  0.00  0.00    +0.000 A 
ENDBRANCH  19  20
ENDBRANCH   4  19
TORSDOF 2
ENDMDL
MODEL 8
REMARK VINA RESULT:      -6.5      5.112      9.189
REMARK  Name = 
REMARK  2 active torsions:
REMARK  status: ('A' for Active; 'I' for Inactive)
REMARK    1  A    between atoms: C_4  and  S_5
REMARK    2  A    between atoms: S_5  and  C_6
REMARK                            x       y       z     vdW  Elec       q    Type
REMARK                         _______ _______ _______ _____ _____    ______ ____
ROOT
ATOM      1  O   UNL     1      -3.797  11.893  24.172  0.00  0.00    +0.000 OA
ATOM      2  C   UNL     1      -3.154  12.652  23.450  0.00  0.00    +0.000 C 
ATOM      3  C   UNL     1      -2.278  12.117  22.372  0.00  0.00    +0.000 C 
ATOM      4  C   UNL     1      -0.883  12.779  22.278  0.00  0.00    +0.000 C 
ATOM      5  C   UNL     1      -0.675  14.346  22.806  0.00  0.00    +0.000 C 
ATOM      6  O   UNL     1      -0.432  14.771  21.475  0.00  0.00    +0.000 OA
ATOM      7  C   UNL     1       1.027  14.483  21.335  0.00  0.00    +0.000 C 
ATOM      8  C   UNL     1       1.203  15.758  21.968  0.00  0.00    +0.000 C 
ATOM      9  O   UNL     1       0.514  15.223  23.245  0.00  0.00    +0.000 OA
ATOM     10  C   UNL     1      -2.016  14.890  23.407  0.00  0.00    +0.000 C 
ATOM     11  O   UNL     1      -1.943  15.227  24.811  0.00  0.00    +0.000 OA
ATOM     12  N   UNL     1      -3.279  15.474  25.376  0.00  0.00    +0.000 NA
ATOM     13  C   UNL     1      -3.647  16.776  24.958  0.00  0.00    +0.000 C 
ATOM     14  C   UNL     1      -3.992  18.093  24.560  0.00  0.00    +0.000 C 
ATOM     15  C   UNL     1      -5.216  17.644  23.635  0.00  0.00    +0.000 C 
ATOM     16  C   UNL     1      -5.546  15.884  23.743  0.00  0.00    +0.000 C 
ATOM     17  C   UNL     1      -4.293  14.760  24.382  0.00  0.00    +0.000 C 
ATOM     18  C   UNL     1      -3.360  14.152  23.313  0.00  0.00    +0.000 C 
ENDROOT
BRANCH   4  19
ATOM     19  S   UNL     1      -0.922  12.886  20.221  0.00  0.00    +0.000 S 
BRANCH  19  20
ATOM     20  C   UNL     1      -0.346  11.401  19.664  0.00  0.00    +0.000 A 
ATOM     21  C   UNL     1       1.001  11.013  19.628  0.00  0.00    +0.000 A 
ATOM     22  C   UNL     1       1.355  10.077  18.669  0.00  0.00    +0.000 A 
ATOM     23  C   UNL     1       0.360   9.578  17.808  0.00  0.00    +0.000 A 
ATOM     24  C   UNL     1      -0.967   9.989  17.884  0.00  0.00    +0.000 A 
ATOM     25  C   UNL     1      -1.312  10.903  18.827  0.00  0.00    +0.000 A 
ENDBRANCH  19  20
ENDBRANCH   4  19
TORSDOF 2
ENDMDL
MODEL 9
REMARK VINA RESULT:      -6.4      3.084      7.469
REMARK  Name = 
REMARK  2 active torsions:
REMARK  status: ('A' for Active; 'I' for Inactive)
REMARK    1  A    between atoms: C_4  and  S_5
REMARK    2  A    between atoms: S_5  and  C_6
REMARK                            x       y       z     vdW  Elec       q    Type
REMARK                         _______ _______ _______ _____ _____    ______ ____
ROOT
ATOM      1  O   UNL     1      -2.562  11.989  18.126  0.00  0.00    +0.000 OA
ATOM      2  C   UNL     1      -1.714  11.779  18.990  0.00  0.00    +0.000 C 
ATOM      3  C   UNL     1      -0.720  10.683  18.833  0.00  0.00    +0.000 C 
ATOM      4  C   UNL     1      -0.491   9.823  20.099  0.00  0.00    +0.000 C 
ATOM      5  C   UNL     1      -0.753  10.488  21.606  0.00  0.00    +0.000 C 
ATOM      6  O   UNL     1       0.634  10.408  21.890  0.00  0.00    +0.000 OA
ATOM      7  C   UNL     1       0.754   9.003  22.383  0.00  0.00    +0.000 C 
ATOM      8  C   UNL     1       0.341   9.551  23.642  0.00  0.00    +0.000 C 
ATOM      9  O   UNL     1      -1.020   9.952  23.026  0.00  0.00    +0.000 OA
ATOM     10  C   UNL     1      -1.284  11.955  21.458  0.00  0.00    +0.000 C 
ATOM     11  O   UNL     1      -2.612  12.161  21.990  0.00  0.00    +0.000 OA
ATOM     12  N   UNL     1      -3.156  13.468  21.590  0.00  0.00    +0.000 NA
ATOM     13  C   UNL     1      -2.539  14.424  22.433  0.00  0.00    +0.000 C 
ATOM     14  C   UNL     1      -1.939  15.369  23.304  0.00  0.00    +0.000 C 
ATOM     15  C   UNL     1      -1.123  16.122  22.153  0.00  0.00    +0.000 C 
ATOM     16  C   UNL     1      -1.523  15.506  20.516  0.00  0.00    +0.000 C 
ATOM     17  C   UNL     1      -2.311  13.900  20.315  0.00  0.00    +0.000 C 
ATOM     18  C   UNL     1      -1.338  12.718  20.126  0.00  0.00    +0.000 C 
ENDROOT
BRANCH   4  19
ATOM     19  S   UNL     1       1.554   9.773  19.861  0.00  0.00    +0.000 S 
BRANCH  19  20
ATOM     20  C   UNL     1       1.910   8.267  19.188  0.00  0.00    +0.000 A 
ATOM     21  C   UNL     1       2.135   7.086  19.911  0.00  0.00    +0.000 A 
ATOM     22  C   UNL     1       2.942   6.132  19.311  0.00  0.00    +0.000 A 
ATOM     23  C   UNL     1       3.472   6.398  18.035  0.00  0.00    +0.000 A 
ATOM     24  C   UNL     1       3.216   7.583  17.352  0.00  0.00    +0.000 A 
ATOM     25  C   UNL     1       2.423   8.515  17.941  0.00  0.00    +0.000 A 
ENDBRANCH  19  20
ENDBRANCH   4  19
TORSDOF 2
ENDMDL
