MODEL 1
REMARK VINA RESULT:      -6.2      0.000      0.000
REMARK  Name = 
REMARK  10 active torsions:
REMARK  status: ('A' for Active; 'I' for Inactive)
REMARK    1  A    between atoms: C_2  and  C_3
REMARK    2  A    between atoms: C_3  and  O_4
REMARK    3  A    between atoms: O_4  and  C_5
REMARK    4  A    between atoms: C_5  and  C_7
REMARK    5  A    between atoms: C_9  and  O_10
REMARK    6  A    between atoms: O_10  and  C_11
REMARK    7  A    between atoms: C_11  and  C_12
REMARK    8  A    between atoms: C_17  and  C_18
REMARK    9  A    between atoms: C_25  and  C_26
REMARK   10  A    between atoms: C_32  and  C_33
REMARK                            x       y       z     vdW  Elec       q    Type
REMARK                         _______ _______ _______ _____ _____    ______ ____
ROOT
ATOM      1  C   UNL     1       5.447   4.994  15.312  0.00  0.00    +0.000 C 
ATOM      2  C   UNL     1       6.729   5.741  15.747  0.00  0.00    +0.000 C 
ATOM      3  C   UNL     1       6.500   6.715  16.900  0.00  0.00    +0.000 C 
ATOM      4  C   UNL     1       5.793   5.970  18.037  0.00  0.00    +0.000 C 
ATOM      5  O   UNL     1       6.223   5.954  19.188  0.00  0.00    +0.000 OA
ATOM      6  C   UNL     1       4.472   5.301  17.629  0.00  0.00    +0.000 C 
ATOM      7  C   UNL     1       4.748   4.236  16.509  0.00  0.00    +0.000 C 
ATOM      8  C   UNL     1       5.660   3.080  16.980  0.00  0.00    +0.000 C 
ATOM      9  C   UNL     1       3.388   3.643  16.045  0.00  0.00    +0.000 C 
ATOM     10  C   UNL     1       2.463   3.210  17.189  0.00  0.00    +0.000 C 
ATOM     11  C   UNL     1       2.194   4.369  18.161  0.00  0.00    +0.000 C 
ATOM     12  C   UNL     1       1.146   4.023  19.198  0.00  0.00    +0.000 C 
ATOM     13  O   UNL     1       0.418   3.043  19.110  0.00  0.00    +0.000 OA
ATOM     14  O   UNL     1       0.959   4.938  20.175  0.00  0.00    +0.000 OA
ATOM     15  C   UNL     1       1.947   5.915  20.583  0.00  0.00    +0.000 C 
ATOM     16  C   UNL     1       3.056   6.177  19.554  0.00  0.00    +0.000 C 
ATOM     17  C   UNL     1       3.496   4.903  18.797  0.00  0.00    +0.000 C 
ATOM     18  C   UNL     1       4.087   3.893  19.809  0.00  0.00    +0.000 C 
ENDROOT
BRANCH  15  19
ATOM     19  C   UNL     1       1.270   7.194  20.973  0.00  0.00    +0.000 A 
ATOM     20  C   UNL     1       1.845   8.498  21.046  0.00  0.00    +0.000 A 
ATOM     21  C   UNL     1       0.845   9.345  21.458  0.00  0.00    +0.000 A 
ATOM     22  O   UNL     1      -0.308   8.657  21.648  0.00  0.00    +0.000 OA
ATOM     23  C   UNL     1      -0.049   7.360  21.349  0.00  0.00    +0.000 A 
ENDBRANCH  15  19
BRANCH   1  24
ATOM     24  C   UNL     1       5.804   4.106  14.119  0.00  0.00    +0.000 C 
ATOM     25  O   UNL     1       6.872   3.522  13.993  0.00  0.00    +0.000 OA
BRANCH  24  26
ATOM     26  O   UNL     1       4.792   4.090  13.212  0.00  0.00    +0.000 OA
BRANCH  26  27
ATOM     27  C   UNL     1       5.103   3.481  11.949  0.00  0.00    +0.000 C 
BRANCH  27  29
ATOM     28  C   UNL     1       3.315   3.839  10.209  0.00  0.00    +0.000 C 
ATOM     29  C   UNL     1       3.827   3.149  11.236  0.00  0.00    +0.000 C 
ENDBRANCH  27  29
ENDBRANCH  26  27
ENDBRANCH  24  26
ENDBRANCH   1  24
BRANCH   3  30
ATOM     30  O   UNL     1       7.754   7.251  17.351  0.00  0.00    +0.000 OA
BRANCH  30  31
ATOM     31  C   UNL     1       7.742   8.569  17.683  0.00  0.00    +0.000 C 
ATOM     32  C   UNL     1       8.787   8.891  18.708  0.00  0.00    +0.000 C 
ATOM     33  O   UNL     1       6.982   9.400  17.205  0.00  0.00    +0.000 OA
ENDBRANCH  30  31
ENDBRANCH   3  30
TORSDOF 7
ENDMDL
MODEL 2
REMARK VINA RESULT:      -6.2      2.598      6.770
REMARK  Name = 
REMARK  10 active torsions:
REMARK  status: ('A' for Active; 'I' for Inactive)
REMARK    1  A    between atoms: C_2  and  C_3
REMARK    2  A    between atoms: C_3  and  O_4
REMARK    3  A    between atoms: O_4  and  C_5
REMARK    4  A    between atoms: C_5  and  C_7
REMARK    5  A    between atoms: C_9  and  O_10
REMARK    6  A    between atoms: O_10  and  C_11
REMARK    7  A    between atoms: C_11  and  C_12
REMARK    8  A    between atoms: C_17  and  C_18
REMARK    9  A    between atoms: C_25  and  C_26
REMARK   10  A    between atoms: C_32  and  C_33
REMARK                            x       y       z     vdW  Elec       q    Type
REMARK                         _______ _______ _______ _____ _____    ______ ____
ROOT
ATOM      1  C   UNL     1       2.365   5.191  20.336  0.00  0.00    +0.000 C 
ATOM      2  C   UNL     1       1.325   6.334  20.279  0.00  0.00    +0.000 C 
ATOM      3  C   UNL     1       1.943   7.702  20.004  0.00  0.00    +0.000 C 
ATOM      4  C   UNL     1       2.827   7.598  18.756  0.00  0.00    +0.000 C 
ATOM      5  O   UNL     1       2.701   8.346  17.790  0.00  0.00    +0.000 OA
ATOM      6  C   UNL     1       3.920   6.523  18.844  0.00  0.00    +0.000 C 
ATOM      7  C   UNL     1       3.254   5.113  19.031  0.00  0.00    +0.000 C 
ATOM      8  C   UNL     1       2.367   4.694  17.836  0.00  0.00    +0.000 C 
ATOM      9  C   UNL     1       4.379   4.056  19.215  0.00  0.00    +0.000 C 
ATOM     10  C   UNL     1       5.508   4.148  18.180  0.00  0.00    +0.000 C 
ATOM     11  C   UNL     1       6.140   5.548  18.164  0.00  0.00    +0.000 C 
ATOM     12  C   UNL     1       7.370   5.618  17.284  0.00  0.00    +0.000 C 
ATOM     13  O   UNL     1       7.938   4.623  16.852  0.00  0.00    +0.000 OA
ATOM     14  O   UNL     1       7.897   6.849  17.104  0.00  0.00    +0.000 OA
ATOM     15  C   UNL     1       7.159   8.086  17.249  0.00  0.00    +0.000 C 
ATOM     16  C   UNL     1       5.862   7.970  18.064  0.00  0.00    +0.000 C 
ATOM     17  C   UNL     1       5.107   6.643  17.819  0.00  0.00    +0.000 C 
ATOM     18  C   UNL     1       4.681   6.571  16.334  0.00  0.00    +0.000 C 
ENDROOT
BRANCH  15  19
ATOM     19  C   UNL     1       8.050   9.150  17.816  0.00  0.00    +0.000 A 
ATOM     20  C   UNL     1       8.972   9.030  18.898  0.00  0.00    +0.000 A 
ATOM     21  C   UNL     1       9.550  10.266  19.060  0.00  0.00    +0.000 A 
ATOM     22  O   UNL     1       9.048  11.143  18.156  0.00  0.00    +0.000 OA
ATOM     23  C   UNL     1       8.147  10.464  17.403  0.00  0.00    +0.000 A 
ENDBRANCH  15  19
BRANCH   1  24
ATOM     24  C   UNL     1       1.623   3.899  20.677  0.00  0.00    +0.000 C 
ATOM     25  O   UNL     1       1.792   3.261  21.708  0.00  0.00    +0.000 OA
BRANCH  24  26
ATOM     26  O   UNL     1       0.786   3.544  19.667  0.00  0.00    +0.000 OA
BRANCH  26  27
ATOM     27  C   UNL     1       0.691   2.134  19.408  0.00  0.00    +0.000 C 
BRANCH  27  29
ATOM     28  C   UNL     1       2.926   1.230  18.669  0.00  0.00    +0.000 C 
ATOM     29  C   UNL     1       1.724   1.752  18.391  0.00  0.00    +0.000 C 
ENDBRANCH  27  29
ENDBRANCH  26  27
ENDBRANCH  24  26
ENDBRANCH   1  24
BRANCH   3  30
ATOM     30  O   UNL     1       0.911   8.682  19.811  0.00  0.00    +0.000 OA
BRANCH  30  31
ATOM     31  C   UNL     1       0.931   9.732  20.673  0.00  0.00    +0.000 C 
ATOM     32  C   UNL     1       1.067   9.278  22.095  0.00  0.00    +0.000 C 
ATOM     33  O   UNL     1       0.859  10.908  20.341  0.00  0.00    +0.000 OA
ENDBRANCH  30  31
ENDBRANCH   3  30
TORSDOF 7
ENDMDL
MODEL 3
REMARK VINA RESULT:      -6.1      7.294     10.301
REMARK  Name = 
REMARK  10 active torsions:
REMARK  status: ('A' for Active; 'I' for Inactive)
REMARK    1  A    between atoms: C_2  and  C_3
REMARK    2  A    between atoms: C_3  and  O_4
REMARK    3  A    between atoms: O_4  and  C_5
REMARK    4  A    between atoms: C_5  and  C_7
REMARK    5  A    between atoms: C_9  and  O_10
REMARK    6  A    between atoms: O_10  and  C_11
REMARK    7  A    between atoms: C_11  and  C_12
REMARK    8  A    between atoms: C_17  and  C_18
REMARK    9  A    between atoms: C_25  and  C_26
REMARK   10  A    between atoms: C_32  and  C_33
REMARK                            x       y       z     vdW  Elec       q    Type
REMARK                         _______ _______ _______ _____ _____    ______ ____
ROOT
ATOM      1  C   UNL     1       9.718  13.259  19.453  0.00  0.00    +0.000 C 
ATOM      2  C   UNL     1       9.962  14.482  18.539  0.00  0.00    +0.000 C 
ATOM      3  C   UNL     1       8.722  15.350  18.343  0.00  0.00    +0.000 C 
ATOM      4  C   UNL     1       8.149  15.702  19.720  0.00  0.00    +0.000 C 
ATOM      5  O   UNL     1       7.925  16.858  20.069  0.00  0.00    +0.000 OA
ATOM      6  C   UNL     1       7.820  14.485  20.598  0.00  0.00    +0.000 C 
ATOM      7  C   UNL     1       9.131  13.662  20.864  0.00  0.00    +0.000 C 
ATOM      8  C   UNL     1      10.199  14.454  21.651  0.00  0.00    +0.000 C 
ATOM      9  C   UNL     1       8.757  12.387  21.670  0.00  0.00    +0.000 C 
ATOM     10  C   UNL     1       7.854  12.646  22.883  0.00  0.00    +0.000 C 
ATOM     11  C   UNL     1       6.563  13.371  22.473  0.00  0.00    +0.000 C 
ATOM     12  C   UNL     1       5.575  13.482  23.615  0.00  0.00    +0.000 C 
ATOM     13  O   UNL     1       5.682  12.844  24.655  0.00  0.00    +0.000 OA
ATOM     14  O   UNL     1       4.476  14.233  23.375  0.00  0.00    +0.000 OA
ATOM     15  C   UNL     1       4.402  15.279  22.377  0.00  0.00    +0.000 C 
ATOM     16  C   UNL     1       5.476  15.203  21.282  0.00  0.00    +0.000 C 
ATOM     17  C   UNL     1       6.852  14.736  21.812  0.00  0.00    +0.000 C 
ATOM     18  C   UNL     1       7.371  15.766  22.843  0.00  0.00    +0.000 C 
ENDROOT
BRANCH  15  19
ATOM     19  C   UNL     1       3.029  15.314  21.775  0.00  0.00    +0.000 A 
ATOM     20  C   UNL     1       2.600  14.724  20.548  0.00  0.00    +0.000 A 
ATOM     21  C   UNL     1       1.268  15.031  20.411  0.00  0.00    +0.000 A 
ATOM     22  O   UNL     1       0.843  15.771  21.465  0.00  0.00    +0.000 OA
ATOM     23  C   UNL     1       1.908  15.935  22.288  0.00  0.00    +0.000 A 
ENDBRANCH  15  19
BRANCH   1  24
ATOM     24  C   UNL     1      11.014  12.451  19.511  0.00  0.00    +0.000 C 
ATOM     25  O   UNL     1      12.091  12.905  19.871  0.00  0.00    +0.000 OA
BRANCH  24  26
ATOM     26  O   UNL     1      10.808  11.180  19.074  0.00  0.00    +0.000 OA
BRANCH  26  27
ATOM     27  C   UNL     1       9.615  10.979  18.299  0.00  0.00    +0.000 C 
BRANCH  27  29
ATOM     28  C   UNL     1       8.214   8.905  18.002  0.00  0.00    +0.000 C 
ATOM     29  C   UNL     1       8.925   9.736  18.774  0.00  0.00    +0.000 C 
ENDBRANCH  27  29
ENDBRANCH  26  27
ENDBRANCH  24  26
ENDBRANCH   1  24
BRANCH   3  30
ATOM     30  O   UNL     1       9.061  16.542  17.618  0.00  0.00    +0.000 OA
BRANCH  30  31
ATOM     31  C   UNL     1      10.386  16.723  17.376  0.00  0.00    +0.000 C 
ATOM     32  C   UNL     1      11.022  17.604  18.409  0.00  0.00    +0.000 C 
ATOM     33  O   UNL     1      10.997  16.226  16.439  0.00  0.00    +0.000 OA
ENDBRANCH  30  31
ENDBRANCH   3  30
TORSDOF 7
ENDMDL
MODEL 4
REMARK VINA RESULT:      -6.1      8.671     13.982
REMARK  Name = 
REMARK  10 active torsions:
REMARK  status: ('A' for Active; 'I' for Inactive)
REMARK    1  A    between atoms: C_2  and  C_3
REMARK    2  A    between atoms: C_3  and  O_4
REMARK    3  A    between atoms: O_4  and  C_5
REMARK    4  A    between atoms: C_5  and  C_7
REMARK    5  A    between atoms: C_9  and  O_10
REMARK    6  A    between atoms: O_10  and  C_11
REMARK    7  A    between atoms: C_11  and  C_12
REMARK    8  A    between atoms: C_17  and  C_18
REMARK    9  A    between atoms: C_25  and  C_26
REMARK   10  A    between atoms: C_32  and  C_33
REMARK                            x       y       z     vdW  Elec       q    Type
REMARK                         _______ _______ _______ _____ _____    ______ ____
ROOT
ATOM      1  C   UNL     1      -3.235  15.998  23.209  0.00  0.00    +0.000 C 
ATOM      2  C   UNL     1      -4.184  15.148  24.087  0.00  0.00    +0.000 C 
ATOM      3  C   UNL     1      -4.703  13.898  23.382  0.00  0.00    +0.000 C 
ATOM      4  C   UNL     1      -3.509  13.122  22.818  0.00  0.00    +0.000 C 
ATOM      5  O   UNL     1      -3.315  11.933  23.063  0.00  0.00    +0.000 OA
ATOM      6  C   UNL     1      -2.613  13.937  21.875  0.00  0.00    +0.000 C 
ATOM      7  C   UNL     1      -2.015  15.165  22.650  0.00  0.00    +0.000 C 
ATOM      8  C   UNL     1      -1.098  14.754  23.826  0.00  0.00    +0.000 C 
ATOM      9  C   UNL     1      -1.193  16.027  21.652  0.00  0.00    +0.000 C 
ATOM     10  C   UNL     1      -0.217  15.227  20.779  0.00  0.00    +0.000 C 
ATOM     11  C   UNL     1      -0.943  14.120  19.999  0.00  0.00    +0.000 C 
ATOM     12  C   UNL     1      -0.041  13.431  18.997  0.00  0.00    +0.000 C 
ATOM     13  O   UNL     1       1.051  13.877  18.666  0.00  0.00    +0.000 OA
ATOM     14  O   UNL     1      -0.565  12.351  18.375  0.00  0.00    +0.000 OA
ATOM     15  C   UNL     1      -1.645  11.546  18.905  0.00  0.00    +0.000 C 
ATOM     16  C   UNL     1      -2.487  12.230  19.991  0.00  0.00    +0.000 C 
ATOM     17  C   UNL     1      -1.648  13.119  20.940  0.00  0.00    +0.000 C 
ATOM     18  C   UNL     1      -0.627  12.232  21.691  0.00  0.00    +0.000 C 
ENDROOT
BRANCH  15  19
ATOM     19  C   UNL     1      -2.515  11.058  17.785  0.00  0.00    +0.000 A 
ATOM     20  C   UNL     1      -3.807  11.537  17.413  0.00  0.00    +0.000 A 
ATOM     21  C   UNL     1      -4.212  10.779  16.341  0.00  0.00    +0.000 A 
ATOM     22  O   UNL     1      -3.263   9.862  16.025  0.00  0.00    +0.000 OA
ATOM     23  C   UNL     1      -2.238  10.038  16.896  0.00  0.00    +0.000 A 
ENDBRANCH  15  19
BRANCH   1  24
ATOM     24  C   UNL     1      -2.843  17.240  24.010  0.00  0.00    +0.000 C 
ATOM     25  O   UNL     1      -2.596  18.329  23.512  0.00  0.00    +0.000 OA
BRANCH  24  26
ATOM     26  O   UNL     1      -2.773  16.953  25.337  0.00  0.00    +0.000 OA
BRANCH  26  27
ATOM     27  C   UNL     1      -1.845  17.747  26.093  0.00  0.00    +0.000 C 
BRANCH  27  29
ATOM     28  C   UNL     1       0.503  16.918  26.490  0.00  0.00    +0.000 C 
ATOM     29  C   UNL     1      -0.817  16.847  26.709  0.00  0.00    +0.000 C 
ENDBRANCH  27  29
ENDBRANCH  26  27
ENDBRANCH  24  26
ENDBRANCH   1  24
BRANCH   3  30
ATOM     30  O   UNL     1      -5.446  13.083  24.302  0.00  0.00    +0.000 OA
BRANCH  30  31
ATOM     31  C   UNL     1      -6.701  12.745  23.905  0.00  0.00    +0.000 C 
ATOM     32  C   UNL     1      -7.469  13.939  23.424  0.00  0.00    +0.000 C 
ATOM     33  O   UNL     1      -7.155  11.609  23.924  0.00  0.00    +0.000 OA
ENDBRANCH  30  31
ENDBRANCH   3  30
TORSDOF 7
ENDMDL
MODEL 5
REMARK VINA RESULT:      -6.1      2.427      6.955
REMARK  Name = 
REMARK  10 active torsions:
REMARK  status: ('A' for Active; 'I' for Inactive)
REMARK    1  A    between atoms: C_2  and  C_3
REMARK    2  A    between atoms: C_3  and  O_4
REMARK    3  A    between atoms: O_4  and  C_5
REMARK    4  A    between atoms: C_5  and  C_7
REMARK    5  A    between atoms: C_9  and  O_10
REMARK    6  A    between atoms: O_10  and  C_11
REMARK    7  A    between atoms: C_11  and  C_12
REMARK    8  A    between atoms: C_17  and  C_18
REMARK    9  A    between atoms: C_25  and  C_26
REMARK   10  A    between atoms: C_32  and  C_33
REMARK                            x       y       z     vdW  Elec       q    Type
REMARK                         _______ _______ _______ _____ _____    ______ ____
ROOT
ATOM      1  C   UNL     1       2.240   4.484  19.838  0.00  0.00    +0.000 C 
ATOM      2  C   UNL     1       1.266   5.638  20.172  0.00  0.00    +0.000 C 
ATOM      3  C   UNL     1       1.935   7.010  20.187  0.00  0.00    +0.000 C 
ATOM      4  C   UNL     1       2.699   7.196  18.873  0.00  0.00    +0.000 C 
ATOM      5  O   UNL     1       2.533   8.169  18.141  0.00  0.00    +0.000 OA
ATOM      6  C   UNL     1       3.732   6.098  18.581  0.00  0.00    +0.000 C 
ATOM      7  C   UNL     1       3.006   4.710  18.475  0.00  0.00    +0.000 C 
ATOM      8  C   UNL     1       1.996   4.639  17.306  0.00  0.00    +0.000 C 
ATOM      9  C   UNL     1       4.080   3.604  18.277  0.00  0.00    +0.000 C 
ATOM     10  C   UNL     1       5.119   3.918  17.192  0.00  0.00    +0.000 C 
ATOM     11  C   UNL     1       5.826   5.254  17.465  0.00  0.00    +0.000 C 
ATOM     12  C   UNL     1       6.977   5.504  16.513  0.00  0.00    +0.000 C 
ATOM     13  O   UNL     1       7.448   4.634  15.793  0.00  0.00    +0.000 OA
ATOM     14  O   UNL     1       7.556   6.723  16.595  0.00  0.00    +0.000 OA
ATOM     15  C   UNL     1       6.905   7.906  17.117  0.00  0.00    +0.000 C 
ATOM     16  C   UNL     1       5.680   7.631  18.000  0.00  0.00    +0.000 C 
ATOM     17  C   UNL     1       4.831   6.435  17.507  0.00  0.00    +0.000 C 
ATOM     18  C   UNL     1       4.275   6.757  16.100  0.00  0.00    +0.000 C 
ENDROOT
BRANCH  15  19
ATOM     19  C   UNL     1       7.902   8.761  17.840  0.00  0.00    +0.000 A 
ATOM     20  C   UNL     1       8.230  10.126  17.582  0.00  0.00    +0.000 A 
ATOM     21  C   UNL     1       9.200  10.474  18.491  0.00  0.00    +0.000 A 
ATOM     22  O   UNL     1       9.497   9.421  19.291  0.00  0.00    +0.000 OA
ATOM     23  C   UNL     1       8.707   8.390  18.899  0.00  0.00    +0.000 A 
ENDBRANCH  15  19
BRANCH   1  24
ATOM     24  C   UNL     1       1.457   3.173  19.918  0.00  0.00    +0.000 C 
ATOM     25  O   UNL     1       0.743   2.743  19.022  0.00  0.00    +0.000 OA
BRANCH  24  26
ATOM     26  O   UNL     1       1.637   2.580  21.128  0.00  0.00    +0.000 OA
BRANCH  26  27
ATOM     27  C   UNL     1       2.979   2.616  21.640  0.00  0.00    +0.000 C 
BRANCH  27  29
ATOM     28  C   UNL     1       5.142   1.509  20.969  0.00  0.00    +0.000 C 
ATOM     29  C   UNL     1       3.807   1.594  20.921  0.00  0.00    +0.000 C 
ENDBRANCH  27  29
ENDBRANCH  26  27
ENDBRANCH  24  26
ENDBRANCH   1  24
BRANCH   3  30
ATOM     30  O   UNL     1       0.947   8.040  20.347  0.00  0.00    +0.000 OA
BRANCH  30  31
ATOM     31  C   UNL     1       0.925   8.646  21.564  0.00  0.00    +0.000 C 
ATOM     32  C   UNL     1      -0.476   8.934  22.013  0.00  0.00    +0.000 C 
ATOM     33  O   UNL     1       1.919   8.919  22.224  0.00  0.00    +0.000 OA
ENDBRANCH  30  31
ENDBRANCH   3  30
TORSDOF 7
ENDMDL
MODEL 6
REMARK VINA RESULT:      -6.0     10.349     13.859
REMARK  Name = 
REMARK  10 active torsions:
REMARK  status: ('A' for Active; 'I' for Inactive)
REMARK    1  A    between atoms: C_2  and  C_3
REMARK    2  A    between atoms: C_3  and  O_4
REMARK    3  A    between atoms: O_4  and  C_5
REMARK    4  A    between atoms: C_5  and  C_7
REMARK    5  A    between atoms: C_9  and  O_10
REMARK    6  A    between atoms: O_10  and  C_11
REMARK    7  A    between atoms: C_11  and  C_12
REMARK    8  A    between atoms: C_17  and  C_18
REMARK    9  A    between atoms: C_25  and  C_26
REMARK   10  A    between atoms: C_32  and  C_33
REMARK                            x       y       z     vdW  Elec       q    Type
REMARK                         _______ _______ _______ _____ _____    ______ ____
ROOT
ATOM      1  C   UNL     1      -4.727  13.444  22.498  0.00  0.00    +0.000 C 
ATOM      2  C   UNL     1      -5.175  12.497  21.361  0.00  0.00    +0.000 C 
ATOM      3  C   UNL     1      -4.507  12.799  20.022  0.00  0.00    +0.000 C 
ATOM      4  C   UNL     1      -2.991  12.852  20.232  0.00  0.00    +0.000 C 
ATOM      5  O   UNL     1      -2.205  12.181  19.567  0.00  0.00    +0.000 OA
ATOM      6  C   UNL     1      -2.535  13.857  21.299  0.00  0.00    +0.000 C 
ATOM      7  C   UNL     1      -3.158  13.468  22.687  0.00  0.00    +0.000 C 
ATOM      8  C   UNL     1      -2.687  12.089  23.201  0.00  0.00    +0.000 C 
ATOM      9  C   UNL     1      -2.763  14.553  23.728  0.00  0.00    +0.000 C 
ATOM     10  C   UNL     1      -1.273  14.918  23.726  0.00  0.00    +0.000 C 
ATOM     11  C   UNL     1      -0.811  15.374  22.334  0.00  0.00    +0.000 C 
ATOM     12  C   UNL     1       0.605  15.910  22.340  0.00  0.00    +0.000 C 
ATOM     13  O   UNL     1       1.208  16.189  23.369  0.00  0.00    +0.000 OA
ATOM     14  O   UNL     1       1.134  16.196  21.129  0.00  0.00    +0.000 OA
ATOM     15  C   UNL     1       0.692  15.607  19.883  0.00  0.00    +0.000 C 
ATOM     16  C   UNL     1      -0.709  14.981  19.927  0.00  0.00    +0.000 C 
ATOM     17  C   UNL     1      -1.018  14.276  21.268  0.00  0.00    +0.000 C 
ATOM     18  C   UNL     1      -0.026  13.104  21.462  0.00  0.00    +0.000 C 
ENDROOT
BRANCH  15  19
ATOM     19  C   UNL     1       0.791  16.615  18.778  0.00  0.00    +0.000 A 
ATOM     20  C   UNL     1      -0.279  17.250  18.079  0.00  0.00    +0.000 A 
ATOM     21  C   UNL     1       0.299  18.082  17.151  0.00  0.00    +0.000 A 
ATOM     22  O   UNL     1       1.651  18.004  17.224  0.00  0.00    +0.000 OA
ATOM     23  C   UNL     1       1.944  17.121  18.211  0.00  0.00    +0.000 A 
ENDBRANCH  15  19
BRANCH   1  24
ATOM     24  C   UNL     1      -5.513  13.072  23.755  0.00  0.00    +0.000 C 
ATOM     25  O   UNL     1      -5.470  11.973  24.292  0.00  0.00    +0.000 OA
BRANCH  24  26
ATOM     26  O   UNL     1      -6.286  14.112  24.164  0.00  0.00    +0.000 OA
BRANCH  26  27
ATOM     27  C   UNL     1      -6.334  15.235  23.269  0.00  0.00    +0.000 C 
BRANCH  27  29
ATOM     28  C   UNL     1      -6.394  17.720  23.696  0.00  0.00    +0.000 C 
ATOM     29  C   UNL     1      -6.001  16.483  24.030  0.00  0.00    +0.000 C 
ENDBRANCH  27  29
ENDBRANCH  26  27
ENDBRANCH  24  26
ENDBRANCH   1  24
BRANCH   3  30
ATOM     30  O   UNL     1      -4.849  11.790  19.059  0.00  0.00    +0.000 OA
BRANCH  30  31
ATOM     31  C   UNL     1      -5.291  12.251  17.860  0.00  0.00    +0.000 C 
ATOM     32  C   UNL     1      -6.429  13.213  18.022  0.00  0.00    +0.000 C 
ATOM     33  O   UNL     1      -4.820  11.934  16.775  0.00  0.00    +0.000 OA
ENDBRANCH  30  31
ENDBRANCH   3  30
TORSDOF 7
ENDMDL
MODEL 7
REMARK VINA RESULT:      -6.0      5.771     10.198
REMARK  Name = 
REMARK  10 active torsions:
REMARK  status: ('A' for Active; 'I' for Inactive)
REMARK    1  A    between atoms: C_2  and  C_3
REMARK    2  A    between atoms: C_3  and  O_4
REMARK    3  A    between atoms: O_4  and  C_5
REMARK    4  A    between atoms: C_5  and  C_7
REMARK    5  A    between atoms: C_9  and  O_10
REMARK    6  A    between atoms: O_10  and  C_11
REMARK    7  A    between atoms: C_11  and  C_12
REMARK    8  A    between atoms: C_17  and  C_18
REMARK    9  A    between atoms: C_25  and  C_26
REMARK   10  A    between atoms: C_32  and  C_33
REMARK                            x       y       z     vdW  Elec       q    Type
REMARK                         _______ _______ _______ _____ _____    ______ ____
ROOT
ATOM      1  C   UNL     1      -1.000  11.708  18.413  0.00  0.00    +0.000 C 
ATOM      2  C   UNL     1      -0.578  10.377  19.077  0.00  0.00    +0.000 C 
ATOM      3  C   UNL     1       0.915  10.299  19.383  0.00  0.00    +0.000 C 
ATOM      4  C   UNL     1       1.319  11.548  20.173  0.00  0.00    +0.000 C 
ATOM      5  O   UNL     1       1.907  11.491  21.250  0.00  0.00    +0.000 OA
ATOM      6  C   UNL     1       0.982  12.874  19.474  0.00  0.00    +0.000 C 
ATOM      7  C   UNL     1      -0.571  12.972  19.258  0.00  0.00    +0.000 C 
ATOM      8  C   UNL     1      -1.370  12.995  20.581  0.00  0.00    +0.000 C 
ATOM      9  C   UNL     1      -0.877  14.273  18.464  0.00  0.00    +0.000 C 
ATOM     10  C   UNL     1      -0.182  15.527  19.011  0.00  0.00    +0.000 C 
ATOM     11  C   UNL     1       1.341  15.335  19.083  0.00  0.00    +0.000 C 
ATOM     12  C   UNL     1       2.068  16.612  19.448  0.00  0.00    +0.000 C 
ATOM     13  O   UNL     1       1.533  17.713  19.430  0.00  0.00    +0.000 OA
ATOM     14  O   UNL     1       3.396  16.492  19.673  0.00  0.00    +0.000 OA
ATOM     15  C   UNL     1       4.052  15.262  20.063  0.00  0.00    +0.000 C 
ATOM     16  C   UNL     1       3.252  13.984  19.772  0.00  0.00    +0.000 C 
ATOM     17  C   UNL     1       1.732  14.154  19.997  0.00  0.00    +0.000 C 
ATOM     18  C   UNL     1       1.476  14.483  21.487  0.00  0.00    +0.000 C 
ENDROOT
BRANCH  15  19
ATOM     19  C   UNL     1       5.415  15.191  19.442  0.00  0.00    +0.000 A 
ATOM     20  C   UNL     1       5.751  14.755  18.125  0.00  0.00    +0.000 A 
ATOM     21  C   UNL     1       7.117  14.856  18.016  0.00  0.00    +0.000 A 
ATOM     22  O   UNL     1       7.650  15.320  19.174  0.00  0.00    +0.000 OA
ATOM     23  C   UNL     1       6.619  15.526  20.030  0.00  0.00    +0.000 A 
ENDBRANCH  15  19
BRANCH   1  24
ATOM     24  C   UNL     1      -2.496  11.625  18.108  0.00  0.00    +0.000 C 
ATOM     25  O   UNL     1      -3.362  11.460  18.955  0.00  0.00    +0.000 OA
BRANCH  24  26
ATOM     26  O   UNL     1      -2.719  11.723  16.770  0.00  0.00    +0.000 OA
BRANCH  26  27
ATOM     27  C   UNL     1      -3.576  10.714  16.211  0.00  0.00    +0.000 C 
BRANCH  27  29
ATOM     28  C   UNL     1      -3.732   9.910  13.827  0.00  0.00    +0.000 C 
ATOM     29  C   UNL     1      -3.010  10.261  14.899  0.00  0.00    +0.000 C 
ENDBRANCH  27  29
ENDBRANCH  26  27
ENDBRANCH  24  26
ENDBRANCH   1  24
BRANCH   3  30
ATOM     30  O   UNL     1       1.205   9.111  20.135  0.00  0.00    +0.000 OA
BRANCH  30  31
ATOM     31  C   UNL     1       1.881   8.142  19.463  0.00  0.00    +0.000 C 
ATOM     32  C   UNL     1       2.244   8.581  18.076  0.00  0.00    +0.000 C 
ATOM     33  O   UNL     1       2.172   7.047  19.926  0.00  0.00    +0.000 OA
ENDBRANCH  30  31
ENDBRANCH   3  30
TORSDOF 7
ENDMDL
MODEL 8
REMARK VINA RESULT:      -6.0      5.577      9.935
REMARK  Name = 
REMARK  10 active torsions:
REMARK  status: ('A' for Active; 'I' for Inactive)
REMARK    1  A    between atoms: C_2  and  C_3
REMARK    2  A    between atoms: C_3  and  O_4
REMARK    3  A    between atoms: O_4  and  C_5
REMARK    4  A    between atoms: C_5  and  C_7
REMARK    5  A    between atoms: C_9  and  O_10
REMARK    6  A    between atoms: O_10  and  C_11
REMARK    7  A    between atoms: C_11  and  C_12
REMARK    8  A    between atoms: C_17  and  C_18
REMARK    9  A    between atoms: C_25  and  C_26
REMARK   10  A    between atoms: C_32  and  C_33
REMARK                            x       y       z     vdW  Elec       q    Type
REMARK                         _______ _______ _______ _____ _____    ______ ____
ROOT
ATOM      1  C   UNL     1      -0.198   9.496  19.777  0.00  0.00    +0.000 C 
ATOM      2  C   UNL     1      -0.389   9.506  18.242  0.00  0.00    +0.000 C 
ATOM      3  C   UNL     1      -1.681  10.186  17.797  0.00  0.00    +0.000 C 
ATOM      4  C   UNL     1      -1.755  11.571  18.447  0.00  0.00    +0.000 C 
ATOM      5  O   UNL     1      -1.929  12.600  17.798  0.00  0.00    +0.000 OA
ATOM      6  C   UNL     1      -1.655  11.557  19.979  0.00  0.00    +0.000 C 
ATOM      7  C   UNL     1      -0.276  10.941  20.409  0.00  0.00    +0.000 C 
ATOM      8  C   UNL     1       0.937  11.772  19.931  0.00  0.00    +0.000 C 
ATOM      9  C   UNL     1      -0.239  10.848  21.960  0.00  0.00    +0.000 C 
ATOM     10  C   UNL     1      -0.670  12.131  22.682  0.00  0.00    +0.000 C 
ATOM     11  C   UNL     1      -2.075  12.574  22.244  0.00  0.00    +0.000 C 
ATOM     12  C   UNL     1      -2.599  13.732  23.067  0.00  0.00    +0.000 C 
ATOM     13  O   UNL     1      -2.081  14.094  24.115  0.00  0.00    +0.000 OA
ATOM     14  O   UNL     1      -3.766  14.272  22.649  0.00  0.00    +0.000 OA
ATOM     15  C   UNL     1      -4.271  14.185  21.295  0.00  0.00    +0.000 C 
ATOM     16  C   UNL     1      -3.652  13.064  20.448  0.00  0.00    +0.000 C 
ATOM     17  C   UNL     1      -2.146  12.851  20.727  0.00  0.00    +0.000 C 
ATOM     18  C   UNL     1      -1.376  14.139  20.350  0.00  0.00    +0.000 C 
ENDROOT
BRANCH  15  19
ATOM     19  C   UNL     1      -5.766  14.076  21.313  0.00  0.00    +0.000 A 
ATOM     20  C   UNL     1      -6.610  13.505  20.313  0.00  0.00    +0.000 A 
ATOM     21  C   UNL     1      -7.900  13.644  20.765  0.00  0.00    +0.000 A 
ATOM     22  O   UNL     1      -7.914  14.264  21.972  0.00  0.00    +0.000 OA
ATOM     23  C   UNL     1      -6.623  14.518  22.301  0.00  0.00    +0.000 A 
ENDBRANCH  15  19
BRANCH   1  24
ATOM     24  C   UNL     1       1.093   8.737  20.083  0.00  0.00    +0.000 C 
ATOM     25  O   UNL     1       1.421   8.359  21.199  0.00  0.00    +0.000 OA
BRANCH  24  26
ATOM     26  O   UNL     1       1.835   8.577  18.955  0.00  0.00    +0.000 OA
BRANCH  26  27
ATOM     27  C   UNL     1       2.539   7.329  18.849  0.00  0.00    +0.000 C 
BRANCH  27  29
ATOM     28  C   UNL     1       4.553   6.676  17.481  0.00  0.00    +0.000 C 
ATOM     29  C   UNL     1       3.411   7.359  17.630  0.00  0.00    +0.000 C 
ENDBRANCH  27  29
ENDBRANCH  26  27
ENDBRANCH  24  26
ENDBRANCH   1  24
BRANCH   3  30
ATOM     30  O   UNL     1      -1.715  10.297  16.366  0.00  0.00    +0.000 OA
BRANCH  30  31
ATOM     31  C   UNL     1      -2.952  10.261  15.805  0.00  0.00    +0.000 C 
ATOM     32  C   UNL     1      -2.883  10.029  14.326  0.00  0.00    +0.000 C 
ATOM     33  O   UNL     1      -4.001  10.392  16.422  0.00  0.00    +0.000 OA
ENDBRANCH  30  31
ENDBRANCH   3  30
TORSDOF 7
ENDMDL
MODEL 9
REMARK VINA RESULT:      -5.9      5.225      9.625
REMARK  Name = 
REMARK  10 active torsions:
REMARK  status: ('A' for Active; 'I' for Inactive)
REMARK    1  A    between atoms: C_2  and  C_3
REMARK    2  A    between atoms: C_3  and  O_4
REMARK    3  A    between atoms: O_4  and  C_5
REMARK    4  A    between atoms: C_5  and  C_7
REMARK    5  A    between atoms: C_9  and  O_10
REMARK    6  A    between atoms: O_10  and  C_11
REMARK    7  A    between atoms: C_11  and  C_12
REMARK    8  A    between atoms: C_17  and  C_18
REMARK    9  A    between atoms: C_25  and  C_26
REMARK   10  A    between atoms: C_32  and  C_33
REMARK                            x       y       z     vdW  Elec       q    Type
REMARK                         _______ _______ _______ _____ _____    ______ ____
ROOT
ATOM      1  C   UNL     1       0.351   9.426  19.009  0.00  0.00    +0.000 C 
ATOM      2  C   UNL     1      -0.202   9.446  17.565  0.00  0.00    +0.000 C 
ATOM      3  C   UNL     1      -1.629   9.980  17.469  0.00  0.00    +0.000 C 
ATOM      4  C   UNL     1      -1.693  11.334  18.182  0.00  0.00    +0.000 C 
ATOM      5  O   UNL     1      -2.127  12.349  17.641  0.00  0.00    +0.000 OA
ATOM      6  C   UNL     1      -1.229  11.301  19.646  0.00  0.00    +0.000 C 
ATOM      7  C   UNL     1       0.271  10.840  19.710  0.00  0.00    +0.000 C 
ATOM      8  C   UNL     1       1.239  11.815  18.999  0.00  0.00    +0.000 C 
ATOM      9  C   UNL     1       0.688  10.721  21.202  0.00  0.00    +0.000 C 
ATOM     10  C   UNL     1       0.306  11.931  22.065  0.00  0.00    +0.000 C 
ATOM     11  C   UNL     1      -1.202  12.217  21.991  0.00  0.00    +0.000 C 
ATOM     12  C   UNL     1      -1.636  13.289  22.968  0.00  0.00    +0.000 C 
ATOM     13  O   UNL     1      -0.924  13.688  23.881  0.00  0.00    +0.000 OA
ATOM     14  O   UNL     1      -2.920  13.699  22.862  0.00  0.00    +0.000 OA
ATOM     15  C   UNL     1      -3.721  13.582  21.662  0.00  0.00    +0.000 C 
ATOM     16  C   UNL     1      -3.206  12.557  20.641  0.00  0.00    +0.000 C 
ATOM     17  C   UNL     1      -1.663  12.515  20.548  0.00  0.00    +0.000 C 
ATOM     18  C   UNL     1      -1.149  13.890  20.062  0.00  0.00    +0.000 C 
ENDROOT
BRANCH  15  19
ATOM     19  C   UNL     1      -5.148  13.301  22.026  0.00  0.00    +0.000 A 
ATOM     20  C   UNL     1      -5.784  13.512  23.286  0.00  0.00    +0.000 A 
ATOM     21  C   UNL     1      -7.086  13.097  23.141  0.00  0.00    +0.000 A 
ATOM     22  O   UNL     1      -7.300  12.641  21.882  0.00  0.00    +0.000 OA
ATOM     23  C   UNL     1      -6.128  12.771  21.210  0.00  0.00    +0.000 A 
ENDBRANCH  15  19
BRANCH   1  24
ATOM     24  C   UNL     1       1.752   8.816  18.967  0.00  0.00    +0.000 C 
ATOM     25  O   UNL     1       2.578   9.051  18.096  0.00  0.00    +0.000 OA
BRANCH  24  26
ATOM     26  O   UNL     1       1.932   7.955  20.003  0.00  0.00    +0.000 OA
BRANCH  26  27
ATOM     27  C   UNL     1       2.433   6.656  19.648  0.00  0.00    +0.000 C 
BRANCH  27  29
ATOM     28  C   UNL     1       2.223   4.602  21.094  0.00  0.00    +0.000 C 
ATOM     29  C   UNL     1       1.673   5.611  20.407  0.00  0.00    +0.000 C 
ENDBRANCH  27  29
ENDBRANCH  26  27
ENDBRANCH  24  26
ENDBRANCH   1  24
BRANCH   3  30
ATOM     30  O   UNL     1      -2.015  10.115  16.093  0.00  0.00    +0.000 OA
BRANCH  30  31
ATOM     31  C   UNL     1      -3.351  10.060  15.852  0.00  0.00    +0.000 C 
ATOM     32  C   UNL     1      -3.651  10.110  14.384  0.00  0.00    +0.000 C 
ATOM     33  O   UNL     1      -4.212   9.971  16.717  0.00  0.00    +0.000 OA
ENDBRANCH  30  31
ENDBRANCH   3  30
TORSDOF 7
ENDMDL
