MODEL 1
REMARK VINA RESULT:      -7.4      0.000      0.000
REMARK  Name = 
REMARK  11 active torsions:
REMARK  status: ('A' for Active; 'I' for Inactive)
REMARK    1  A    between atoms: C_1  and  C_2
REMARK    2  A    between atoms: C_2  and  O_3
REMARK    3  A    between atoms: O_3  and  C_4
REMARK    4  A    between atoms: C_4  and  C_6
REMARK    5  A    between atoms: C_6  and  S_7
REMARK    6  A    between atoms: S_7  and  C_8
REMARK    7  A    between atoms: C_11  and  C_12
REMARK    8  A    between atoms: C_12  and  C_13
REMARK    9  A    between atoms: C_16  and  O_17
REMARK   10  A    between atoms: O_17  and  C_18
REMARK   11  A    between atoms: N_21  and  C_22
REMARK                            x       y       z     vdW  Elec       q    Type
REMARK                         _______ _______ _______ _____ _____    ______ ____
ROOT
ATOM      1  C   UNL     1       3.055   4.133  17.617  0.00  0.00    +0.000 A 
ATOM      2  N   UNL     1       1.752   4.287  17.557  0.00  0.00    +0.000 NA
ATOM      3  N   UNL     1       1.470   5.599  17.808  0.00  0.00    +0.000 NA
ATOM      4  C   UNL     1       2.604   6.246  18.009  0.00  0.00    +0.000 A 
ATOM      5  N   UNL     1       3.672   5.341  17.934  0.00  0.00    +0.000 N 
ENDROOT
BRANCH   5   6
ATOM      6  C   UNL     1       5.060   5.638  18.082  0.00  0.00    +0.000 A 
ATOM      7  C   UNL     1       5.730   5.281  19.259  0.00  0.00    +0.000 A 
ATOM      8  C   UNL     1       7.070   5.619  19.450  0.00  0.00    +0.000 A 
ATOM      9  C   UNL     1       7.769   6.282  18.448  0.00  0.00    +0.000 A 
ATOM     10  C   UNL     1       7.127   6.609  17.257  0.00  0.00    +0.000 A 
ATOM     11  C   UNL     1       5.776   6.300  17.076  0.00  0.00    +0.000 A 
ENDBRANCH   5   6
BRANCH   1  12
ATOM     12  S   UNL     1       3.830   2.580  17.512  0.00  0.00    +0.000 S 
BRANCH  12  13
ATOM     13  C   UNL     1       3.167   1.763  18.993  0.00  0.00    +0.000 C 
BRANCH  13  14
ATOM     14  C   UNL     1       3.977   2.114  20.225  0.00  0.00    +0.000 C 
ATOM     15  O   UNL     1       5.199   2.045  20.322  0.00  0.00    +0.000 OA
BRANCH  14  16
ATOM     16  O   UNL     1       3.132   2.372  21.266  0.00  0.00    +0.000 OA
BRANCH  16  18
ATOM     17  C   UNL     1       2.129   4.537  21.212  0.00  0.00    +0.000 C 
ATOM     18  C   UNL     1       1.916   3.062  20.931  0.00  0.00    +0.000 C 
ENDBRANCH  16  18
ENDBRANCH  14  16
ENDBRANCH  13  14
ENDBRANCH  12  13
ENDBRANCH   1  12
BRANCH   4  19
ATOM     19  C   UNL     1       2.703   7.746  18.035  0.00  0.00    +0.000 C 
BRANCH  19  20
ATOM     20  C   UNL     1       1.728   8.502  18.923  0.00  0.00    +0.000 A 
ATOM     21  C   UNL     1       1.621   8.137  20.279  0.00  0.00    +0.000 A 
ATOM     22  C   UNL     1       0.838   8.884  21.166  0.00  0.00    +0.000 A 
ATOM     23  C   UNL     1       0.169  10.023  20.725  0.00  0.00    +0.000 A 
ATOM     24  C   UNL     1       0.223  10.366  19.374  0.00  0.00    +0.000 A 
ATOM     25  C   UNL     1       1.003   9.617  18.482  0.00  0.00    +0.000 A 
BRANCH  23  26
ATOM     26  O   UNL     1      -0.518  10.717  21.683  0.00  0.00    +0.000 OA
ATOM     27  C   UNL     1      -0.500  10.128  22.978  0.00  0.00    +0.000 C 
ENDBRANCH  23  26
ENDBRANCH  19  20
ENDBRANCH   4  19
TORSDOF 9
ENDMDL
MODEL 2
REMARK VINA RESULT:      -7.3      0.538      1.071
REMARK  Name = 
REMARK  11 active torsions:
REMARK  status: ('A' for Active; 'I' for Inactive)
REMARK    1  A    between atoms: C_1  and  C_2
REMARK    2  A    between atoms: C_2  and  O_3
REMARK    3  A    between atoms: O_3  and  C_4
REMARK    4  A    between atoms: C_4  and  C_6
REMARK    5  A    between atoms: C_6  and  S_7
REMARK    6  A    between atoms: S_7  and  C_8
REMARK    7  A    between atoms: C_11  and  C_12
REMARK    8  A    between atoms: C_12  and  C_13
REMARK    9  A    between atoms: C_16  and  O_17
REMARK   10  A    between atoms: O_17  and  C_18
REMARK   11  A    between atoms: N_21  and  C_22
REMARK                            x       y       z     vdW  Elec       q    Type
REMARK                         _______ _______ _______ _____ _____    ______ ____
ROOT
ATOM      1  C   UNL     1       3.181   4.257  17.666  0.00  0.00    +0.000 A 
ATOM      2  N   UNL     1       1.879   4.404  17.572  0.00  0.00    +0.000 NA
ATOM      3  N   UNL     1       1.586   5.718  17.791  0.00  0.00    +0.000 NA
ATOM      4  C   UNL     1       2.712   6.374  18.008  0.00  0.00    +0.000 A 
ATOM      5  N   UNL     1       3.785   5.474  17.975  0.00  0.00    +0.000 N 
ENDROOT
BRANCH   5   6
ATOM      6  C   UNL     1       5.168   5.779  18.152  0.00  0.00    +0.000 A 
ATOM      7  C   UNL     1       5.857   6.498  17.169  0.00  0.00    +0.000 A 
ATOM      8  C   UNL     1       7.224   6.751  17.293  0.00  0.00    +0.000 A 
ATOM      9  C   UNL     1       7.910   6.323  18.424  0.00  0.00    +0.000 A 
ATOM     10  C   UNL     1       7.229   5.640  19.428  0.00  0.00    +0.000 A 
ATOM     11  C   UNL     1       5.867   5.358  19.292  0.00  0.00    +0.000 A 
ENDBRANCH   5   6
BRANCH   1  12
ATOM     12  S   UNL     1       3.966   2.706  17.609  0.00  0.00    +0.000 S 
BRANCH  12  13
ATOM     13  C   UNL     1       3.201   1.880  19.034  0.00  0.00    +0.000 C 
BRANCH  13  14
ATOM     14  C   UNL     1       3.951   2.184  20.315  0.00  0.00    +0.000 C 
ATOM     15  O   UNL     1       5.167   2.104  20.469  0.00  0.00    +0.000 OA
BRANCH  14  16
ATOM     16  O   UNL     1       3.058   2.414  21.322  0.00  0.00    +0.000 OA
BRANCH  16  18
ATOM     17  C   UNL     1       2.138   4.613  21.201  0.00  0.00    +0.000 C 
ATOM     18  C   UNL     1       1.873   3.140  20.955  0.00  0.00    +0.000 C 
ENDBRANCH  16  18
ENDBRANCH  14  16
ENDBRANCH  13  14
ENDBRANCH  12  13
ENDBRANCH   1  12
BRANCH   4  19
ATOM     19  C   UNL     1       2.804   7.875  18.008  0.00  0.00    +0.000 C 
BRANCH  19  20
ATOM     20  C   UNL     1       1.703   8.649  18.717  0.00  0.00    +0.000 A 
ATOM     21  C   UNL     1       1.522   8.461  20.100  0.00  0.00    +0.000 A 
ATOM     22  C   UNL     1       0.612   9.243  20.820  0.00  0.00    +0.000 A 
ATOM     23  C   UNL     1      -0.113  10.244  20.180  0.00  0.00    +0.000 A 
ATOM     24  C   UNL     1       0.016  10.407  18.801  0.00  0.00    +0.000 A 
ATOM     25  C   UNL     1       0.923   9.621  18.076  0.00  0.00    +0.000 A 
BRANCH  23  26
ATOM     26  O   UNL     1      -0.928  10.994  20.984  0.00  0.00    +0.000 OA
ATOM     27  C   UNL     1      -0.264  12.000  21.740  0.00  0.00    +0.000 C 
ENDBRANCH  23  26
ENDBRANCH  19  20
ENDBRANCH   4  19
TORSDOF 9
ENDMDL
MODEL 3
REMARK VINA RESULT:      -7.2      2.016      4.462
REMARK  Name = 
REMARK  11 active torsions:
REMARK  status: ('A' for Active; 'I' for Inactive)
REMARK    1  A    between atoms: C_1  and  C_2
REMARK    2  A    between atoms: C_2  and  O_3
REMARK    3  A    between atoms: O_3  and  C_4
REMARK    4  A    between atoms: C_4  and  C_6
REMARK    5  A    between atoms: C_6  and  S_7
REMARK    6  A    between atoms: S_7  and  C_8
REMARK    7  A    between atoms: C_11  and  C_12
REMARK    8  A    between atoms: C_12  and  C_13
REMARK    9  A    between atoms: C_16  and  O_17
REMARK   10  A    between atoms: O_17  and  C_18
REMARK   11  A    between atoms: N_21  and  C_22
REMARK                            x       y       z     vdW  Elec       q    Type
REMARK                         _______ _______ _______ _____ _____    ______ ____
ROOT
ATOM      1  C   UNL     1       4.646   5.734  17.893  0.00  0.00    +0.000 A 
ATOM      2  N   UNL     1       5.055   6.836  17.305  0.00  0.00    +0.000 NA
ATOM      3  N   UNL     1       3.976   7.656  17.149  0.00  0.00    +0.000 NA
ATOM      4  C   UNL     1       2.911   7.058  17.653  0.00  0.00    +0.000 A 
ATOM      5  N   UNL     1       3.273   5.788  18.122  0.00  0.00    +0.000 N 
ENDROOT
BRANCH   5   6
ATOM      6  C   UNL     1       2.421   4.828  18.746  0.00  0.00    +0.000 A 
ATOM      7  C   UNL     1       2.436   4.680  20.138  0.00  0.00    +0.000 A 
ATOM      8  C   UNL     1       1.658   3.704  20.762  0.00  0.00    +0.000 A 
ATOM      9  C   UNL     1       0.824   2.890  20.004  0.00  0.00    +0.000 A 
ATOM     10  C   UNL     1       0.770   3.053  18.622  0.00  0.00    +0.000 A 
ATOM     11  C   UNL     1       1.571   4.008  17.991  0.00  0.00    +0.000 A 
ENDBRANCH   5   6
BRANCH   1  12
ATOM     12  S   UNL     1       5.676   4.355  18.139  0.00  0.00    +0.000 S 
BRANCH  12  13
ATOM     13  C   UNL     1       7.313   5.095  17.874  0.00  0.00    +0.000 C 
BRANCH  13  14
ATOM     14  C   UNL     1       7.797   5.822  19.112  0.00  0.00    +0.000 C 
ATOM     15  O   UNL     1       7.501   5.539  20.270  0.00  0.00    +0.000 OA
BRANCH  14  16
ATOM     16  O   UNL     1       8.492   6.938  18.742  0.00  0.00    +0.000 OA
BRANCH  16  18
ATOM     17  C   UNL     1       8.380   9.233  18.097  0.00  0.00    +0.000 C 
ATOM     18  C   UNL     1       7.799   7.850  17.875  0.00  0.00    +0.000 C 
ENDBRANCH  16  18
ENDBRANCH  14  16
ENDBRANCH  13  14
ENDBRANCH  12  13
ENDBRANCH   1  12
BRANCH   4  19
ATOM     19  C   UNL     1       1.611   7.769  17.910  0.00  0.00    +0.000 C 
BRANCH  19  20
ATOM     20  C   UNL     1       1.452   8.491  19.239  0.00  0.00    +0.000 A 
ATOM     21  C   UNL     1       1.067   9.845  19.234  0.00  0.00    +0.000 A 
ATOM     22  C   UNL     1       0.781  10.517  20.428  0.00  0.00    +0.000 A 
ATOM     23  C   UNL     1       0.847   9.843  21.645  0.00  0.00    +0.000 A 
ATOM     24  C   UNL     1       1.277   8.517  21.670  0.00  0.00    +0.000 A 
ATOM     25  C   UNL     1       1.570   7.843  20.475  0.00  0.00    +0.000 A 
BRANCH  23  26
ATOM     26  O   UNL     1       0.487  10.571  22.747  0.00  0.00    +0.000 OA
ATOM     27  C   UNL     1      -0.851  10.369  23.188  0.00  0.00    +0.000 C 
ENDBRANCH  23  26
ENDBRANCH  19  20
ENDBRANCH   4  19
TORSDOF 9
ENDMDL
MODEL 4
REMARK VINA RESULT:      -7.1      2.446      4.829
REMARK  Name = 
REMARK  11 active torsions:
REMARK  status: ('A' for Active; 'I' for Inactive)
REMARK    1  A    between atoms: C_1  and  C_2
REMARK    2  A    between atoms: C_2  and  O_3
REMARK    3  A    between atoms: O_3  and  C_4
REMARK    4  A    between atoms: C_4  and  C_6
REMARK    5  A    between atoms: C_6  and  S_7
REMARK    6  A    between atoms: S_7  and  C_8
REMARK    7  A    between atoms: C_11  and  C_12
REMARK    8  A    between atoms: C_12  and  C_13
REMARK    9  A    between atoms: C_16  and  O_17
REMARK   10  A    between atoms: O_17  and  C_18
REMARK   11  A    between atoms: N_21  and  C_22
REMARK                            x       y       z     vdW  Elec       q    Type
REMARK                         _______ _______ _______ _____ _____    ______ ____
ROOT
ATOM      1  C   UNL     1       4.925   5.834  18.161  0.00  0.00    +0.000 A 
ATOM      2  N   UNL     1       5.351   6.932  17.579  0.00  0.00    +0.000 NA
ATOM      3  N   UNL     1       4.266   7.714  17.308  0.00  0.00    +0.000 NA
ATOM      4  C   UNL     1       3.180   7.096  17.737  0.00  0.00    +0.000 A 
ATOM      5  N   UNL     1       3.536   5.851  18.270  0.00  0.00    +0.000 N 
ENDROOT
BRANCH   5   6
ATOM      6  C   UNL     1       2.662   4.881  18.846  0.00  0.00    +0.000 A 
ATOM      7  C   UNL     1       1.966   3.989  18.022  0.00  0.00    +0.000 A 
ATOM      8  C   UNL     1       1.058   3.077  18.562  0.00  0.00    +0.000 A 
ATOM      9  C   UNL     1       0.865   3.018  19.937  0.00  0.00    +0.000 A 
ATOM     10  C   UNL     1       1.580   3.873  20.772  0.00  0.00    +0.000 A 
ATOM     11  C   UNL     1       2.466   4.809  20.232  0.00  0.00    +0.000 A 
ENDBRANCH   5   6
BRANCH   1  12
ATOM     12  S   UNL     1       5.969   4.494  18.533  0.00  0.00    +0.000 S 
BRANCH  12  13
ATOM     13  C   UNL     1       7.277   4.721  17.293  0.00  0.00    +0.000 C 
BRANCH  13  14
ATOM     14  C   UNL     1       6.772   4.416  15.897  0.00  0.00    +0.000 C 
ATOM     15  O   UNL     1       5.978   3.527  15.601  0.00  0.00    +0.000 OA
BRANCH  14  16
ATOM     16  O   UNL     1       7.450   5.180  14.991  0.00  0.00    +0.000 OA
BRANCH  16  18
ATOM     17  C   UNL     1       8.235   5.651  12.787  0.00  0.00    +0.000 C 
ATOM     18  C   UNL     1       7.266   4.825  13.610  0.00  0.00    +0.000 C 
ENDBRANCH  16  18
ENDBRANCH  14  16
ENDBRANCH  13  14
ENDBRANCH  12  13
ENDBRANCH   1  12
BRANCH   4  19
ATOM     19  C   UNL     1       1.842   7.773  17.861  0.00  0.00    +0.000 C 
BRANCH  19  20
ATOM     20  C   UNL     1       1.578   8.588  19.117  0.00  0.00    +0.000 A 
ATOM     21  C   UNL     1       1.192   9.935  18.984  0.00  0.00    +0.000 A 
ATOM     22  C   UNL     1       0.812  10.689  20.100  0.00  0.00    +0.000 A 
ATOM     23  C   UNL     1       0.784  10.107  21.364  0.00  0.00    +0.000 A 
ATOM     24  C   UNL     1       1.214   8.789  21.520  0.00  0.00    +0.000 A 
ATOM     25  C   UNL     1       1.600   8.033  20.403  0.00  0.00    +0.000 A 
BRANCH  23  26
ATOM     26  O   UNL     1       0.338  10.910  22.379  0.00  0.00    +0.000 OA
ATOM     27  C   UNL     1      -0.461  12.012  21.964  0.00  0.00    +0.000 C 
ENDBRANCH  23  26
ENDBRANCH  19  20
ENDBRANCH   4  19
TORSDOF 9
ENDMDL
MODEL 5
REMARK VINA RESULT:      -7.0      3.836      5.008
REMARK  Name = 
REMARK  11 active torsions:
REMARK  status: ('A' for Active; 'I' for Inactive)
REMARK    1  A    between atoms: C_1  and  C_2
REMARK    2  A    between atoms: C_2  and  O_3
REMARK    3  A    between atoms: O_3  and  C_4
REMARK    4  A    between atoms: C_4  and  C_6
REMARK    5  A    between atoms: C_6  and  S_7
REMARK    6  A    between atoms: S_7  and  C_8
REMARK    7  A    between atoms: C_11  and  C_12
REMARK    8  A    between atoms: C_12  and  C_13
REMARK    9  A    between atoms: C_16  and  O_17
REMARK   10  A    between atoms: O_17  and  C_18
REMARK   11  A    between atoms: N_21  and  C_22
REMARK                            x       y       z     vdW  Elec       q    Type
REMARK                         _______ _______ _______ _____ _____    ______ ____
ROOT
ATOM      1  C   UNL     1       5.241   4.349  16.160  0.00  0.00    +0.000 A 
ATOM      2  N   UNL     1       4.139   3.634  16.189  0.00  0.00    +0.000 NA
ATOM      3  N   UNL     1       3.509   3.878  17.375  0.00  0.00    +0.000 NA
ATOM      4  C   UNL     1       4.222   4.752  18.063  0.00  0.00    +0.000 A 
ATOM      5  N   UNL     1       5.381   5.072  17.343  0.00  0.00    +0.000 N 
ENDROOT
BRANCH   5   6
ATOM      6  C   UNL     1       6.408   5.983  17.730  0.00  0.00    +0.000 A 
ATOM      7  C   UNL     1       7.322   5.624  18.728  0.00  0.00    +0.000 A 
ATOM      8  C   UNL     1       8.294   6.526  19.166  0.00  0.00    +0.000 A 
ATOM      9  C   UNL     1       8.390   7.783  18.582  0.00  0.00    +0.000 A 
ATOM     10  C   UNL     1       7.512   8.140  17.561  0.00  0.00    +0.000 A 
ATOM     11  C   UNL     1       6.518   7.251  17.143  0.00  0.00    +0.000 A 
ENDBRANCH   5   6
BRANCH   1  12
ATOM     12  S   UNL     1       6.422   4.216  14.891  0.00  0.00    +0.000 S 
BRANCH  12  13
ATOM     13  C   UNL     1       5.375   3.707  13.497  0.00  0.00    +0.000 C 
BRANCH  13  14
ATOM     14  C   UNL     1       6.207   3.376  12.275  0.00  0.00    +0.000 C 
ATOM     15  O   UNL     1       7.118   4.063  11.821  0.00  0.00    +0.000 OA
BRANCH  14  16
ATOM     16  O   UNL     1       5.693   2.270  11.660  0.00  0.00    +0.000 OA
BRANCH  16  18
ATOM     17  C   UNL     1       6.127  -0.045  11.274  0.00  0.00    +0.000 C 
ATOM     18  C   UNL     1       6.654   1.366  11.090  0.00  0.00    +0.000 C 
ENDBRANCH  16  18
ENDBRANCH  14  16
ENDBRANCH  13  14
ENDBRANCH  12  13
ENDBRANCH   1  12
BRANCH   4  19
ATOM     19  C   UNL     1       3.702   5.463  19.281  0.00  0.00    +0.000 C 
BRANCH  19  20
ATOM     20  C   UNL     1       2.847   6.702  19.064  0.00  0.00    +0.000 A 
ATOM     21  C   UNL     1       2.114   7.220  20.149  0.00  0.00    +0.000 A 
ATOM     22  C   UNL     1       1.418   8.429  20.036  0.00  0.00    +0.000 A 
ATOM     23  C   UNL     1       1.462   9.156  18.849  0.00  0.00    +0.000 A 
ATOM     24  C   UNL     1       2.140   8.629  17.750  0.00  0.00    +0.000 A 
ATOM     25  C   UNL     1       2.834   7.415  17.859  0.00  0.00    +0.000 A 
BRANCH  23  26
ATOM     26  O   UNL     1       0.801  10.354  18.861  0.00  0.00    +0.000 OA
ATOM     27  C   UNL     1      -0.498  10.327  18.280  0.00  0.00    +0.000 C 
ENDBRANCH  23  26
ENDBRANCH  19  20
ENDBRANCH   4  19
TORSDOF 9
ENDMDL
MODEL 6
REMARK VINA RESULT:      -6.9      2.397      4.600
REMARK  Name = 
REMARK  11 active torsions:
REMARK  status: ('A' for Active; 'I' for Inactive)
REMARK    1  A    between atoms: C_1  and  C_2
REMARK    2  A    between atoms: C_2  and  O_3
REMARK    3  A    between atoms: O_3  and  C_4
REMARK    4  A    between atoms: C_4  and  C_6
REMARK    5  A    between atoms: C_6  and  S_7
REMARK    6  A    between atoms: S_7  and  C_8
REMARK    7  A    between atoms: C_11  and  C_12
REMARK    8  A    between atoms: C_12  and  C_13
REMARK    9  A    between atoms: C_16  and  O_17
REMARK   10  A    between atoms: O_17  and  C_18
REMARK   11  A    between atoms: N_21  and  C_22
REMARK                            x       y       z     vdW  Elec       q    Type
REMARK                         _______ _______ _______ _____ _____    ______ ____
ROOT
ATOM      1  C   UNL     1       4.639   6.119  18.245  0.00  0.00    +0.000 A 
ATOM      2  N   UNL     1       5.050   7.239  17.696  0.00  0.00    +0.000 NA
ATOM      3  N   UNL     1       3.952   8.002  17.422  0.00  0.00    +0.000 NA
ATOM      4  C   UNL     1       2.873   7.349  17.815  0.00  0.00    +0.000 A 
ATOM      5  N   UNL     1       3.249   6.101  18.327  0.00  0.00    +0.000 N 
ENDROOT
BRANCH   5   6
ATOM      6  C   UNL     1       2.387   5.098  18.864  0.00  0.00    +0.000 A 
ATOM      7  C   UNL     1       1.796   4.155  18.015  0.00  0.00    +0.000 A 
ATOM      8  C   UNL     1       0.900   3.207  18.512  0.00  0.00    +0.000 A 
ATOM      9  C   UNL     1       0.615   3.165  19.872  0.00  0.00    +0.000 A 
ATOM     10  C   UNL     1       1.225   4.073  20.734  0.00  0.00    +0.000 A 
ATOM     11  C   UNL     1       2.098   5.043  20.235  0.00  0.00    +0.000 A 
ENDBRANCH   5   6
BRANCH   1  12
ATOM     12  S   UNL     1       5.707   4.796  18.609  0.00  0.00    +0.000 S 
BRANCH  12  13
ATOM     13  C   UNL     1       5.959   4.091  16.953  0.00  0.00    +0.000 C 
BRANCH  13  14
ATOM     14  C   UNL     1       7.378   4.314  16.470  0.00  0.00    +0.000 C 
ATOM     15  O   UNL     1       8.389   4.252  17.164  0.00  0.00    +0.000 OA
BRANCH  14  16
ATOM     16  O   UNL     1       7.355   4.748  15.175  0.00  0.00    +0.000 OA
BRANCH  16  18
ATOM     17  C   UNL     1       6.286   3.741  13.293  0.00  0.00    +0.000 C 
ATOM     18  C   UNL     1       6.090   4.639  14.500  0.00  0.00    +0.000 C 
ENDBRANCH  16  18
ENDBRANCH  14  16
ENDBRANCH  13  14
ENDBRANCH  12  13
ENDBRANCH   1  12
BRANCH   4  19
ATOM     19  C   UNL     1       1.518   7.992  17.927  0.00  0.00    +0.000 C 
BRANCH  19  20
ATOM     20  C   UNL     1       1.313   9.019  19.029  0.00  0.00    +0.000 A 
ATOM     21  C   UNL     1       1.123  10.368  18.673  0.00  0.00    +0.000 A 
ATOM     22  C   UNL     1       0.802  11.329  19.638  0.00  0.00    +0.000 A 
ATOM     23  C   UNL     1       0.638  10.959  20.970  0.00  0.00    +0.000 A 
ATOM     24  C   UNL     1       0.875   9.637  21.346  0.00  0.00    +0.000 A 
ATOM     25  C   UNL     1       1.202   8.673  20.382  0.00  0.00    +0.000 A 
BRANCH  23  26
ATOM     26  O   UNL     1       0.263  11.961  21.824  0.00  0.00    +0.000 OA
ATOM     27  C   UNL     1      -0.799  11.626  22.711  0.00  0.00    +0.000 C 
ENDBRANCH  23  26
ENDBRANCH  19  20
ENDBRANCH   4  19
TORSDOF 9
ENDMDL
MODEL 7
REMARK VINA RESULT:      -6.9      0.613      1.535
REMARK  Name = 
REMARK  11 active torsions:
REMARK  status: ('A' for Active; 'I' for Inactive)
REMARK    1  A    between atoms: C_1  and  C_2
REMARK    2  A    between atoms: C_2  and  O_3
REMARK    3  A    between atoms: O_3  and  C_4
REMARK    4  A    between atoms: C_4  and  C_6
REMARK    5  A    between atoms: C_6  and  S_7
REMARK    6  A    between atoms: S_7  and  C_8
REMARK    7  A    between atoms: C_11  and  C_12
REMARK    8  A    between atoms: C_12  and  C_13
REMARK    9  A    between atoms: C_16  and  O_17
REMARK   10  A    between atoms: O_17  and  C_18
REMARK   11  A    between atoms: N_21  and  C_22
REMARK                            x       y       z     vdW  Elec       q    Type
REMARK                         _______ _______ _______ _____ _____    ______ ____
ROOT
ATOM      1  C   UNL     1       3.068   4.191  17.574  0.00  0.00    +0.000 A 
ATOM      2  N   UNL     1       1.764   4.328  17.487  0.00  0.00    +0.000 NA
ATOM      3  N   UNL     1       1.461   5.636  17.730  0.00  0.00    +0.000 NA
ATOM      4  C   UNL     1       2.582   6.298  17.952  0.00  0.00    +0.000 A 
ATOM      5  N   UNL     1       3.662   5.408  17.901  0.00  0.00    +0.000 N 
ENDROOT
BRANCH   5   6
ATOM      6  C   UNL     1       5.043   5.723  18.077  0.00  0.00    +0.000 A 
ATOM      7  C   UNL     1       5.752   6.362  17.053  0.00  0.00    +0.000 A 
ATOM      8  C   UNL     1       7.117   6.620  17.181  0.00  0.00    +0.000 A 
ATOM      9  C   UNL     1       7.783   6.278  18.353  0.00  0.00    +0.000 A 
ATOM     10  C   UNL     1       7.083   5.677  19.395  0.00  0.00    +0.000 A 
ATOM     11  C   UNL     1       5.722   5.388  19.257  0.00  0.00    +0.000 A 
ENDBRANCH   5   6
BRANCH   1  12
ATOM     12  S   UNL     1       3.865   2.649  17.487  0.00  0.00    +0.000 S 
BRANCH  12  13
ATOM     13  C   UNL     1       4.090   2.277  19.251  0.00  0.00    +0.000 C 
BRANCH  13  14
ATOM     14  C   UNL     1       2.761   2.028  19.935  0.00  0.00    +0.000 C 
ATOM     15  O   UNL     1       1.729   1.657  19.382  0.00  0.00    +0.000 OA
BRANCH  14  16
ATOM     16  O   UNL     1       2.839   2.427  21.239  0.00  0.00    +0.000 OA
BRANCH  16  18
ATOM     17  C   UNL     1       2.051   4.679  21.151  0.00  0.00    +0.000 C 
ATOM     18  C   UNL     1       1.782   3.288  21.695  0.00  0.00    +0.000 C 
ENDBRANCH  16  18
ENDBRANCH  14  16
ENDBRANCH  13  14
ENDBRANCH  12  13
ENDBRANCH   1  12
BRANCH   4  19
ATOM     19  C   UNL     1       2.660   7.800  17.978  0.00  0.00    +0.000 C 
BRANCH  19  20
ATOM     20  C   UNL     1       1.886   8.529  19.065  0.00  0.00    +0.000 A 
ATOM     21  C   UNL     1       1.152   9.680  18.720  0.00  0.00    +0.000 A 
ATOM     22  C   UNL     1       0.320  10.309  19.653  0.00  0.00    +0.000 A 
ATOM     23  C   UNL     1       0.183   9.787  20.936  0.00  0.00    +0.000 A 
ATOM     24  C   UNL     1       0.944   8.679  21.308  0.00  0.00    +0.000 A 
ATOM     25  C   UNL     1       1.782   8.049  20.377  0.00  0.00    +0.000 A 
BRANCH  23  26
ATOM     26  O   UNL     1      -0.702  10.439  21.752  0.00  0.00    +0.000 OA
ATOM     27  C   UNL     1      -0.690  10.014  23.110  0.00  0.00    +0.000 C 
ENDBRANCH  23  26
ENDBRANCH  19  20
ENDBRANCH   4  19
TORSDOF 9
ENDMDL
MODEL 8
REMARK VINA RESULT:      -6.9      3.055      4.501
REMARK  Name = 
REMARK  11 active torsions:
REMARK  status: ('A' for Active; 'I' for Inactive)
REMARK    1  A    between atoms: C_1  and  C_2
REMARK    2  A    between atoms: C_2  and  O_3
REMARK    3  A    between atoms: O_3  and  C_4
REMARK    4  A    between atoms: C_4  and  C_6
REMARK    5  A    between atoms: C_6  and  S_7
REMARK    6  A    between atoms: S_7  and  C_8
REMARK    7  A    between atoms: C_11  and  C_12
REMARK    8  A    between atoms: C_12  and  C_13
REMARK    9  A    between atoms: C_16  and  O_17
REMARK   10  A    between atoms: O_17  and  C_18
REMARK   11  A    between atoms: N_21  and  C_22
REMARK                            x       y       z     vdW  Elec       q    Type
REMARK                         _______ _______ _______ _____ _____    ______ ____
ROOT
ATOM      1  C   UNL     1       4.024   4.108  17.187  0.00  0.00    +0.000 A 
ATOM      2  N   UNL     1       2.790   3.714  17.406  0.00  0.00    +0.000 NA
ATOM      3  N   UNL     1       2.322   4.382  18.500  0.00  0.00    +0.000 NA
ATOM      4  C   UNL     1       3.269   5.191  18.941  0.00  0.00    +0.000 A 
ATOM      5  N   UNL     1       4.415   5.034  18.151  0.00  0.00    +0.000 N 
ENDROOT
BRANCH   5   6
ATOM      6  C   UNL     1       5.654   5.731  18.287  0.00  0.00    +0.000 A 
ATOM      7  C   UNL     1       5.931   6.833  17.470  0.00  0.00    +0.000 A 
ATOM      8  C   UNL     1       7.162   7.487  17.544  0.00  0.00    +0.000 A 
ATOM      9  C   UNL     1       8.116   7.071  18.465  0.00  0.00    +0.000 A 
ATOM     10  C   UNL     1       7.839   6.001  19.312  0.00  0.00    +0.000 A 
ATOM     11  C   UNL     1       6.620   5.324  19.218  0.00  0.00    +0.000 A 
ENDBRANCH   5   6
BRANCH   1  12
ATOM     12  S   UNL     1       5.046   3.389  15.978  0.00  0.00    +0.000 S 
BRANCH  12  13
ATOM     13  C   UNL     1       5.361   4.816  14.899  0.00  0.00    +0.000 C 
BRANCH  13  14
ATOM     14  C   UNL     1       6.621   4.620  14.080  0.00  0.00    +0.000 C 
ATOM     15  O   UNL     1       7.617   5.338  14.115  0.00  0.00    +0.000 OA
BRANCH  14  16
ATOM     16  O   UNL     1       6.426   3.611  13.180  0.00  0.00    +0.000 OA
BRANCH  16  18
ATOM     17  C   UNL     1       7.196   2.397  11.275  0.00  0.00    +0.000 C 
ATOM     18  C   UNL     1       7.081   3.769  11.911  0.00  0.00    +0.000 C 
ENDBRANCH  16  18
ENDBRANCH  14  16
ENDBRANCH  13  14
ENDBRANCH  12  13
ENDBRANCH   1  12
BRANCH   4  19
ATOM     19  C   UNL     1       3.019   6.279  19.949  0.00  0.00    +0.000 C 
BRANCH  19  20
ATOM     20  C   UNL     1       2.209   7.485  19.501  0.00  0.00    +0.000 A 
ATOM     21  C   UNL     1       1.507   8.229  20.468  0.00  0.00    +0.000 A 
ATOM     22  C   UNL     1       0.855   9.419  20.127  0.00  0.00    +0.000 A 
ATOM     23  C   UNL     1       0.914   9.903  18.823  0.00  0.00    +0.000 A 
ATOM     24  C   UNL     1       1.561   9.150  17.843  0.00  0.00    +0.000 A 
ATOM     25  C   UNL     1       2.211   7.954  18.181  0.00  0.00    +0.000 A 
BRANCH  23  26
ATOM     26  O   UNL     1       0.298  11.106  18.607  0.00  0.00    +0.000 OA
ATOM     27  C   UNL     1      -1.086  11.021  18.288  0.00  0.00    +0.000 C 
ENDBRANCH  23  26
ENDBRANCH  19  20
ENDBRANCH   4  19
TORSDOF 9
ENDMDL
MODEL 9
REMARK VINA RESULT:      -6.9      1.959      4.355
REMARK  Name = 
REMARK  11 active torsions:
REMARK  status: ('A' for Active; 'I' for Inactive)
REMARK    1  A    between atoms: C_1  and  C_2
REMARK    2  A    between atoms: C_2  and  O_3
REMARK    3  A    between atoms: O_3  and  C_4
REMARK    4  A    between atoms: C_4  and  C_6
REMARK    5  A    between atoms: C_6  and  S_7
REMARK    6  A    between atoms: S_7  and  C_8
REMARK    7  A    between atoms: C_11  and  C_12
REMARK    8  A    between atoms: C_12  and  C_13
REMARK    9  A    between atoms: C_16  and  O_17
REMARK   10  A    between atoms: O_17  and  C_18
REMARK   11  A    between atoms: N_21  and  C_22
REMARK                            x       y       z     vdW  Elec       q    Type
REMARK                         _______ _______ _______ _____ _____    ______ ____
ROOT
ATOM      1  C   UNL     1       3.782   5.613  17.611  0.00  0.00    +0.000 A 
ATOM      2  N   UNL     1       4.083   6.795  17.124  0.00  0.00    +0.000 NA
ATOM      3  N   UNL     1       3.403   7.734  17.844  0.00  0.00    +0.000 NA
ATOM      4  C   UNL     1       2.695   7.122  18.777  0.00  0.00    +0.000 A 
ATOM      5  N   UNL     1       2.870   5.737  18.656  0.00  0.00    +0.000 N 
ENDROOT
BRANCH   5   6
ATOM      6  C   UNL     1       2.289   4.724  19.476  0.00  0.00    +0.000 A 
ATOM      7  C   UNL     1       2.734   4.546  20.792  0.00  0.00    +0.000 A 
ATOM      8  C   UNL     1       2.224   3.520  21.587  0.00  0.00    +0.000 A 
ATOM      9  C   UNL     1       1.231   2.683  21.091  0.00  0.00    +0.000 A 
ATOM     10  C   UNL     1       0.751   2.872  19.797  0.00  0.00    +0.000 A 
ATOM     11  C   UNL     1       1.283   3.879  18.987  0.00  0.00    +0.000 A 
ENDBRANCH   5   6
BRANCH   1  12
ATOM     12  S   UNL     1       4.313   4.127  16.882  0.00  0.00    +0.000 S 
BRANCH  12  13
ATOM     13  C   UNL     1       6.037   4.535  16.481  0.00  0.00    +0.000 C 
BRANCH  13  14
ATOM     14  C   UNL     1       6.864   4.726  17.736  0.00  0.00    +0.000 C 
ATOM     15  O   UNL     1       6.622   4.235  18.835  0.00  0.00    +0.000 OA
BRANCH  14  16
ATOM     16  O   UNL     1       7.839   5.653  17.501  0.00  0.00    +0.000 OA
BRANCH  16  18
ATOM     17  C   UNL     1       7.692   8.035  17.568  0.00  0.00    +0.000 C 
ATOM     18  C   UNL     1       7.864   6.777  18.398  0.00  0.00    +0.000 C 
ENDBRANCH  16  18
ENDBRANCH  14  16
ENDBRANCH  13  14
ENDBRANCH  12  13
ENDBRANCH   1  12
BRANCH   4  19
ATOM     19  C   UNL     1       2.046   7.845  19.926  0.00  0.00    +0.000 C 
BRANCH  19  20
ATOM     20  C   UNL     1       1.086   8.977  19.595  0.00  0.00    +0.000 A 
ATOM     21  C   UNL     1       0.496   9.697  20.650  0.00  0.00    +0.000 A 
ATOM     22  C   UNL     1      -0.290  10.828  20.400  0.00  0.00    +0.000 A 
ATOM     23  C   UNL     1      -0.479  11.276  19.095  0.00  0.00    +0.000 A 
ATOM     24  C   UNL     1       0.055  10.542  18.036  0.00  0.00    +0.000 A 
ATOM     25  C   UNL     1       0.839   9.406  18.285  0.00  0.00    +0.000 A 
BRANCH  23  26
ATOM     26  O   UNL     1      -1.210  12.425  18.962  0.00  0.00    +0.000 OA
ATOM     27  C   UNL     1      -0.463  13.567  18.558  0.00  0.00    +0.000 C 
ENDBRANCH  23  26
ENDBRANCH  19  20
ENDBRANCH   4  19
TORSDOF 9
ENDMDL
