MODEL 1
REMARK VINA RESULT:      -6.9      0.000      0.000
REMARK  Name = 
REMARK  5 active torsions:
REMARK  status: ('A' for Active; 'I' for Inactive)
REMARK    1  A    between atoms: C_2  and  C_7
REMARK    2  A    between atoms: N_3  and  C_4
REMARK    3  A    between atoms: N_11  and  C_12
REMARK    4  A    between atoms: N_16  and  C_17
REMARK    5  A    between atoms: C_17  and  C_18
REMARK                            x       y       z     vdW  Elec       q    Type
REMARK                         _______ _______ _______ _____ _____    ______ ____
ROOT
ATOM      1  C   UNL     1       2.564   5.350  18.534  0.00  0.00    +0.000 C 
ATOM      2  C   UNL     1       2.870   4.263  19.550  0.00  0.00    +0.000 C 
ATOM      3  C   UNL     1       3.418   3.125  18.711  0.00  0.00    +0.000 C 
ATOM      4  C   UNL     1       3.791   3.748  17.369  0.00  0.00    +0.000 C 
ATOM      5  N   UNL     1       3.597   5.199  17.484  0.00  0.00    +0.000 NA
ENDROOT
BRANCH   5   6
ATOM      6  C   UNL     1       4.828   6.027  17.552  0.00  0.00    +0.000 C 
ATOM      7  C   UNL     1       5.898   5.753  18.616  0.00  0.00    +0.000 C 
ATOM      8  C   UNL     1       6.826   4.598  18.281  0.00  0.00    +0.000 C 
ATOM      9  C   UNL     1       7.423   4.744  16.889  0.00  0.00    +0.000 C 
ATOM     10  N   UNL     1       6.477   5.155  15.859  0.00  0.00    +0.000 N 
ATOM     11  C   UNL     1       5.454   6.063  16.128  0.00  0.00    +0.000 C 
ATOM     12  O   UNL     1       4.974   6.766  15.234  0.00  0.00    +0.000 OA
BRANCH  10  13
ATOM     13  C   UNL     1       6.909   5.035  14.453  0.00  0.00    +0.000 C 
BRANCH  13  14
ATOM     14  C   UNL     1       6.221   3.973  13.583  0.00  0.00    +0.000 C 
ATOM     15  F   UNL     1       6.897   3.702  12.446  0.00  0.00    +0.000 F 
ATOM     16  F   UNL     1       6.128   2.806  14.273  0.00  0.00    +0.000 F 
ATOM     17  F   UNL     1       4.962   4.333  13.249  0.00  0.00    +0.000 F 
ENDBRANCH  13  14
ENDBRANCH  10  13
ENDBRANCH   5   6
BRANCH   1  19
ATOM     18  O   UNL     1       2.354   6.897  20.382  0.00  0.00    +0.000 OA
ATOM     19  C   UNL     1       2.394   6.733  19.162  0.00  0.00    +0.000 C 
ATOM     20  N   UNL     1       2.177   7.757  18.263  0.00  0.00    +0.000 N 
ATOM     21  H   UNL     1       2.304   7.578  17.272  0.00  0.00    +0.000 HD
BRANCH  20  22
ATOM     22  C   UNL     1       1.740   9.043  18.714  0.00  0.00    +0.000 C 
ATOM     23  C   UNL     1       1.973  10.253  17.858  0.00  0.00    +0.000 C 
ATOM     24  C   UNL     1       0.575   9.770  18.110  0.00  0.00    +0.000 C 
ENDBRANCH  20  22
ENDBRANCH   1  19
TORSDOF 5
ENDMDL
MODEL 2
REMARK VINA RESULT:      -6.7      3.775      5.399
REMARK  Name = 
REMARK  5 active torsions:
REMARK  status: ('A' for Active; 'I' for Inactive)
REMARK    1  A    between atoms: C_2  and  C_7
REMARK    2  A    between atoms: N_3  and  C_4
REMARK    3  A    between atoms: N_11  and  C_12
REMARK    4  A    between atoms: N_16  and  C_17
REMARK    5  A    between atoms: C_17  and  C_18
REMARK                            x       y       z     vdW  Elec       q    Type
REMARK                         _______ _______ _______ _____ _____    ______ ____
ROOT
ATOM      1  C   UNL     1       4.906   6.646  18.047  0.00  0.00    +0.000 C 
ATOM      2  C   UNL     1       6.146   6.624  17.169  0.00  0.00    +0.000 C 
ATOM      3  C   UNL     1       6.964   5.474  17.724  0.00  0.00    +0.000 C 
ATOM      4  C   UNL     1       5.996   4.655  18.573  0.00  0.00    +0.000 C 
ATOM      5  N   UNL     1       4.656   5.229  18.397  0.00  0.00    +0.000 NA
ENDROOT
BRANCH   5   6
ATOM      6  C   UNL     1       3.699   4.437  17.583  0.00  0.00    +0.000 C 
ATOM      7  C   UNL     1       4.163   3.187  16.825  0.00  0.00    +0.000 C 
ATOM      8  C   UNL     1       4.284   1.945  17.690  0.00  0.00    +0.000 C 
ATOM      9  C   UNL     1       3.015   1.694  18.491  0.00  0.00    +0.000 C 
ATOM     10  N   UNL     1       2.439   2.881  19.111  0.00  0.00    +0.000 N 
ATOM     11  C   UNL     1       2.464   4.121  18.476  0.00  0.00    +0.000 C 
ATOM     12  O   UNL     1       1.615   4.981  18.723  0.00  0.00    +0.000 OA
BRANCH  10  13
ATOM     13  C   UNL     1       1.391   2.675  20.129  0.00  0.00    +0.000 C 
BRANCH  13  14
ATOM     14  C   UNL     1       1.780   2.862  21.602  0.00  0.00    +0.000 C 
ATOM     15  F   UNL     1       2.890   2.173  21.947  0.00  0.00    +0.000 F 
ATOM     16  F   UNL     1       2.042   4.173  21.843  0.00  0.00    +0.000 F 
ATOM     17  F   UNL     1       0.783   2.500  22.438  0.00  0.00    +0.000 F 
ENDBRANCH  13  14
ENDBRANCH  10  13
ENDBRANCH   5   6
BRANCH   1  19
ATOM     18  O   UNL     1       3.743   7.781  16.254  0.00  0.00    +0.000 OA
ATOM     19  C   UNL     1       3.749   7.436  17.437  0.00  0.00    +0.000 C 
ATOM     20  N   UNL     1       2.775   7.826  18.334  0.00  0.00    +0.000 N 
ATOM     21  H   UNL     1       2.788   7.442  19.274  0.00  0.00    +0.000 HD
BRANCH  20  22
ATOM     22  C   UNL     1       1.782   8.787  17.960  0.00  0.00    +0.000 C 
ATOM     23  C   UNL     1       1.083   9.588  19.018  0.00  0.00    +0.000 C 
ATOM     24  C   UNL     1       2.003  10.268  18.048  0.00  0.00    +0.000 C 
ENDBRANCH  20  22
ENDBRANCH   1  19
TORSDOF 5
ENDMDL
MODEL 3
REMARK VINA RESULT:      -6.7      4.021      6.392
REMARK  Name = 
REMARK  5 active torsions:
REMARK  status: ('A' for Active; 'I' for Inactive)
REMARK    1  A    between atoms: C_2  and  C_7
REMARK    2  A    between atoms: N_3  and  C_4
REMARK    3  A    between atoms: N_11  and  C_12
REMARK    4  A    between atoms: N_16  and  C_17
REMARK    5  A    between atoms: C_17  and  C_18
REMARK                            x       y       z     vdW  Elec       q    Type
REMARK                         _______ _______ _______ _____ _____    ______ ____
ROOT
ATOM      1  C   UNL     1       5.661   6.140  17.366  0.00  0.00    +0.000 C 
ATOM      2  C   UNL     1       6.760   5.245  17.912  0.00  0.00    +0.000 C 
ATOM      3  C   UNL     1       6.319   4.952  19.333  0.00  0.00    +0.000 C 
ATOM      4  C   UNL     1       4.838   5.319  19.386  0.00  0.00    +0.000 C 
ATOM      5  N   UNL     1       4.419   5.671  18.023  0.00  0.00    +0.000 NA
ENDROOT
BRANCH   5   6
ATOM      6  C   UNL     1       3.553   4.688  17.323  0.00  0.00    +0.000 C 
ATOM      7  C   UNL     1       4.150   3.412  16.716  0.00  0.00    +0.000 C 
ATOM      8  C   UNL     1       4.404   2.305  17.723  0.00  0.00    +0.000 C 
ATOM      9  C   UNL     1       3.169   2.018  18.564  0.00  0.00    +0.000 C 
ATOM     10  N   UNL     1       2.468   3.203  19.044  0.00  0.00    +0.000 N 
ATOM     11  C   UNL     1       2.360   4.353  18.263  0.00  0.00    +0.000 C 
ATOM     12  O   UNL     1       1.422   5.141  18.416  0.00  0.00    +0.000 OA
BRANCH  10  13
ATOM     13  C   UNL     1       1.448   3.012  20.093  0.00  0.00    +0.000 C 
BRANCH  13  14
ATOM     14  C   UNL     1       1.918   3.017  21.555  0.00  0.00    +0.000 C 
ATOM     15  F   UNL     1       3.026   2.272  21.756  0.00  0.00    +0.000 F 
ATOM     16  F   UNL     1       2.223   4.286  21.932  0.00  0.00    +0.000 F 
ATOM     17  F   UNL     1       0.956   2.578  22.396  0.00  0.00    +0.000 F 
ENDBRANCH  13  14
ENDBRANCH  10  13
ENDBRANCH   5   6
BRANCH   1  19
ATOM     18  O   UNL     1       4.956   7.042  15.235  0.00  0.00    +0.000 OA
ATOM     19  C   UNL     1       5.659   6.232  15.841  0.00  0.00    +0.000 C 
ATOM     20  N   UNL     1       6.412   5.269  15.200  0.00  0.00    +0.000 N 
ATOM     21  H   UNL     1       7.034   4.684  15.747  0.00  0.00    +0.000 HD
BRANCH  20  22
ATOM     22  C   UNL     1       6.290   5.070  13.787  0.00  0.00    +0.000 C 
ATOM     23  C   UNL     1       7.477   4.611  12.993  0.00  0.00    +0.000 C 
ATOM     24  C   UNL     1       6.286   3.712  13.150  0.00  0.00    +0.000 C 
ENDBRANCH  20  22
ENDBRANCH   1  19
TORSDOF 5
ENDMDL
MODEL 4
REMARK VINA RESULT:      -6.7      3.742      6.551
REMARK  Name = 
REMARK  5 active torsions:
REMARK  status: ('A' for Active; 'I' for Inactive)
REMARK    1  A    between atoms: C_2  and  C_7
REMARK    2  A    between atoms: N_3  and  C_4
REMARK    3  A    between atoms: N_11  and  C_12
REMARK    4  A    between atoms: N_16  and  C_17
REMARK    5  A    between atoms: C_17  and  C_18
REMARK                            x       y       z     vdW  Elec       q    Type
REMARK                         _______ _______ _______ _____ _____    ______ ____
ROOT
ATOM      1  C   UNL     1       5.671   6.024  15.615  0.00  0.00    +0.000 C 
ATOM      2  C   UNL     1       6.540   6.889  16.511  0.00  0.00    +0.000 C 
ATOM      3  C   UNL     1       5.549   7.566  17.438  0.00  0.00    +0.000 C 
ATOM      4  C   UNL     1       4.260   6.757  17.319  0.00  0.00    +0.000 C 
ATOM      5  N   UNL     1       4.544   5.591  16.473  0.00  0.00    +0.000 NA
ENDROOT
BRANCH   5   6
ATOM      6  C   UNL     1       4.618   4.277  17.161  0.00  0.00    +0.000 C 
ATOM      7  C   UNL     1       5.652   4.031  18.267  0.00  0.00    +0.000 C 
ATOM      8  C   UNL     1       5.258   4.594  19.622  0.00  0.00    +0.000 C 
ATOM      9  C   UNL     1       3.862   4.148  20.030  0.00  0.00    +0.000 C 
ATOM     10  N   UNL     1       2.865   4.215  18.968  0.00  0.00    +0.000 N 
ATOM     11  C   UNL     1       3.185   3.913  17.646  0.00  0.00    +0.000 C 
ATOM     12  O   UNL     1       2.326   3.505  16.859  0.00  0.00    +0.000 OA
BRANCH  10  13
ATOM     13  C   UNL     1       1.448   4.082  19.358  0.00  0.00    +0.000 C 
BRANCH  13  14
ATOM     14  C   UNL     1       0.983   2.728  19.911  0.00  0.00    +0.000 C 
ATOM     15  F   UNL     1       0.722   2.760  21.236  0.00  0.00    +0.000 F 
ATOM     16  F   UNL     1      -0.167   2.351  19.293  0.00  0.00    +0.000 F 
ATOM     17  F   UNL     1       1.889   1.752  19.684  0.00  0.00    +0.000 F 
ENDBRANCH  13  14
ENDBRANCH  10  13
ENDBRANCH   5   6
BRANCH   1  19
ATOM     18  O   UNL     1       7.673   4.813  15.003  0.00  0.00    +0.000 OA
ATOM     19  C   UNL     1       6.454   4.938  14.879  0.00  0.00    +0.000 C 
ATOM     20  N   UNL     1       5.713   4.191  13.986  0.00  0.00    +0.000 N 
ATOM     21  H   UNL     1       4.702   4.280  13.988  0.00  0.00    +0.000 HD
BRANCH  20  22
ATOM     22  C   UNL     1       6.360   3.330  13.043  0.00  0.00    +0.000 C 
ATOM     23  C   UNL     1       5.646   2.931  11.785  0.00  0.00    +0.000 C 
ATOM     24  C   UNL     1       6.864   3.805  11.713  0.00  0.00    +0.000 C 
ENDBRANCH  20  22
ENDBRANCH   1  19
TORSDOF 5
ENDMDL
MODEL 5
REMARK VINA RESULT:      -6.7      1.361      1.721
REMARK  Name = 
REMARK  5 active torsions:
REMARK  status: ('A' for Active; 'I' for Inactive)
REMARK    1  A    between atoms: C_2  and  C_7
REMARK    2  A    between atoms: N_3  and  C_4
REMARK    3  A    between atoms: N_11  and  C_12
REMARK    4  A    between atoms: N_16  and  C_17
REMARK    5  A    between atoms: C_17  and  C_18
REMARK                            x       y       z     vdW  Elec       q    Type
REMARK                         _______ _______ _______ _____ _____    ______ ____
ROOT
ATOM      1  C   UNL     1       2.553   5.280  19.048  0.00  0.00    +0.000 C 
ATOM      2  C   UNL     1       2.720   4.568  20.380  0.00  0.00    +0.000 C 
ATOM      3  C   UNL     1       3.453   3.290  20.021  0.00  0.00    +0.000 C 
ATOM      4  C   UNL     1       4.032   3.528  18.629  0.00  0.00    +0.000 C 
ATOM      5  N   UNL     1       3.761   4.925  18.267  0.00  0.00    +0.000 NA
ENDROOT
BRANCH   5   6
ATOM      6  C   UNL     1       4.926   5.847  18.273  0.00  0.00    +0.000 C 
ATOM      7  C   UNL     1       6.122   5.591  19.198  0.00  0.00    +0.000 C 
ATOM      8  C   UNL     1       7.093   4.543  18.683  0.00  0.00    +0.000 C 
ATOM      9  C   UNL     1       7.524   4.833  17.253  0.00  0.00    +0.000 C 
ATOM     10  N   UNL     1       6.445   5.233  16.359  0.00  0.00    +0.000 N 
ATOM     11  C   UNL     1       5.390   6.032  16.799  0.00  0.00    +0.000 C 
ATOM     12  O   UNL     1       4.765   6.751  16.015  0.00  0.00    +0.000 OA
BRANCH  10  13
ATOM     13  C   UNL     1       6.731   5.246  14.911  0.00  0.00    +0.000 C 
BRANCH  13  14
ATOM     14  C   UNL     1       6.158   4.103  14.061  0.00  0.00    +0.000 C 
ATOM     15  F   UNL     1       6.090   2.930  14.728  0.00  0.00    +0.000 F 
ATOM     16  F   UNL     1       4.891   4.411  13.677  0.00  0.00    +0.000 F 
ATOM     17  F   UNL     1       6.873   3.906  12.933  0.00  0.00    +0.000 F 
ENDBRANCH  13  14
ENDBRANCH  10  13
ENDBRANCH   5   6
BRANCH   1  19
ATOM     18  O   UNL     1       2.395   7.567  18.276  0.00  0.00    +0.000 OA
ATOM     19  C   UNL     1       2.219   6.763  19.193  0.00  0.00    +0.000 C 
ATOM     20  N   UNL     1       1.816   7.147  20.456  0.00  0.00    +0.000 N 
ATOM     21  H   UNL     1       1.607   6.433  21.146  0.00  0.00    +0.000 HD
BRANCH  20  22
ATOM     22  C   UNL     1       1.730   8.533  20.803  0.00  0.00    +0.000 C 
ATOM     23  C   UNL     1       0.389   9.200  20.886  0.00  0.00    +0.000 C 
ATOM     24  C   UNL     1       1.212   9.014  22.126  0.00  0.00    +0.000 C 
ENDBRANCH  20  22
ENDBRANCH   1  19
TORSDOF 5
ENDMDL
MODEL 6
REMARK VINA RESULT:      -6.6      3.815      6.486
REMARK  Name = 
REMARK  5 active torsions:
REMARK  status: ('A' for Active; 'I' for Inactive)
REMARK    1  A    between atoms: C_2  and  C_7
REMARK    2  A    between atoms: N_3  and  C_4
REMARK    3  A    between atoms: N_11  and  C_12
REMARK    4  A    between atoms: N_16  and  C_17
REMARK    5  A    between atoms: C_17  and  C_18
REMARK                            x       y       z     vdW  Elec       q    Type
REMARK                         _______ _______ _______ _____ _____    ______ ____
ROOT
ATOM      1  C   UNL     1       6.436   5.824  16.848  0.00  0.00    +0.000 C 
ATOM      2  C   UNL     1       7.342   4.665  17.226  0.00  0.00    +0.000 C 
ATOM      3  C   UNL     1       7.227   4.590  18.736  0.00  0.00    +0.000 C 
ATOM      4  C   UNL     1       5.979   5.393  19.092  0.00  0.00    +0.000 C 
ATOM      5  N   UNL     1       5.332   5.789  17.834  0.00  0.00    +0.000 NA
ENDROOT
BRANCH   5   6
ATOM      6  C   UNL     1       4.071   5.084  17.489  0.00  0.00    +0.000 C 
ATOM      7  C   UNL     1       4.101   3.768  16.701  0.00  0.00    +0.000 C 
ATOM      8  C   UNL     1       4.424   2.546  17.543  0.00  0.00    +0.000 C 
ATOM      9  C   UNL     1       3.531   2.461  18.772  0.00  0.00    +0.000 C 
ATOM     10  N   UNL     1       3.341   3.722  19.478  0.00  0.00    +0.000 N 
ATOM     11  C   UNL     1       3.239   4.933  18.795  0.00  0.00    +0.000 C 
ATOM     12  O   UNL     1       2.627   5.888  19.280  0.00  0.00    +0.000 OA
BRANCH  10  13
ATOM     13  C   UNL     1       2.738   3.663  20.824  0.00  0.00    +0.000 C 
BRANCH  13  14
ATOM     14  C   UNL     1       1.271   3.225  20.930  0.00  0.00    +0.000 C 
ATOM     15  F   UNL     1       0.962   2.699  22.136  0.00  0.00    +0.000 F 
ATOM     16  F   UNL     1       0.459   4.300  20.751  0.00  0.00    +0.000 F 
ATOM     17  F   UNL     1       0.943   2.323  19.980  0.00  0.00    +0.000 F 
ENDBRANCH  13  14
ENDBRANCH  10  13
ENDBRANCH   5   6
BRANCH   1  19
ATOM     18  O   UNL     1       5.277   6.667  14.898  0.00  0.00    +0.000 OA
ATOM     19  C   UNL     1       6.058   5.837  15.367  0.00  0.00    +0.000 C 
ATOM     20  N   UNL     1       6.564   4.787  14.629  0.00  0.00    +0.000 N 
ATOM     21  H   UNL     1       7.267   4.184  15.046  0.00  0.00    +0.000 HD
BRANCH  20  22
ATOM     22  C   UNL     1       6.080   4.525  13.308  0.00  0.00    +0.000 C 
ATOM     23  C   UNL     1       7.052   4.271  12.193  0.00  0.00    +0.000 C 
ATOM     24  C   UNL     1       6.147   3.171  12.665  0.00  0.00    +0.000 C 
ENDBRANCH  20  22
ENDBRANCH   1  19
TORSDOF 5
ENDMDL
MODEL 7
REMARK VINA RESULT:      -6.6      1.193      1.367
REMARK  Name = 
REMARK  5 active torsions:
REMARK  status: ('A' for Active; 'I' for Inactive)
REMARK    1  A    between atoms: C_2  and  C_7
REMARK    2  A    between atoms: N_3  and  C_4
REMARK    3  A    between atoms: N_11  and  C_12
REMARK    4  A    between atoms: N_16  and  C_17
REMARK    5  A    between atoms: C_17  and  C_18
REMARK                            x       y       z     vdW  Elec       q    Type
REMARK                         _______ _______ _______ _____ _____    ______ ____
ROOT
ATOM      1  C   UNL     1       2.402   5.649  18.322  0.00  0.00    +0.000 C 
ATOM      2  C   UNL     1       2.499   4.708  19.511  0.00  0.00    +0.000 C 
ATOM      3  C   UNL     1       3.074   3.435  18.922  0.00  0.00    +0.000 C 
ATOM      4  C   UNL     1       3.661   3.836  17.572  0.00  0.00    +0.000 C 
ATOM      5  N   UNL     1       3.552   5.296  17.457  0.00  0.00    +0.000 NA
ENDROOT
BRANCH   5   6
ATOM      6  C   UNL     1       4.816   6.066  17.580  0.00  0.00    +0.000 C 
ATOM      7  C   UNL     1       5.839   5.720  18.670  0.00  0.00    +0.000 C 
ATOM      8  C   UNL     1       6.724   4.532  18.336  0.00  0.00    +0.000 C 
ATOM      9  C   UNL     1       7.370   4.680  16.967  0.00  0.00    +0.000 C 
ATOM     10  N   UNL     1       6.476   5.156  15.918  0.00  0.00    +0.000 N 
ATOM     11  C   UNL     1       5.487   6.104  16.177  0.00  0.00    +0.000 C 
ATOM     12  O   UNL     1       5.067   6.847  15.285  0.00  0.00    +0.000 OA
BRANCH  10  13
ATOM     13  C   UNL     1       6.945   5.047  14.523  0.00  0.00    +0.000 C 
BRANCH  13  14
ATOM     14  C   UNL     1       6.259   4.014  13.618  0.00  0.00    +0.000 C 
ATOM     15  F   UNL     1       6.890   3.845  12.436  0.00  0.00    +0.000 F 
ATOM     16  F   UNL     1       6.247   2.802  14.234  0.00  0.00    +0.000 F 
ATOM     17  F   UNL     1       4.972   4.339  13.367  0.00  0.00    +0.000 F 
ENDBRANCH  13  14
ENDBRANCH  10  13
ENDBRANCH   5   6
BRANCH   1  19
ATOM     18  O   UNL     1       2.666   8.034  18.019  0.00  0.00    +0.000 OA
ATOM     19  C   UNL     1       2.245   7.114  18.722  0.00  0.00    +0.000 C 
ATOM     20  N   UNL     1       1.703   7.320  19.975  0.00  0.00    +0.000 N 
ATOM     21  H   UNL     1       1.298   6.533  20.472  0.00  0.00    +0.000 HD
BRANCH  20  22
ATOM     22  C   UNL     1       1.745   8.615  20.584  0.00  0.00    +0.000 C 
ATOM     23  C   UNL     1       0.475   9.389  20.779  0.00  0.00    +0.000 C 
ATOM     24  C   UNL     1       1.237   8.885  21.968  0.00  0.00    +0.000 C 
ENDBRANCH  20  22
ENDBRANCH   1  19
TORSDOF 5
ENDMDL
MODEL 8
REMARK VINA RESULT:      -6.6      1.183      1.315
REMARK  Name = 
REMARK  5 active torsions:
REMARK  status: ('A' for Active; 'I' for Inactive)
REMARK    1  A    between atoms: C_2  and  C_7
REMARK    2  A    between atoms: N_3  and  C_4
REMARK    3  A    between atoms: N_11  and  C_12
REMARK    4  A    between atoms: N_16  and  C_17
REMARK    5  A    between atoms: C_17  and  C_18
REMARK                            x       y       z     vdW  Elec       q    Type
REMARK                         _______ _______ _______ _____ _____    ______ ____
ROOT
ATOM      1  C   UNL     1       2.268   4.975  18.773  0.00  0.00    +0.000 C 
ATOM      2  C   UNL     1       2.612   3.541  19.136  0.00  0.00    +0.000 C 
ATOM      3  C   UNL     1       3.036   2.923  17.818  0.00  0.00    +0.000 C 
ATOM      4  C   UNL     1       3.321   4.099  16.887  0.00  0.00    +0.000 C 
ATOM      5  N   UNL     1       3.201   5.331  17.679  0.00  0.00    +0.000 NA
ENDROOT
BRANCH   5   6
ATOM      6  C   UNL     1       4.468   6.034  18.004  0.00  0.00    +0.000 C 
ATOM      7  C   UNL     1       5.356   5.552  19.158  0.00  0.00    +0.000 C 
ATOM      8  C   UNL     1       6.234   4.362  18.813  0.00  0.00    +0.000 C 
ATOM      9  C   UNL     1       7.028   4.603  17.538  0.00  0.00    +0.000 C 
ATOM     10  N   UNL     1       6.269   5.205  16.449  0.00  0.00    +0.000 N 
ATOM     11  C   UNL     1       5.287   6.166  16.688  0.00  0.00    +0.000 C 
ATOM     12  O   UNL     1       4.990   7.001  15.829  0.00  0.00    +0.000 OA
BRANCH  10  13
ATOM     13  C   UNL     1       6.882   5.198  15.107  0.00  0.00    +0.000 C 
BRANCH  13  14
ATOM     14  C   UNL     1       6.292   4.246  14.057  0.00  0.00    +0.000 C 
ATOM     15  F   UNL     1       7.009   4.212  12.913  0.00  0.00    +0.000 F 
ATOM     16  F   UNL     1       6.274   2.979  14.548  0.00  0.00    +0.000 F 
ATOM     17  F   UNL     1       5.017   4.565  13.746  0.00  0.00    +0.000 F 
ENDBRANCH  13  14
ENDBRANCH  10  13
ENDBRANCH   5   6
BRANCH   1  19
ATOM     18  O   UNL     1       2.299   5.489  21.137  0.00  0.00    +0.000 OA
ATOM     19  C   UNL     1       2.213   5.908  19.982  0.00  0.00    +0.000 C 
ATOM     20  N   UNL     1       1.947   7.229  19.685  0.00  0.00    +0.000 N 
ATOM     21  H   UNL     1       1.970   7.532  18.716  0.00  0.00    +0.000 HD
BRANCH  20  22
ATOM     22  C   UNL     1       1.605   8.155  20.722  0.00  0.00    +0.000 C 
ATOM     23  C   UNL     1       0.805   9.381  20.394  0.00  0.00    +0.000 C 
ATOM     24  C   UNL     1       0.212   8.306  21.256  0.00  0.00    +0.000 C 
ENDBRANCH  20  22
ENDBRANCH   1  19
TORSDOF 5
ENDMDL
MODEL 9
REMARK VINA RESULT:      -6.5      3.827      6.462
REMARK  Name = 
REMARK  5 active torsions:
REMARK  status: ('A' for Active; 'I' for Inactive)
REMARK    1  A    between atoms: C_2  and  C_7
REMARK    2  A    between atoms: N_3  and  C_4
REMARK    3  A    between atoms: N_11  and  C_12
REMARK    4  A    between atoms: N_16  and  C_17
REMARK    5  A    between atoms: C_17  and  C_18
REMARK                            x       y       z     vdW  Elec       q    Type
REMARK                         _______ _______ _______ _____ _____    ______ ____
ROOT
ATOM      1  C   UNL     1       4.965   5.784  15.728  0.00  0.00    +0.000 C 
ATOM      2  C   UNL     1       5.303   7.009  16.560  0.00  0.00    +0.000 C 
ATOM      3  C   UNL     1       4.116   7.154  17.493  0.00  0.00    +0.000 C 
ATOM      4  C   UNL     1       3.394   5.810  17.450  0.00  0.00    +0.000 C 
ATOM      5  N   UNL     1       4.209   4.895  16.640  0.00  0.00    +0.000 NA
ENDROOT
BRANCH   5   6
ATOM      6  C   UNL     1       4.930   3.825  17.376  0.00  0.00    +0.000 C 
ATOM      7  C   UNL     1       6.007   4.177  18.410  0.00  0.00    +0.000 C 
ATOM      8  C   UNL     1       5.458   4.586  19.765  0.00  0.00    +0.000 C 
ATOM      9  C   UNL     1       4.461   3.567  20.297  0.00  0.00    +0.000 C 
ATOM     10  N   UNL     1       3.503   3.079  19.312  0.00  0.00    +0.000 N 
ATOM     11  C   UNL     1       3.866   2.867  17.983  0.00  0.00    +0.000 C 
ATOM     12  O   UNL     1       3.268   2.046  17.282  0.00  0.00    +0.000 OA
BRANCH  10  13
ATOM     13  C   UNL     1       2.338   2.323  19.814  0.00  0.00    +0.000 C 
BRANCH  13  14
ATOM     14  C   UNL     1       1.056   3.109  20.121  0.00  0.00    +0.000 C 
ATOM     15  F   UNL     1      -0.000   2.708  19.381  0.00  0.00    +0.000 F 
ATOM     16  F   UNL     1       0.713   2.933  21.424  0.00  0.00    +0.000 F 
ATOM     17  F   UNL     1       1.221   4.437  19.934  0.00  0.00    +0.000 F 
ENDBRANCH  13  14
ENDBRANCH  10  13
ENDBRANCH   5   6
BRANCH   1  19
ATOM     18  O   UNL     1       7.323   5.583  15.224  0.00  0.00    +0.000 OA
ATOM     19  C   UNL     1       6.175   5.190  15.009  0.00  0.00    +0.000 C 
ATOM     20  N   UNL     1       5.873   4.269  14.027  0.00  0.00    +0.000 N 
ATOM     21  H   UNL     1       4.922   3.922  13.952  0.00  0.00    +0.000 HD
BRANCH  20  22
ATOM     22  C   UNL     1       6.875   3.836  13.100  0.00  0.00    +0.000 C 
ATOM     23  C   UNL     1       6.470   3.134  11.838  0.00  0.00    +0.000 C 
ATOM     24  C   UNL     1       7.100   4.494  11.772  0.00  0.00    +0.000 C 
ENDBRANCH  20  22
ENDBRANCH   1  19
TORSDOF 5
ENDMDL
