MODEL 1
REMARK VINA RESULT:      -8.4      0.000      0.000
REMARK  Name = 
REMARK  4 active torsions:
REMARK  status: ('A' for Active; 'I' for Inactive)
REMARK    1  A    between atoms: C_1  and  C_2
REMARK    2  A    between atoms: C_9  and  O_10
REMARK    3  A    between atoms: C_19  and  C_20
REMARK    4  A    between atoms: C_20  and  O_21
REMARK                            x       y       z     vdW  Elec       q    Type
REMARK                         _______ _______ _______ _____ _____    ______ ____
ROOT
ATOM      1  C   UNL     1       0.932   3.244  19.204  0.00  0.00    +0.000 C 
ATOM      2  C   UNL     1       2.415   3.603  19.536  0.00  0.00    +0.000 C 
ATOM      3  C   UNL     1       2.470   4.197  20.941  0.00  0.00    +0.000 C 
ATOM      4  C   UNL     1       1.763   5.543  20.985  0.00  0.00    +0.000 C 
ATOM      5  C   UNL     1       2.317   6.524  19.939  0.00  0.00    +0.000 C 
ATOM      6  C   UNL     1       1.612   7.868  19.918  0.00  0.00    +0.000 A 
ATOM      7  C   UNL     1       0.769   8.278  20.962  0.00  0.00    +0.000 A 
ATOM      8  C   UNL     1       0.151   9.525  20.944  0.00  0.00    +0.000 A 
ATOM      9  C   UNL     1       0.398  10.383  19.885  0.00  0.00    +0.000 A 
ATOM     10  C   UNL     1       1.238  10.008  18.845  0.00  0.00    +0.000 A 
ATOM     11  C   UNL     1       1.849   8.742  18.839  0.00  0.00    +0.000 A 
ATOM     12  C   UNL     1       2.703   8.347  17.656  0.00  0.00    +0.000 C 
ATOM     13  C   UNL     1       3.313   6.941  17.711  0.00  0.00    +0.000 C 
ATOM     14  C   UNL     1       2.416   5.950  18.483  0.00  0.00    +0.000 C 
ATOM     15  C   UNL     1       3.038   4.551  18.497  0.00  0.00    +0.000 C 
ATOM     16  C   UNL     1       3.093   3.642  17.243  0.00  0.00    +0.000 C 
ATOM     17  C   UNL     1       3.549   2.351  17.911  0.00  0.00    +0.000 C 
ATOM     18  C   UNL     1       3.379   2.462  19.248  0.00  0.00    +0.000 C 
ENDROOT
BRANCH   9  19
ATOM     19  O   UNL     1      -0.188  11.619  19.830  0.00  0.00    +0.000 OA
ATOM     20  H   UNL     1      -0.501  11.839  20.721  0.00  0.00    +0.000 HD
ENDBRANCH   9  19
BRANCH  18  21
ATOM     21  C   UNL     1       4.468   2.126  20.238  0.00  0.00    +0.000 C 
BRANCH  21  22
ATOM     22  O   UNL     1       5.215   0.986  19.860  0.00  0.00    +0.000 OA
ATOM     23  H   UNL     1       4.568   0.330  19.567  0.00  0.00    +0.000 HD
ENDBRANCH  21  22
ENDBRANCH  18  21
TORSDOF 3
ENDMDL
MODEL 2
REMARK VINA RESULT:      -7.3      2.776      4.226
REMARK  Name = 
REMARK  4 active torsions:
REMARK  status: ('A' for Active; 'I' for Inactive)
REMARK    1  A    between atoms: C_1  and  C_2
REMARK    2  A    between atoms: C_9  and  O_10
REMARK    3  A    between atoms: C_19  and  C_20
REMARK    4  A    between atoms: C_20  and  O_21
REMARK                            x       y       z     vdW  Elec       q    Type
REMARK                         _______ _______ _______ _____ _____    ______ ____
ROOT
ATOM      1  C   UNL     1       6.896   7.340  17.411  0.00  0.00    +0.000 C 
ATOM      2  C   UNL     1       5.991   6.261  16.734  0.00  0.00    +0.000 C 
ATOM      3  C   UNL     1       4.876   6.970  15.969  0.00  0.00    +0.000 C 
ATOM      4  C   UNL     1       3.928   7.675  16.928  0.00  0.00    +0.000 C 
ATOM      5  C   UNL     1       3.360   6.719  17.989  0.00  0.00    +0.000 C 
ATOM      6  C   UNL     1       2.441   7.387  18.995  0.00  0.00    +0.000 A 
ATOM      7  C   UNL     1       1.913   8.669  18.777  0.00  0.00    +0.000 A 
ATOM      8  C   UNL     1       1.049   9.260  19.694  0.00  0.00    +0.000 A 
ATOM      9  C   UNL     1       0.685   8.553  20.829  0.00  0.00    +0.000 A 
ATOM     10  C   UNL     1       1.183   7.278  21.063  0.00  0.00    +0.000 A 
ATOM     11  C   UNL     1       2.076   6.680  20.157  0.00  0.00    +0.000 A 
ATOM     12  C   UNL     1       2.646   5.318  20.482  0.00  0.00    +0.000 C 
ATOM     13  C   UNL     1       3.634   4.745  19.458  0.00  0.00    +0.000 C 
ATOM     14  C   UNL     1       4.432   5.853  18.738  0.00  0.00    +0.000 C 
ATOM     15  C   UNL     1       5.426   5.248  17.744  0.00  0.00    +0.000 C 
ATOM     16  C   UNL     1       6.712   4.504  18.187  0.00  0.00    +0.000 C 
ATOM     17  C   UNL     1       7.391   4.384  16.828  0.00  0.00    +0.000 C 
ATOM     18  C   UNL     1       6.787   5.224  15.957  0.00  0.00    +0.000 C 
ENDROOT
BRANCH   9  19
ATOM     19  O   UNL     1      -0.164   9.096  21.754  0.00  0.00    +0.000 OA
ATOM     20  H   UNL     1      -1.017   9.251  21.319  0.00  0.00    +0.000 HD
ENDBRANCH   9  19
BRANCH  18  21
ATOM     21  C   UNL     1       6.320   4.782  14.591  0.00  0.00    +0.000 C 
BRANCH  21  22
ATOM     22  O   UNL     1       6.358   3.377  14.431  0.00  0.00    +0.000 OA
ATOM     23  H   UNL     1       5.454   3.069  14.573  0.00  0.00    +0.000 HD
ENDBRANCH  21  22
ENDBRANCH  18  21
TORSDOF 3
ENDMDL
MODEL 3
REMARK VINA RESULT:      -7.2      3.941      6.156
REMARK  Name = 
REMARK  4 active torsions:
REMARK  status: ('A' for Active; 'I' for Inactive)
REMARK    1  A    between atoms: C_1  and  C_2
REMARK    2  A    between atoms: C_9  and  O_10
REMARK    3  A    between atoms: C_19  and  C_20
REMARK    4  A    between atoms: C_20  and  O_21
REMARK                            x       y       z     vdW  Elec       q    Type
REMARK                         _______ _______ _______ _____ _____    ______ ____
ROOT
ATOM      1  C   UNL     1       3.002   1.328  18.490  0.00  0.00    +0.000 C 
ATOM      2  C   UNL     1       2.662   2.776  18.966  0.00  0.00    +0.000 C 
ATOM      3  C   UNL     1       2.044   3.541  17.798  0.00  0.00    +0.000 C 
ATOM      4  C   UNL     1       3.068   3.762  16.696  0.00  0.00    +0.000 C 
ATOM      5  C   UNL     1       4.336   4.460  17.215  0.00  0.00    +0.000 C 
ATOM      6  C   UNL     1       5.406   4.665  16.158  0.00  0.00    +0.000 A 
ATOM      7  C   UNL     1       5.129   4.527  14.789  0.00  0.00    +0.000 A 
ATOM      8  C   UNL     1       6.112   4.745  13.828  0.00  0.00    +0.000 A 
ATOM      9  C   UNL     1       7.378   5.131  14.236  0.00  0.00    +0.000 A 
ATOM     10  C   UNL     1       7.676   5.287  15.583  0.00  0.00    +0.000 A 
ATOM     11  C   UNL     1       6.699   5.047  16.565  0.00  0.00    +0.000 A 
ATOM     12  C   UNL     1       7.082   5.164  18.023  0.00  0.00    +0.000 C 
ATOM     13  C   UNL     1       5.968   4.859  19.033  0.00  0.00    +0.000 C 
ATOM     14  C   UNL     1       4.968   3.813  18.496  0.00  0.00    +0.000 C 
ATOM     15  C   UNL     1       3.887   3.511  19.536  0.00  0.00    +0.000 C 
ATOM     16  C   UNL     1       4.163   2.697  20.826  0.00  0.00    +0.000 C 
ATOM     17  C   UNL     1       2.726   2.505  21.294  0.00  0.00    +0.000 C 
ATOM     18  C   UNL     1       1.887   2.803  20.275  0.00  0.00    +0.000 C 
ENDROOT
BRANCH   9  19
ATOM     19  O   UNL     1       8.372   5.358  13.324  0.00  0.00    +0.000 OA
ATOM     20  H   UNL     1       8.441   6.317  13.192  0.00  0.00    +0.000 HD
ENDBRANCH   9  19
BRANCH  18  21
ATOM     21  C   UNL     1       0.708   3.733  20.436  0.00  0.00    +0.000 C 
BRANCH  21  22
ATOM     22  O   UNL     1       1.092   5.037  20.825  0.00  0.00    +0.000 OA
ATOM     23  H   UNL     1       0.490   5.638  20.367  0.00  0.00    +0.000 HD
ENDBRANCH  21  22
ENDBRANCH  18  21
TORSDOF 3
ENDMDL
MODEL 4
REMARK VINA RESULT:      -6.8      9.629     11.729
REMARK  Name = 
REMARK  4 active torsions:
REMARK  status: ('A' for Active; 'I' for Inactive)
REMARK    1  A    between atoms: C_1  and  C_2
REMARK    2  A    between atoms: C_9  and  O_10
REMARK    3  A    between atoms: C_19  and  C_20
REMARK    4  A    between atoms: C_20  and  O_21
REMARK                            x       y       z     vdW  Elec       q    Type
REMARK                         _______ _______ _______ _____ _____    ______ ____
ROOT
ATOM      1  C   UNL     1       7.063  14.856  22.222  0.00  0.00    +0.000 C 
ATOM      2  C   UNL     1       8.167  14.122  23.048  0.00  0.00    +0.000 C 
ATOM      3  C   UNL     1       9.460  14.928  22.959  0.00  0.00    +0.000 C 
ATOM      4  C   UNL     1      10.010  14.911  21.541  0.00  0.00    +0.000 C 
ATOM      5  C   UNL     1      10.203  13.480  21.011  0.00  0.00    +0.000 C 
ATOM      6  C   UNL     1      10.711  13.414  19.582  0.00  0.00    +0.000 A 
ATOM      7  C   UNL     1      11.254  14.535  18.937  0.00  0.00    +0.000 A 
ATOM      8  C   UNL     1      11.742  14.454  17.636  0.00  0.00    +0.000 A 
ATOM      9  C   UNL     1      11.712  13.234  16.981  0.00  0.00    +0.000 A 
ATOM     10  C   UNL     1      11.192  12.106  17.600  0.00  0.00    +0.000 A 
ATOM     11  C   UNL     1      10.674  12.179  18.905  0.00  0.00    +0.000 A 
ATOM     12  C   UNL     1      10.056  10.943  19.519  0.00  0.00    +0.000 C 
ATOM     13  C   UNL     1       9.488  11.112  20.934  0.00  0.00    +0.000 C 
ATOM     14  C   UNL     1       8.959  12.540  21.180  0.00  0.00    +0.000 C 
ATOM     15  C   UNL     1       8.376  12.668  22.589  0.00  0.00    +0.000 C 
ATOM     16  C   UNL     1       7.032  12.017  23.006  0.00  0.00    +0.000 C 
ATOM     17  C   UNL     1       6.858  12.689  24.363  0.00  0.00    +0.000 C 
ATOM     18  C   UNL     1       7.706  13.740  24.446  0.00  0.00    +0.000 C 
ENDROOT
BRANCH   9  19
ATOM     19  O   UNL     1      12.184  13.110  15.702  0.00  0.00    +0.000 OA
ATOM     20  H   UNL     1      12.290  14.002  15.337  0.00  0.00    +0.000 HD
ENDBRANCH   9  19
BRANCH  18  21
ATOM     21  C   UNL     1       8.619  13.958  25.629  0.00  0.00    +0.000 C 
BRANCH  21  22
ATOM     22  O   UNL     1       8.795  12.789  26.404  0.00  0.00    +0.000 OA
ATOM     23  H   UNL     1       8.965  13.091  27.306  0.00  0.00    +0.000 HD
ENDBRANCH  21  22
ENDBRANCH  18  21
TORSDOF 3
ENDMDL
MODEL 5
REMARK VINA RESULT:      -6.8      3.446      5.920
REMARK  Name = 
REMARK  4 active torsions:
REMARK  status: ('A' for Active; 'I' for Inactive)
REMARK    1  A    between atoms: C_1  and  C_2
REMARK    2  A    between atoms: C_9  and  O_10
REMARK    3  A    between atoms: C_19  and  C_20
REMARK    4  A    between atoms: C_20  and  O_21
REMARK                            x       y       z     vdW  Elec       q    Type
REMARK                         _______ _______ _______ _____ _____    ______ ____
ROOT
ATOM      1  C   UNL     1       4.349   2.299  20.312  0.00  0.00    +0.000 C 
ATOM      2  C   UNL     1       3.028   2.737  19.603  0.00  0.00    +0.000 C 
ATOM      3  C   UNL     1       2.895   1.959  18.297  0.00  0.00    +0.000 C 
ATOM      4  C   UNL     1       3.978   2.369  17.311  0.00  0.00    +0.000 C 
ATOM      5  C   UNL     1       3.989   3.886  17.061  0.00  0.00    +0.000 C 
ATOM      6  C   UNL     1       5.082   4.349  16.115  0.00  0.00    +0.000 A 
ATOM      7  C   UNL     1       5.790   3.447  15.305  0.00  0.00    +0.000 A 
ATOM      8  C   UNL     1       6.770   3.887  14.422  0.00  0.00    +0.000 A 
ATOM      9  C   UNL     1       7.029   5.245  14.324  0.00  0.00    +0.000 A 
ATOM     10  C   UNL     1       6.334   6.159  15.104  0.00  0.00    +0.000 A 
ATOM     11  C   UNL     1       5.358   5.726  16.018  0.00  0.00    +0.000 A 
ATOM     12  C   UNL     1       4.672   6.749  16.896  0.00  0.00    +0.000 C 
ATOM     13  C   UNL     1       3.640   6.194  17.886  0.00  0.00    +0.000 C 
ATOM     14  C   UNL     1       3.997   4.768  18.358  0.00  0.00    +0.000 C 
ATOM     15  C   UNL     1       2.964   4.255  19.364  0.00  0.00    +0.000 C 
ATOM     16  C   UNL     1       2.864   4.792  20.815  0.00  0.00    +0.000 C 
ATOM     17  C   UNL     1       1.892   3.762  21.378  0.00  0.00    +0.000 C 
ATOM     18  C   UNL     1       1.823   2.711  20.530  0.00  0.00    +0.000 C 
ENDROOT
BRANCH   9  19
ATOM     19  O   UNL     1       7.983   5.719  13.465  0.00  0.00    +0.000 OA
ATOM     20  H   UNL     1       7.562   6.376  12.888  0.00  0.00    +0.000 HD
ENDBRANCH   9  19
BRANCH  18  21
ATOM     21  C   UNL     1       0.511   2.139  20.047  0.00  0.00    +0.000 C 
BRANCH  21  22
ATOM     22  O   UNL     1      -0.210   3.042  19.232  0.00  0.00    +0.000 OA
ATOM     23  H   UNL     1       0.448   3.634  18.845  0.00  0.00    +0.000 HD
ENDBRANCH  21  22
ENDBRANCH  18  21
TORSDOF 3
ENDMDL
MODEL 6
REMARK VINA RESULT:      -6.7      1.317      2.827
REMARK  Name = 
REMARK  4 active torsions:
REMARK  status: ('A' for Active; 'I' for Inactive)
REMARK    1  A    between atoms: C_1  and  C_2
REMARK    2  A    between atoms: C_9  and  O_10
REMARK    3  A    between atoms: C_19  and  C_20
REMARK    4  A    between atoms: C_20  and  O_21
REMARK                            x       y       z     vdW  Elec       q    Type
REMARK                         _______ _______ _______ _____ _____    ______ ____
ROOT
ATOM      1  C   UNL     1       5.333   4.969  19.180  0.00  0.00    +0.000 C 
ATOM      2  C   UNL     1       3.941   4.371  18.800  0.00  0.00    +0.000 C 
ATOM      3  C   UNL     1       3.519   4.937  17.446  0.00  0.00    +0.000 C 
ATOM      4  C   UNL     1       3.247   6.430  17.547  0.00  0.00    +0.000 C 
ATOM      5  C   UNL     1       2.214   6.759  18.638  0.00  0.00    +0.000 C 
ATOM      6  C   UNL     1       1.940   8.242  18.804  0.00  0.00    +0.000 A 
ATOM      7  C   UNL     1       2.343   9.181  17.842  0.00  0.00    +0.000 A 
ATOM      8  C   UNL     1       2.062  10.535  17.993  0.00  0.00    +0.000 A 
ATOM      9  C   UNL     1       1.347  10.955  19.103  0.00  0.00    +0.000 A 
ATOM     10  C   UNL     1       0.925  10.046  20.064  0.00  0.00    +0.000 A 
ATOM     11  C   UNL     1       1.224   8.678  19.936  0.00  0.00    +0.000 A 
ATOM     12  C   UNL     1       0.805   7.731  21.037  0.00  0.00    +0.000 C 
ATOM     13  C   UNL     1       1.191   6.260  20.837  0.00  0.00    +0.000 C 
ATOM     14  C   UNL     1       2.502   6.108  20.036  0.00  0.00    +0.000 C 
ATOM     15  C   UNL     1       2.874   4.632  19.877  0.00  0.00    +0.000 C 
ATOM     16  C   UNL     1       3.401   3.766  21.050  0.00  0.00    +0.000 C 
ATOM     17  C   UNL     1       3.833   2.538  20.257  0.00  0.00    +0.000 C 
ATOM     18  C   UNL     1       3.887   2.858  18.944  0.00  0.00    +0.000 C 
ENDROOT
BRANCH   9  19
ATOM     19  O   UNL     1       1.047  12.277  19.288  0.00  0.00    +0.000 OA
ATOM     20  H   UNL     1       0.645  12.371  20.166  0.00  0.00    +0.000 HD
ENDBRANCH   9  19
BRANCH  18  21
ATOM     21  C   UNL     1       3.229   2.021  17.874  0.00  0.00    +0.000 C 
BRANCH  21  22
ATOM     22  O   UNL     1       1.910   1.641  18.214  0.00  0.00    +0.000 OA
ATOM     23  H   UNL     1       1.355   1.917  17.473  0.00  0.00    +0.000 HD
ENDBRANCH  21  22
ENDBRANCH  18  21
TORSDOF 3
ENDMDL
MODEL 7
REMARK VINA RESULT:      -6.7      1.444      2.994
REMARK  Name = 
REMARK  4 active torsions:
REMARK  status: ('A' for Active; 'I' for Inactive)
REMARK    1  A    between atoms: C_1  and  C_2
REMARK    2  A    between atoms: C_9  and  O_10
REMARK    3  A    between atoms: C_19  and  C_20
REMARK    4  A    between atoms: C_20  and  O_21
REMARK                            x       y       z     vdW  Elec       q    Type
REMARK                         _______ _______ _______ _____ _____    ______ ____
ROOT
ATOM      1  C   UNL     1       4.391   5.130  19.474  0.00  0.00    +0.000 C 
ATOM      2  C   UNL     1       2.898   4.763  19.200  0.00  0.00    +0.000 C 
ATOM      3  C   UNL     1       2.509   5.299  17.824  0.00  0.00    +0.000 C 
ATOM      4  C   UNL     1       2.506   6.819  17.819  0.00  0.00    +0.000 C 
ATOM      5  C   UNL     1       1.607   7.402  18.921  0.00  0.00    +0.000 C 
ATOM      6  C   UNL     1       1.606   8.919  18.981  0.00  0.00    +0.000 A 
ATOM      7  C   UNL     1       2.113   9.701  17.932  0.00  0.00    +0.000 A 
ATOM      8  C   UNL     1       2.081  11.091  17.987  0.00  0.00    +0.000 A 
ATOM      9  C   UNL     1       1.511  11.708  19.089  0.00  0.00    +0.000 A 
ATOM     10  C   UNL     1       0.990  10.958  20.135  0.00  0.00    +0.000 A 
ATOM     11  C   UNL     1       1.039   9.554  20.103  0.00  0.00    +0.000 A 
ATOM     12  C   UNL     1       0.521   8.776  21.292  0.00  0.00    +0.000 C 
ATOM     13  C   UNL     1       0.634   7.250  21.192  0.00  0.00    +0.000 C 
ATOM     14  C   UNL     1       1.853   6.811  20.353  0.00  0.00    +0.000 C 
ATOM     15  C   UNL     1       1.953   5.285  20.296  0.00  0.00    +0.000 C 
ATOM     16  C   UNL     1       2.383   4.424  21.511  0.00  0.00    +0.000 C 
ATOM     17  C   UNL     1       2.551   3.086  20.801  0.00  0.00    +0.000 C 
ATOM     18  C   UNL     1       2.589   3.298  19.465  0.00  0.00    +0.000 C 
ENDROOT
BRANCH   9  19
ATOM     19  O   UNL     1       1.457  13.072  19.181  0.00  0.00    +0.000 OA
ATOM     20  H   UNL     1       0.614  13.362  18.799  0.00  0.00    +0.000 HD
ENDBRANCH   9  19
BRANCH  18  21
ATOM     21  C   UNL     1       1.738   2.517  18.493  0.00  0.00    +0.000 C 
BRANCH  21  22
ATOM     22  O   UNL     1       2.507   1.728  17.607  0.00  0.00    +0.000 OA
ATOM     23  H   UNL     1       2.223   0.816  17.748  0.00  0.00    +0.000 HD
ENDBRANCH  21  22
ENDBRANCH  18  21
TORSDOF 3
ENDMDL
MODEL 8
REMARK VINA RESULT:      -6.5      1.425      7.036
REMARK  Name = 
REMARK  4 active torsions:
REMARK  status: ('A' for Active; 'I' for Inactive)
REMARK    1  A    between atoms: C_1  and  C_2
REMARK    2  A    between atoms: C_9  and  O_10
REMARK    3  A    between atoms: C_19  and  C_20
REMARK    4  A    between atoms: C_20  and  O_21
REMARK                            x       y       z     vdW  Elec       q    Type
REMARK                         _______ _______ _______ _____ _____    ______ ____
ROOT
ATOM      1  C   UNL     1      -0.265   9.625  17.798  0.00  0.00    +0.000 C 
ATOM      2  C   UNL     1       0.851  10.063  18.800  0.00  0.00    +0.000 C 
ATOM      3  C   UNL     1       2.194  10.041  18.075  0.00  0.00    +0.000 C 
ATOM      4  C   UNL     1       2.586   8.618  17.709  0.00  0.00    +0.000 C 
ATOM      5  C   UNL     1       2.595   7.687  18.933  0.00  0.00    +0.000 C 
ATOM      6  C   UNL     1       2.941   6.245  18.610  0.00  0.00    +0.000 A 
ATOM      7  C   UNL     1       3.511   5.878  17.381  0.00  0.00    +0.000 A 
ATOM      8  C   UNL     1       3.849   4.556  17.107  0.00  0.00    +0.000 A 
ATOM      9  C   UNL     1       3.642   3.593  18.082  0.00  0.00    +0.000 A 
ATOM     10  C   UNL     1       3.092   3.931  19.311  0.00  0.00    +0.000 A 
ATOM     11  C   UNL     1       2.723   5.258  19.591  0.00  0.00    +0.000 A 
ATOM     12  C   UNL     1       2.066   5.572  20.916  0.00  0.00    +0.000 C 
ATOM     13  C   UNL     1       1.668   7.037  21.134  0.00  0.00    +0.000 C 
ATOM     14  C   UNL     1       1.298   7.741  19.812  0.00  0.00    +0.000 C 
ATOM     15  C   UNL     1       0.880   9.191  20.067  0.00  0.00    +0.000 C 
ATOM     16  C   UNL     1      -0.464   9.575  20.737  0.00  0.00    +0.000 C 
ATOM     17  C   UNL     1      -0.433  11.076  20.479  0.00  0.00    +0.000 C 
ATOM     18  C   UNL     1       0.508  11.344  19.545  0.00  0.00    +0.000 C 
ENDROOT
BRANCH   9  19
ATOM     19  O   UNL     1       3.963   2.282  17.855  0.00  0.00    +0.000 OA
ATOM     20  H   UNL     1       3.668   2.055  16.959  0.00  0.00    +0.000 HD
ENDBRANCH   9  19
BRANCH  18  21
ATOM     21  C   UNL     1       1.556  12.414  19.729  0.00  0.00    +0.000 C 
BRANCH  21  22
ATOM     22  O   UNL     1       1.849  12.661  21.091  0.00  0.00    +0.000 OA
ATOM     23  H   UNL     1       1.058  12.406  21.583  0.00  0.00    +0.000 HD
ENDBRANCH  21  22
ENDBRANCH  18  21
TORSDOF 3
ENDMDL
MODEL 9
REMARK VINA RESULT:      -6.4      9.732     11.625
REMARK  Name = 
REMARK  4 active torsions:
REMARK  status: ('A' for Active; 'I' for Inactive)
REMARK    1  A    between atoms: C_1  and  C_2
REMARK    2  A    between atoms: C_9  and  O_10
REMARK    3  A    between atoms: C_19  and  C_20
REMARK    4  A    between atoms: C_20  and  O_21
REMARK                            x       y       z     vdW  Elec       q    Type
REMARK                         _______ _______ _______ _____ _____    ______ ____
ROOT
ATOM      1  C   UNL     1       8.464  13.572  17.755  0.00  0.00    +0.000 C 
ATOM      2  C   UNL     1       9.957  13.611  18.211  0.00  0.00    +0.000 C 
ATOM      3  C   UNL     1      10.328  12.244  18.782  0.00  0.00    +0.000 C 
ATOM      4  C   UNL     1       9.571  11.975  20.073  0.00  0.00    +0.000 C 
ATOM      5  C   UNL     1       9.779  13.091  21.111  0.00  0.00    +0.000 C 
ATOM      6  C   UNL     1       9.008  12.887  22.402  0.00  0.00    +0.000 A 
ATOM      7  C   UNL     1       8.432  11.651  22.732  0.00  0.00    +0.000 A 
ATOM      8  C   UNL     1       7.751  11.469  23.931  0.00  0.00    +0.000 A 
ATOM      9  C   UNL     1       7.668  12.524  24.825  0.00  0.00    +0.000 A 
ATOM     10  C   UNL     1       8.239  13.754  24.529  0.00  0.00    +0.000 A 
ATOM     11  C   UNL     1       8.909  13.959  23.310  0.00  0.00    +0.000 A 
ATOM     12  C   UNL     1       9.460  15.332  22.998  0.00  0.00    +0.000 C 
ATOM     13  C   UNL     1      10.151  15.481  21.637  0.00  0.00    +0.000 C 
ATOM     14  C   UNL     1       9.543  14.545  20.572  0.00  0.00    +0.000 C 
ATOM     15  C   UNL     1      10.236  14.737  19.221  0.00  0.00    +0.000 C 
ATOM     16  C   UNL     1      10.030  15.997  18.341  0.00  0.00    +0.000 C 
ATOM     17  C   UNL     1      10.721  15.511  17.073  0.00  0.00    +0.000 C 
ATOM     18  C   UNL     1      10.888  14.171  17.147  0.00  0.00    +0.000 C 
ENDROOT
BRANCH   9  19
ATOM     19  O   UNL     1       7.010  12.386  26.017  0.00  0.00    +0.000 OA
ATOM     20  H   UNL     1       7.488  12.907  26.682  0.00  0.00    +0.000 HD
ENDBRANCH   9  19
BRANCH  18  21
ATOM     21  C   UNL     1      12.211  13.499  16.870  0.00  0.00    +0.000 C 
BRANCH  21  22
ATOM     22  O   UNL     1      12.333  13.070  15.528  0.00  0.00    +0.000 OA
ATOM     23  H   UNL     1      12.802  12.226  15.561  0.00  0.00    +0.000 HD
ENDBRANCH  21  22
ENDBRANCH  18  21
TORSDOF 3
ENDMDL
