MODEL 1
REMARK VINA RESULT:      -7.7      0.000      0.000
REMARK  Name = 
REMARK  10 active torsions:
REMARK  status: ('A' for Active; 'I' for Inactive)
REMARK    1  A    between atoms: C_1  and  C_2
REMARK    2  A    between atoms: C_2  and  C_3
REMARK    3  A    between atoms: C_3  and  C_4
REMARK    4  A    between atoms: C_4  and  N_5
REMARK    5  A    between atoms: C_9  and  C_10
REMARK    6  A    between atoms: C_10  and  C_12
REMARK    7  A    between atoms: C_16  and  S_17
REMARK    8  A    between atoms: S_17  and  N_20
REMARK    9  A    between atoms: C_22  and  C_23
REMARK   10  A    between atoms: C_25  and  C_26
REMARK                            x       y       z     vdW  Elec       q    Type
REMARK                         _______ _______ _______ _____ _____    ______ ____
ROOT
ATOM      1  C   UNL     1       1.566   8.667  19.188  0.00  0.00    +0.000 A 
ATOM      2  C   UNL     1       1.065   8.456  20.479  0.00  0.00    +0.000 A 
ATOM      3  C   UNL     1       1.260   7.230  21.124  0.00  0.00    +0.000 A 
ATOM      4  C   UNL     1       1.933   6.189  20.479  0.00  0.00    +0.000 A 
ATOM      5  C   UNL     1       2.386   6.356  19.165  0.00  0.00    +0.000 A 
ATOM      6  C   UNL     1       2.223   7.602  18.532  0.00  0.00    +0.000 A 
ENDROOT
BRANCH   5   7
ATOM      7  S   UNL     1       3.380   5.062  18.408  0.00  0.00    +0.000 S 
ATOM      8  O   UNL     1       3.965   4.312  19.497  0.00  0.00    +0.000 OA
ATOM      9  O   UNL     1       2.513   4.405  17.448  0.00  0.00    +0.000 OA
BRANCH   7  10
ATOM     10  N   UNL     1       4.645   5.791  17.519  0.00  0.00    +0.000 NA
ATOM     11  C   UNL     1       5.865   6.247  18.200  0.00  0.00    +0.000 C 
ATOM     12  C   UNL     1       6.880   5.102  18.249  0.00  0.00    +0.000 C 
ATOM     13  C   UNL     1       8.174   5.547  18.925  0.00  0.00    +0.000 C 
ATOM     14  C   UNL     1       7.130   4.499  16.852  0.00  0.00    +0.000 C 
ATOM     15  C   UNL     1       5.816   4.182  16.112  0.00  0.00    +0.000 C 
ATOM     16  C   UNL     1       6.052   3.659  14.700  0.00  0.00    +0.000 C 
ATOM     17  C   UNL     1       4.888   5.390  16.124  0.00  0.00    +0.000 C 
ENDBRANCH   7  10
ENDBRANCH   5   7
BRANCH   1  18
ATOM     18  C   UNL     1       1.402   9.968  18.452  0.00  0.00    +0.000 C 
ATOM     19  O   UNL     1       2.199  10.174  17.535  0.00  0.00    +0.000 OA
BRANCH  18  24
ATOM     20  N   UNL     1      -0.941  10.973  18.371  0.00  0.00    +0.000 N 
ATOM     21  C   UNL     1      -1.561  12.062  18.940  0.00  0.00    +0.000 A 
ATOM     22  C   UNL     1      -0.603  12.660  19.712  0.00  0.00    +0.000 A 
ATOM     23  N   UNL     1       0.570  11.957  19.647  0.00  0.00    +0.000 NA
ATOM     24  C   UNL     1       0.363  10.937  18.828  0.00  0.00    +0.000 A 
BRANCH  20  25
ATOM     25  C   UNL     1      -1.571  10.135  17.365  0.00  0.00    +0.000 C 
BRANCH  25  26
ATOM     26  C   UNL     1      -3.076   9.941  17.552  0.00  0.00    +0.000 C 
BRANCH  26  28
ATOM     27  C   UNL     1      -3.044  10.335  15.059  0.00  0.00    +0.000 C 
ATOM     28  C   UNL     1      -3.842  10.485  16.344  0.00  0.00    +0.000 C 
ENDBRANCH  26  28
ENDBRANCH  25  26
ENDBRANCH  20  25
ENDBRANCH  18  24
ENDBRANCH   1  18
TORSDOF 7
ENDMDL
MODEL 2
REMARK VINA RESULT:      -7.4      2.696      8.745
REMARK  Name = 
REMARK  10 active torsions:
REMARK  status: ('A' for Active; 'I' for Inactive)
REMARK    1  A    between atoms: C_1  and  C_2
REMARK    2  A    between atoms: C_2  and  C_3
REMARK    3  A    between atoms: C_3  and  C_4
REMARK    4  A    between atoms: C_4  and  N_5
REMARK    5  A    between atoms: C_9  and  C_10
REMARK    6  A    between atoms: C_10  and  C_12
REMARK    7  A    between atoms: C_16  and  S_17
REMARK    8  A    between atoms: S_17  and  N_20
REMARK    9  A    between atoms: C_22  and  C_23
REMARK   10  A    between atoms: C_25  and  C_26
REMARK                            x       y       z     vdW  Elec       q    Type
REMARK                         _______ _______ _______ _____ _____    ______ ____
ROOT
ATOM      1  C   UNL     1       2.151   7.631  19.297  0.00  0.00    +0.000 A 
ATOM      2  C   UNL     1       2.582   8.020  18.022  0.00  0.00    +0.000 A 
ATOM      3  C   UNL     1       2.298   9.302  17.538  0.00  0.00    +0.000 A 
ATOM      4  C   UNL     1       1.558  10.202  18.308  0.00  0.00    +0.000 A 
ATOM      5  C   UNL     1       1.063   9.813  19.558  0.00  0.00    +0.000 A 
ATOM      6  C   UNL     1       1.381   8.537  20.060  0.00  0.00    +0.000 A 
ENDROOT
BRANCH   5   7
ATOM      7  S   UNL     1       0.244  11.032  20.597  0.00  0.00    +0.000 S 
ATOM      8  O   UNL     1      -0.711  10.302  21.402  0.00  0.00    +0.000 OA
ATOM      9  O   UNL     1       1.304  11.793  21.229  0.00  0.00    +0.000 OA
BRANCH   7  10
ATOM     10  N   UNL     1      -0.619  12.115  19.595  0.00  0.00    +0.000 NA
ATOM     11  C   UNL     1      -1.214  11.649  18.335  0.00  0.00    +0.000 C 
ATOM     12  C   UNL     1      -2.633  11.139  18.600  0.00  0.00    +0.000 C 
ATOM     13  C   UNL     1      -3.296  10.672  17.306  0.00  0.00    +0.000 C 
ATOM     14  C   UNL     1      -3.487  12.184  19.348  0.00  0.00    +0.000 C 
ATOM     15  C   UNL     1      -2.755  12.760  20.575  0.00  0.00    +0.000 C 
ATOM     16  C   UNL     1      -3.559  13.850  21.275  0.00  0.00    +0.000 C 
ATOM     17  C   UNL     1      -1.360  13.238  20.194  0.00  0.00    +0.000 C 
ENDBRANCH   7  10
ENDBRANCH   5   7
BRANCH   1  18
ATOM     18  C   UNL     1       2.440   6.274  19.876  0.00  0.00    +0.000 C 
ATOM     19  O   UNL     1       1.831   5.985  20.907  0.00  0.00    +0.000 OA
BRANCH  18  24
ATOM     20  N   UNL     1       3.133   4.337  18.369  0.00  0.00    +0.000 N 
ATOM     21  C   UNL     1       4.319   3.708  18.062  0.00  0.00    +0.000 A 
ATOM     22  C   UNL     1       5.275   4.368  18.784  0.00  0.00    +0.000 A 
ATOM     23  N   UNL     1       4.711   5.390  19.501  0.00  0.00    +0.000 NA
ATOM     24  C   UNL     1       3.410   5.364  19.251  0.00  0.00    +0.000 A 
BRANCH  20  25
ATOM     25  C   UNL     1       1.839   3.856  17.915  0.00  0.00    +0.000 C 
BRANCH  25  26
ATOM     26  C   UNL     1       1.350   2.589  18.616  0.00  0.00    +0.000 C 
BRANCH  26  28
ATOM     27  C   UNL     1       1.566   2.548  21.130  0.00  0.00    +0.000 C 
ATOM     28  C   UNL     1       0.688   2.934  19.951  0.00  0.00    +0.000 C 
ENDBRANCH  26  28
ENDBRANCH  25  26
ENDBRANCH  20  25
ENDBRANCH  18  24
ENDBRANCH   1  18
TORSDOF 7
ENDMDL
MODEL 3
REMARK VINA RESULT:      -7.4      2.177      8.353
REMARK  Name = 
REMARK  10 active torsions:
REMARK  status: ('A' for Active; 'I' for Inactive)
REMARK    1  A    between atoms: C_1  and  C_2
REMARK    2  A    between atoms: C_2  and  C_3
REMARK    3  A    between atoms: C_3  and  C_4
REMARK    4  A    between atoms: C_4  and  N_5
REMARK    5  A    between atoms: C_9  and  C_10
REMARK    6  A    between atoms: C_10  and  C_12
REMARK    7  A    between atoms: C_16  and  S_17
REMARK    8  A    between atoms: S_17  and  N_20
REMARK    9  A    between atoms: C_22  and  C_23
REMARK   10  A    between atoms: C_25  and  C_26
REMARK                            x       y       z     vdW  Elec       q    Type
REMARK                         _______ _______ _______ _____ _____    ______ ____
ROOT
ATOM      1  C   UNL     1       3.256   6.220  18.770  0.00  0.00    +0.000 A 
ATOM      2  C   UNL     1       2.835   4.941  19.156  0.00  0.00    +0.000 A 
ATOM      3  C   UNL     1       1.848   4.784  20.135  0.00  0.00    +0.000 A 
ATOM      4  C   UNL     1       1.288   5.899  20.762  0.00  0.00    +0.000 A 
ATOM      5  C   UNL     1       1.739   7.185  20.438  0.00  0.00    +0.000 A 
ATOM      6  C   UNL     1       2.704   7.343  19.426  0.00  0.00    +0.000 A 
ENDROOT
BRANCH   5   7
ATOM      7  S   UNL     1       0.902   8.612  21.144  0.00  0.00    +0.000 S 
ATOM      8  O   UNL     1      -0.478   8.224  21.326  0.00  0.00    +0.000 OA
ATOM      9  O   UNL     1       1.704   9.021  22.281  0.00  0.00    +0.000 OA
BRANCH   7  10
ATOM     10  N   UNL     1       0.953   9.893  20.012  0.00  0.00    +0.000 NA
ATOM     11  C   UNL     1       0.305   9.752  18.701  0.00  0.00    +0.000 C 
ATOM     12  C   UNL     1      -1.151  10.214  18.800  0.00  0.00    +0.000 C 
ATOM     13  C   UNL     1      -1.851  10.110  17.447  0.00  0.00    +0.000 C 
ATOM     14  C   UNL     1      -1.263  11.628  19.406  0.00  0.00    +0.000 C 
ATOM     15  C   UNL     1      -0.438  11.773  20.700  0.00  0.00    +0.000 C 
ATOM     16  C   UNL     1      -0.479  13.188  21.263  0.00  0.00    +0.000 C 
ATOM     17  C   UNL     1       0.990  11.287  20.483  0.00  0.00    +0.000 C 
ENDBRANCH   7  10
ENDBRANCH   5   7
BRANCH   1  18
ATOM     18  C   UNL     1       4.300   6.451  17.713  0.00  0.00    +0.000 C 
ATOM     19  O   UNL     1       3.972   7.189  16.782  0.00  0.00    +0.000 OA
BRANCH  18  24
ATOM     20  N   UNL     1       6.152   4.902  16.891  0.00  0.00    +0.000 N 
ATOM     21  C   UNL     1       7.391   4.523  17.355  0.00  0.00    +0.000 A 
ATOM     22  C   UNL     1       7.562   5.206  18.528  0.00  0.00    +0.000 A 
ATOM     23  N   UNL     1       6.477   6.003  18.778  0.00  0.00    +0.000 NA
ATOM     24  C   UNL     1       5.620   5.812  17.786  0.00  0.00    +0.000 A 
BRANCH  20  25
ATOM     25  C   UNL     1       5.520   4.300  15.729  0.00  0.00    +0.000 C 
BRANCH  25  26
ATOM     26  C   UNL     1       6.296   4.470  14.424  0.00  0.00    +0.000 C 
BRANCH  26  28
ATOM     27  C   UNL     1       6.557   3.541  12.092  0.00  0.00    +0.000 C 
ATOM     28  C   UNL     1       5.642   3.665  13.300  0.00  0.00    +0.000 C 
ENDBRANCH  26  28
ENDBRANCH  25  26
ENDBRANCH  20  25
ENDBRANCH  18  24
ENDBRANCH   1  18
TORSDOF 7
ENDMDL
MODEL 4
REMARK VINA RESULT:      -7.4      2.428      8.671
REMARK  Name = 
REMARK  10 active torsions:
REMARK  status: ('A' for Active; 'I' for Inactive)
REMARK    1  A    between atoms: C_1  and  C_2
REMARK    2  A    between atoms: C_2  and  C_3
REMARK    3  A    between atoms: C_3  and  C_4
REMARK    4  A    between atoms: C_4  and  N_5
REMARK    5  A    between atoms: C_9  and  C_10
REMARK    6  A    between atoms: C_10  and  C_12
REMARK    7  A    between atoms: C_16  and  S_17
REMARK    8  A    between atoms: S_17  and  N_20
REMARK    9  A    between atoms: C_22  and  C_23
REMARK   10  A    between atoms: C_25  and  C_26
REMARK                            x       y       z     vdW  Elec       q    Type
REMARK                         _______ _______ _______ _____ _____    ______ ____
ROOT
ATOM      1  C   UNL     1       2.278   6.705  19.416  0.00  0.00    +0.000 A 
ATOM      2  C   UNL     1       2.681   7.014  18.110  0.00  0.00    +0.000 A 
ATOM      3  C   UNL     1       2.557   8.318  17.619  0.00  0.00    +0.000 A 
ATOM      4  C   UNL     1       2.004   9.324  18.413  0.00  0.00    +0.000 A 
ATOM      5  C   UNL     1       1.536   9.025  19.699  0.00  0.00    +0.000 A 
ATOM      6  C   UNL     1       1.696   7.722  20.205  0.00  0.00    +0.000 A 
ENDROOT
BRANCH   5   7
ATOM      7  S   UNL     1       0.967  10.362  20.760  0.00  0.00    +0.000 S 
ATOM      8  O   UNL     1       1.269   9.959  22.115  0.00  0.00    +0.000 OA
ATOM      9  O   UNL     1       1.540  11.576  20.212  0.00  0.00    +0.000 OA
BRANCH   7  10
ATOM     10  N   UNL     1      -0.730  10.499  20.607  0.00  0.00    +0.000 NA
ATOM     11  C   UNL     1      -1.430  11.679  21.133  0.00  0.00    +0.000 C 
ATOM     12  C   UNL     1      -1.485  12.762  20.052  0.00  0.00    +0.000 C 
ATOM     13  C   UNL     1      -2.233  13.996  20.553  0.00  0.00    +0.000 C 
ATOM     14  C   UNL     1      -2.069  12.224  18.731  0.00  0.00    +0.000 C 
ATOM     15  C   UNL     1      -1.409  10.899  18.301  0.00  0.00    +0.000 C 
ATOM     16  C   UNL     1      -2.034  10.319  17.038  0.00  0.00    +0.000 C 
ATOM     17  C   UNL     1      -1.414   9.899  19.450  0.00  0.00    +0.000 C 
ENDBRANCH   7  10
ENDBRANCH   5   7
BRANCH   1  18
ATOM     18  C   UNL     1       2.403   5.327  20.004  0.00  0.00    +0.000 C 
ATOM     19  O   UNL     1       2.299   5.250  21.229  0.00  0.00    +0.000 OA
BRANCH  18  24
ATOM     20  N   UNL     1       3.886   3.683  18.736  0.00  0.00    +0.000 N 
ATOM     21  C   UNL     1       3.670   2.590  17.929  0.00  0.00    +0.000 A 
ATOM     22  C   UNL     1       2.312   2.442  17.876  0.00  0.00    +0.000 A 
ATOM     23  N   UNL     1       1.698   3.397  18.643  0.00  0.00    +0.000 NA
ATOM     24  C   UNL     1       2.656   4.152  19.158  0.00  0.00    +0.000 A 
BRANCH  20  25
ATOM     25  C   UNL     1       5.199   4.270  18.947  0.00  0.00    +0.000 C 
BRANCH  25  26
ATOM     26  C   UNL     1       5.885   4.764  17.673  0.00  0.00    +0.000 C 
BRANCH  26  28
ATOM     27  C   UNL     1       7.788   5.930  18.850  0.00  0.00    +0.000 C 
ATOM     28  C   UNL     1       7.400   4.834  17.871  0.00  0.00    +0.000 C 
ENDBRANCH  26  28
ENDBRANCH  25  26
ENDBRANCH  20  25
ENDBRANCH  18  24
ENDBRANCH   1  18
TORSDOF 7
ENDMDL
MODEL 5
REMARK VINA RESULT:      -7.3      2.357      8.396
REMARK  Name = 
REMARK  10 active torsions:
REMARK  status: ('A' for Active; 'I' for Inactive)
REMARK    1  A    between atoms: C_1  and  C_2
REMARK    2  A    between atoms: C_2  and  C_3
REMARK    3  A    between atoms: C_3  and  C_4
REMARK    4  A    between atoms: C_4  and  N_5
REMARK    5  A    between atoms: C_9  and  C_10
REMARK    6  A    between atoms: C_10  and  C_12
REMARK    7  A    between atoms: C_16  and  S_17
REMARK    8  A    between atoms: S_17  and  N_20
REMARK    9  A    between atoms: C_22  and  C_23
REMARK   10  A    between atoms: C_25  and  C_26
REMARK                            x       y       z     vdW  Elec       q    Type
REMARK                         _______ _______ _______ _____ _____    ______ ____
ROOT
ATOM      1  C   UNL     1       3.151   6.318  18.679  0.00  0.00    +0.000 A 
ATOM      2  C   UNL     1       2.886   5.035  19.176  0.00  0.00    +0.000 A 
ATOM      3  C   UNL     1       2.030   4.860  20.268  0.00  0.00    +0.000 A 
ATOM      4  C   UNL     1       1.451   5.963  20.898  0.00  0.00    +0.000 A 
ATOM      5  C   UNL     1       1.752   7.259  20.460  0.00  0.00    +0.000 A 
ATOM      6  C   UNL     1       2.582   7.431  19.337  0.00  0.00    +0.000 A 
ENDROOT
BRANCH   5   7
ATOM      7  S   UNL     1       0.881   8.656  21.184  0.00  0.00    +0.000 S 
ATOM      8  O   UNL     1      -0.492   8.235  21.350  0.00  0.00    +0.000 OA
ATOM      9  O   UNL     1       1.667   9.062  22.334  0.00  0.00    +0.000 OA
BRANCH   7  10
ATOM     10  N   UNL     1       0.912   9.956  20.075  0.00  0.00    +0.000 NA
ATOM     11  C   UNL     1       0.292   9.818  18.750  0.00  0.00    +0.000 C 
ATOM     12  C   UNL     1      -1.179  10.233  18.830  0.00  0.00    +0.000 C 
ATOM     13  C   UNL     1      -1.851  10.130  17.463  0.00  0.00    +0.000 C 
ATOM     14  C   UNL     1      -1.346  11.633  19.457  0.00  0.00    +0.000 C 
ATOM     15  C   UNL     1      -0.549  11.781  20.767  0.00  0.00    +0.000 C 
ATOM     16  C   UNL     1      -0.644  13.184  21.353  0.00  0.00    +0.000 C 
ATOM     17  C   UNL     1       0.897  11.343  20.569  0.00  0.00    +0.000 C 
ENDBRANCH   7  10
ENDBRANCH   5   7
BRANCH   1  18
ATOM     18  C   UNL     1       4.048   6.566  17.498  0.00  0.00    +0.000 C 
ATOM     19  O   UNL     1       3.883   7.636  16.910  0.00  0.00    +0.000 OA
BRANCH  18  24
ATOM     20  N   UNL     1       6.392   5.568  17.371  0.00  0.00    +0.000 N 
ATOM     21  C   UNL     1       6.966   4.491  16.735  0.00  0.00    +0.000 A 
ATOM     22  C   UNL     1       5.945   3.888  16.054  0.00  0.00    +0.000 A 
ATOM     23  N   UNL     1       4.767   4.551  16.273  0.00  0.00    +0.000 NA
ATOM     24  C   UNL     1       5.043   5.574  17.068  0.00  0.00    +0.000 A 
BRANCH  20  25
ATOM     25  C   UNL     1       7.161   6.562  18.101  0.00  0.00    +0.000 C 
BRANCH  25  26
ATOM     26  C   UNL     1       7.856   7.600  17.219  0.00  0.00    +0.000 C 
BRANCH  26  28
ATOM     27  C   UNL     1       8.863   9.313  18.774  0.00  0.00    +0.000 C 
ATOM     28  C   UNL     1       7.718   8.998  17.824  0.00  0.00    +0.000 C 
ENDBRANCH  26  28
ENDBRANCH  25  26
ENDBRANCH  20  25
ENDBRANCH  18  24
ENDBRANCH   1  18
TORSDOF 7
ENDMDL
MODEL 6
REMARK VINA RESULT:      -7.3      2.237      8.738
REMARK  Name = 
REMARK  10 active torsions:
REMARK  status: ('A' for Active; 'I' for Inactive)
REMARK    1  A    between atoms: C_1  and  C_2
REMARK    2  A    between atoms: C_2  and  C_3
REMARK    3  A    between atoms: C_3  and  C_4
REMARK    4  A    between atoms: C_4  and  N_5
REMARK    5  A    between atoms: C_9  and  C_10
REMARK    6  A    between atoms: C_10  and  C_12
REMARK    7  A    between atoms: C_16  and  S_17
REMARK    8  A    between atoms: S_17  and  N_20
REMARK    9  A    between atoms: C_22  and  C_23
REMARK   10  A    between atoms: C_25  and  C_26
REMARK                            x       y       z     vdW  Elec       q    Type
REMARK                         _______ _______ _______ _____ _____    ______ ____
ROOT
ATOM      1  C   UNL     1       3.290   6.567  18.985  0.00  0.00    +0.000 A 
ATOM      2  C   UNL     1       3.306   7.187  17.728  0.00  0.00    +0.000 A 
ATOM      3  C   UNL     1       2.564   8.351  17.501  0.00  0.00    +0.000 A 
ATOM      4  C   UNL     1       1.775   8.896  18.515  0.00  0.00    +0.000 A 
ATOM      5  C   UNL     1       1.693   8.259  19.760  0.00  0.00    +0.000 A 
ATOM      6  C   UNL     1       2.469   7.110  19.998  0.00  0.00    +0.000 A 
ENDROOT
BRANCH   5   7
ATOM      7  S   UNL     1       0.793   9.056  21.098  0.00  0.00    +0.000 S 
ATOM      8  O   UNL     1      -0.516   8.442  21.128  0.00  0.00    +0.000 OA
ATOM      9  O   UNL     1       1.661   8.987  22.258  0.00  0.00    +0.000 OA
BRANCH   7  10
ATOM     10  N   UNL     1       0.599  10.712  20.718  0.00  0.00    +0.000 NA
ATOM     11  C   UNL     1       0.126  11.119  19.388  0.00  0.00    +0.000 C 
ATOM     12  C   UNL     1      -1.404  11.185  19.390  0.00  0.00    +0.000 C 
ATOM     13  C   UNL     1      -1.933  11.634  18.030  0.00  0.00    +0.000 C 
ATOM     14  C   UNL     1      -1.938  12.062  20.541  0.00  0.00    +0.000 C 
ATOM     15  C   UNL     1      -1.294  11.701  21.894  0.00  0.00    +0.000 C 
ATOM     16  C   UNL     1      -1.756  12.613  23.023  0.00  0.00    +0.000 C 
ATOM     17  C   UNL     1       0.224  11.667  21.774  0.00  0.00    +0.000 C 
ENDBRANCH   7  10
ENDBRANCH   5   7
BRANCH   1  18
ATOM     18  C   UNL     1       4.080   5.325  19.292  0.00  0.00    +0.000 C 
ATOM     19  O   UNL     1       3.485   4.449  19.921  0.00  0.00    +0.000 OA
BRANCH  18  24
ATOM     20  N   UNL     1       5.948   4.725  17.663  0.00  0.00    +0.000 N 
ATOM     21  C   UNL     1       7.323   4.714  17.708  0.00  0.00    +0.000 A 
ATOM     22  C   UNL     1       7.646   5.158  18.961  0.00  0.00    +0.000 A 
ATOM     23  N   UNL     1       6.512   5.457  19.669  0.00  0.00    +0.000 NA
ATOM     24  C   UNL     1       5.483   5.186  18.880  0.00  0.00    +0.000 A 
BRANCH  20  25
ATOM     25  C   UNL     1       5.186   4.192  16.546  0.00  0.00    +0.000 C 
BRANCH  25  26
ATOM     26  C   UNL     1       5.477   4.860  15.202  0.00  0.00    +0.000 C 
BRANCH  26  28
ATOM     27  C   UNL     1       5.694   3.676  12.984  0.00  0.00    +0.000 C 
ATOM     28  C   UNL     1       6.347   3.954  14.328  0.00  0.00    +0.000 C 
ENDBRANCH  26  28
ENDBRANCH  25  26
ENDBRANCH  20  25
ENDBRANCH  18  24
ENDBRANCH   1  18
TORSDOF 7
ENDMDL
MODEL 7
REMARK VINA RESULT:      -7.3      1.833      3.186
REMARK  Name = 
REMARK  10 active torsions:
REMARK  status: ('A' for Active; 'I' for Inactive)
REMARK    1  A    between atoms: C_1  and  C_2
REMARK    2  A    between atoms: C_2  and  C_3
REMARK    3  A    between atoms: C_3  and  C_4
REMARK    4  A    between atoms: C_4  and  N_5
REMARK    5  A    between atoms: C_9  and  C_10
REMARK    6  A    between atoms: C_10  and  C_12
REMARK    7  A    between atoms: C_16  and  S_17
REMARK    8  A    between atoms: S_17  and  N_20
REMARK    9  A    between atoms: C_22  and  C_23
REMARK   10  A    between atoms: C_25  and  C_26
REMARK                            x       y       z     vdW  Elec       q    Type
REMARK                         _______ _______ _______ _____ _____    ______ ____
ROOT
ATOM      1  C   UNL     1       2.332   6.666  18.243  0.00  0.00    +0.000 A 
ATOM      2  C   UNL     1       1.382   5.772  17.732  0.00  0.00    +0.000 A 
ATOM      3  C   UNL     1       1.673   4.407  17.634  0.00  0.00    +0.000 A 
ATOM      4  C   UNL     1       2.924   3.920  18.018  0.00  0.00    +0.000 A 
ATOM      5  C   UNL     1       3.911   4.804  18.472  0.00  0.00    +0.000 A 
ATOM      6  C   UNL     1       3.604   6.171  18.606  0.00  0.00    +0.000 A 
ENDROOT
BRANCH   5   7
ATOM      7  S   UNL     1       5.460   4.142  19.103  0.00  0.00    +0.000 S 
ATOM      8  O   UNL     1       5.788   4.926  20.274  0.00  0.00    +0.000 OA
ATOM      9  O   UNL     1       5.265   2.709  19.213  0.00  0.00    +0.000 OA
BRANCH   7  10
ATOM     10  N   UNL     1       6.681   4.392  17.933  0.00  0.00    +0.000 NA
ATOM     11  C   UNL     1       6.468   3.979  16.539  0.00  0.00    +0.000 C 
ATOM     12  C   UNL     1       5.820   5.128  15.761  0.00  0.00    +0.000 C 
ATOM     13  C   UNL     1       5.611   4.746  14.297  0.00  0.00    +0.000 C 
ATOM     14  C   UNL     1       6.614   6.442  15.912  0.00  0.00    +0.000 C 
ATOM     15  C   UNL     1       6.949   6.752  17.384  0.00  0.00    +0.000 C 
ATOM     16  C   UNL     1       7.800   8.006  17.538  0.00  0.00    +0.000 C 
ATOM     17  C   UNL     1       7.590   5.543  18.055  0.00  0.00    +0.000 C 
ENDBRANCH   7  10
ENDBRANCH   5   7
BRANCH   1  18
ATOM     18  C   UNL     1       2.070   8.140  18.388  0.00  0.00    +0.000 C 
ATOM     19  O   UNL     1       2.404   8.844  17.435  0.00  0.00    +0.000 OA
BRANCH  18  24
ATOM     20  N   UNL     1       0.734   9.862  19.714  0.00  0.00    +0.000 N 
ATOM     21  C   UNL     1       0.398  10.035  21.037  0.00  0.00    +0.000 A 
ATOM     22  C   UNL     1       0.955   8.973  21.693  0.00  0.00    +0.000 A 
ATOM     23  N   UNL     1       1.600   8.150  20.808  0.00  0.00    +0.000 NA
ATOM     24  C   UNL     1       1.469   8.696  19.608  0.00  0.00    +0.000 A 
BRANCH  20  25
ATOM     25  C   UNL     1       0.451  10.850  18.686  0.00  0.00    +0.000 C 
BRANCH  25  26
ATOM     26  C   UNL     1      -1.033  11.020  18.360  0.00  0.00    +0.000 C 
BRANCH  26  28
ATOM     27  C   UNL     1      -3.025   9.779  17.434  0.00  0.00    +0.000 C 
ATOM     28  C   UNL     1      -1.510   9.905  17.428  0.00  0.00    +0.000 C 
ENDBRANCH  26  28
ENDBRANCH  25  26
ENDBRANCH  20  25
ENDBRANCH  18  24
ENDBRANCH   1  18
TORSDOF 7
ENDMDL
MODEL 8
REMARK VINA RESULT:      -7.3      2.818      8.498
REMARK  Name = 
REMARK  10 active torsions:
REMARK  status: ('A' for Active; 'I' for Inactive)
REMARK    1  A    between atoms: C_1  and  C_2
REMARK    2  A    between atoms: C_2  and  C_3
REMARK    3  A    between atoms: C_3  and  C_4
REMARK    4  A    between atoms: C_4  and  N_5
REMARK    5  A    between atoms: C_9  and  C_10
REMARK    6  A    between atoms: C_10  and  C_12
REMARK    7  A    between atoms: C_16  and  S_17
REMARK    8  A    between atoms: S_17  and  N_20
REMARK    9  A    between atoms: C_22  and  C_23
REMARK   10  A    between atoms: C_25  and  C_26
REMARK                            x       y       z     vdW  Elec       q    Type
REMARK                         _______ _______ _______ _____ _____    ______ ____
ROOT
ATOM      1  C   UNL     1       2.652   7.047  19.074  0.00  0.00    +0.000 A 
ATOM      2  C   UNL     1       2.661   7.718  17.844  0.00  0.00    +0.000 A 
ATOM      3  C   UNL     1       1.998   8.941  17.698  0.00  0.00    +0.000 A 
ATOM      4  C   UNL     1       1.293   9.497  18.768  0.00  0.00    +0.000 A 
ATOM      5  C   UNL     1       1.217   8.813  19.988  0.00  0.00    +0.000 A 
ATOM      6  C   UNL     1       1.917   7.602  20.144  0.00  0.00    +0.000 A 
ENDROOT
BRANCH   5   7
ATOM      7  S   UNL     1       0.435   9.613  21.396  0.00  0.00    +0.000 S 
ATOM      8  O   UNL     1      -0.549   8.680  21.897  0.00  0.00    +0.000 OA
ATOM      9  O   UNL     1       1.518  10.063  22.250  0.00  0.00    +0.000 OA
BRANCH   7  10
ATOM     10  N   UNL     1      -0.382  11.011  20.849  0.00  0.00    +0.000 NA
ATOM     11  C   UNL     1      -1.461  11.602  21.652  0.00  0.00    +0.000 C 
ATOM     12  C   UNL     1      -0.870  12.621  22.630  0.00  0.00    +0.000 C 
ATOM     13  C   UNL     1      -1.967  13.280  23.462  0.00  0.00    +0.000 C 
ATOM     14  C   UNL     1       0.017  13.658  21.910  0.00  0.00    +0.000 C 
ATOM     15  C   UNL     1       1.031  12.994  20.959  0.00  0.00    +0.000 C 
ATOM     16  C   UNL     1       1.859  14.014  20.184  0.00  0.00    +0.000 C 
ATOM     17  C   UNL     1       0.333  12.007  20.033  0.00  0.00    +0.000 C 
ENDBRANCH   7  10
ENDBRANCH   5   7
BRANCH   1  18
ATOM     18  C   UNL     1       3.361   5.739  19.294  0.00  0.00    +0.000 C 
ATOM     19  O   UNL     1       3.112   5.162  20.353  0.00  0.00    +0.000 OA
BRANCH  18  24
ATOM     20  N   UNL     1       4.078   4.177  17.410  0.00  0.00    +0.000 N 
ATOM     21  C   UNL     1       5.238   3.963  16.701  0.00  0.00    +0.000 A 
ATOM     22  C   UNL     1       6.139   4.861  17.204  0.00  0.00    +0.000 A 
ATOM     23  N   UNL     1       5.557   5.626  18.180  0.00  0.00    +0.000 NA
ATOM     24  C   UNL     1       4.307   5.203  18.307  0.00  0.00    +0.000 A 
BRANCH  20  25
ATOM     25  C   UNL     1       2.901   3.333  17.282  0.00  0.00    +0.000 C 
BRANCH  25  26
ATOM     26  C   UNL     1       2.961   2.033  18.084  0.00  0.00    +0.000 C 
BRANCH  26  28
ATOM     27  C   UNL     1       0.766   3.057  18.793  0.00  0.00    +0.000 C 
ATOM     28  C   UNL     1       1.742   1.910  18.999  0.00  0.00    +0.000 C 
ENDBRANCH  26  28
ENDBRANCH  25  26
ENDBRANCH  20  25
ENDBRANCH  18  24
ENDBRANCH   1  18
TORSDOF 7
ENDMDL
MODEL 9
REMARK VINA RESULT:      -7.3      2.726      8.612
REMARK  Name = 
REMARK  10 active torsions:
REMARK  status: ('A' for Active; 'I' for Inactive)
REMARK    1  A    between atoms: C_1  and  C_2
REMARK    2  A    between atoms: C_2  and  C_3
REMARK    3  A    between atoms: C_3  and  C_4
REMARK    4  A    between atoms: C_4  and  N_5
REMARK    5  A    between atoms: C_9  and  C_10
REMARK    6  A    between atoms: C_10  and  C_12
REMARK    7  A    between atoms: C_16  and  S_17
REMARK    8  A    between atoms: S_17  and  N_20
REMARK    9  A    between atoms: C_22  and  C_23
REMARK   10  A    between atoms: C_25  and  C_26
REMARK                            x       y       z     vdW  Elec       q    Type
REMARK                         _______ _______ _______ _____ _____    ______ ____
ROOT
ATOM      1  C   UNL     1       2.835   6.690  19.277  0.00  0.00    +0.000 A 
ATOM      2  C   UNL     1       2.940   7.268  18.005  0.00  0.00    +0.000 A 
ATOM      3  C   UNL     1       2.333   8.498  17.732  0.00  0.00    +0.000 A 
ATOM      4  C   UNL     1       1.589   9.154  18.715  0.00  0.00    +0.000 A 
ATOM      5  C   UNL     1       1.417   8.565  19.974  0.00  0.00    +0.000 A 
ATOM      6  C   UNL     1       2.060   7.347  20.259  0.00  0.00    +0.000 A 
ENDROOT
BRANCH   5   7
ATOM      7  S   UNL     1       0.585   9.493  21.271  0.00  0.00    +0.000 S 
ATOM      8  O   UNL     1      -0.711   8.874  21.444  0.00  0.00    +0.000 OA
ATOM      9  O   UNL     1       1.520   9.554  22.378  0.00  0.00    +0.000 OA
BRANCH   7  10
ATOM     10  N   UNL     1       0.345  11.097  20.732  0.00  0.00    +0.000 NA
ATOM     11  C   UNL     1      -0.135  11.358  19.368  0.00  0.00    +0.000 C 
ATOM     12  C   UNL     1      -1.666  11.379  19.361  0.00  0.00    +0.000 C 
ATOM     13  C   UNL     1      -2.202  11.678  17.963  0.00  0.00    +0.000 C 
ATOM     14  C   UNL     1      -2.229  12.349  20.420  0.00  0.00    +0.000 C 
ATOM     15  C   UNL     1      -1.580  12.140  21.802  0.00  0.00    +0.000 C 
ATOM     16  C   UNL     1      -2.074  13.145  22.836  0.00  0.00    +0.000 C 
ATOM     17  C   UNL     1      -0.061  12.140  21.688  0.00  0.00    +0.000 C 
ENDBRANCH   7  10
ENDBRANCH   5   7
BRANCH   1  18
ATOM     18  C   UNL     1       3.481   5.380  19.634  0.00  0.00    +0.000 C 
ATOM     19  O   UNL     1       4.685   5.423  19.890  0.00  0.00    +0.000 OA
BRANCH  18  24
ATOM     20  N   UNL     1       2.506   3.267  18.588  0.00  0.00    +0.000 N 
ATOM     21  C   UNL     1       1.700   2.240  19.023  0.00  0.00    +0.000 A 
ATOM     22  C   UNL     1       1.433   2.520  20.334  0.00  0.00    +0.000 A 
ATOM     23  N   UNL     1       2.069   3.673  20.715  0.00  0.00    +0.000 NA
ATOM     24  C   UNL     1       2.714   4.126  19.650  0.00  0.00    +0.000 A 
BRANCH  20  25
ATOM     25  C   UNL     1       2.911   3.428  17.201  0.00  0.00    +0.000 C 
BRANCH  25  26
ATOM     26  C   UNL     1       4.421   3.380  16.971  0.00  0.00    +0.000 C 
BRANCH  26  28
ATOM     27  C   UNL     1       6.193   4.008  15.288  0.00  0.00    +0.000 C 
ATOM     28  C   UNL     1       4.826   4.348  15.858  0.00  0.00    +0.000 C 
ENDBRANCH  26  28
ENDBRANCH  25  26
ENDBRANCH  20  25
ENDBRANCH  18  24
ENDBRANCH   1  18
TORSDOF 7
ENDMDL
