MODEL 1
REMARK VINA RESULT:      -6.8      0.000      0.000
REMARK  Name = 
REMARK  8 active torsions:
REMARK  status: ('A' for Active; 'I' for Inactive)
REMARK    1  A    between atoms: C_1  and  S_2
REMARK    2  A    between atoms: S_2  and  C_3
REMARK    3  A    between atoms: C_7  and  C_8
REMARK    4  A    between atoms: C_12  and  S_13
REMARK    5  A    between atoms: S_13  and  C_14
REMARK    6  A    between atoms: C_14  and  C_15
REMARK    7  A    between atoms: C_15  and  C_16
REMARK    8  A    between atoms: C_15  and  C_17
REMARK                            x       y       z     vdW  Elec       q    Type
REMARK                         _______ _______ _______ _____ _____    ______ ____
ROOT
ATOM      1  C   UNL     1       5.251   4.603  17.016  0.00  0.00    +0.000 A 
ATOM      2  C   UNL     1       6.169   5.351  17.729  0.00  0.00    +0.000 A 
ATOM      3  N   UNL     1       7.326   5.754  17.170  0.00  0.00    +0.000 NA
ATOM      4  N   UNL     1       7.567   5.418  15.877  0.00  0.00    +0.000 NA
ATOM      5  C   UNL     1       6.650   4.694  15.200  0.00  0.00    +0.000 A 
ATOM      6  N   UNL     1       5.491   4.263  15.724  0.00  0.00    +0.000 NA
ENDROOT
BRANCH   1  11
ATOM      7  C   UNL     1       2.563   4.062  19.393  0.00  0.00    +0.000 A 
ATOM      8  N   UNL     1       1.663   3.320  18.713  0.00  0.00    +0.000 NA
ATOM      9  N   UNL     1       1.922   2.965  17.431  0.00  0.00    +0.000 NA
ATOM     10  C   UNL     1       3.077   3.381  16.879  0.00  0.00    +0.000 A 
ATOM     11  C   UNL     1       3.982   4.142  17.595  0.00  0.00    +0.000 A 
ATOM     12  N   UNL     1       3.729   4.493  18.879  0.00  0.00    +0.000 NA
BRANCH   7  14
ATOM     13  C   UNL     1       1.927   2.907  21.793  0.00  0.00    +0.000 C 
ATOM     14  S   UNL     1       2.210   4.539  21.066  0.00  0.00    +0.000 S 
ENDBRANCH   7  14
ENDBRANCH   1  11
BRANCH   5  15
ATOM     15  S   UNL     1       6.921   4.337  13.488  0.00  0.00    +0.000 S 
BRANCH  15  16
ATOM     16  C   UNL     1       5.274   3.689  13.042  0.00  0.00    +0.000 C 
BRANCH  16  17
ATOM     17  C   UNL     1       5.237   3.183  11.589  0.00  0.00    +0.000 C 
ATOM     18  C   UNL     1       5.867   1.795  11.430  0.00  0.00    +0.000 C 
ATOM     19  C   UNL     1       3.789   3.140  11.091  0.00  0.00    +0.000 C 
ENDBRANCH  16  17
ENDBRANCH  15  16
ENDBRANCH   5  15
TORSDOF 5
ENDMDL
MODEL 2
REMARK VINA RESULT:      -6.8      2.114      6.797
REMARK  Name = 
REMARK  8 active torsions:
REMARK  status: ('A' for Active; 'I' for Inactive)
REMARK    1  A    between atoms: C_1  and  S_2
REMARK    2  A    between atoms: S_2  and  C_3
REMARK    3  A    between atoms: C_7  and  C_8
REMARK    4  A    between atoms: C_12  and  S_13
REMARK    5  A    between atoms: S_13  and  C_14
REMARK    6  A    between atoms: C_14  and  C_15
REMARK    7  A    between atoms: C_15  and  C_16
REMARK    8  A    between atoms: C_15  and  C_17
REMARK                            x       y       z     vdW  Elec       q    Type
REMARK                         _______ _______ _______ _____ _____    ______ ____
ROOT
ATOM      1  C   UNL     1       6.405   4.470  16.151  0.00  0.00    +0.000 A 
ATOM      2  C   UNL     1       7.392   4.513  17.119  0.00  0.00    +0.000 A 
ATOM      3  N   UNL     1       7.084   4.499  18.430  0.00  0.00    +0.000 NA
ATOM      4  N   UNL     1       5.776   4.427  18.782  0.00  0.00    +0.000 NA
ATOM      5  C   UNL     1       4.833   4.379  17.818  0.00  0.00    +0.000 A 
ATOM      6  N   UNL     1       5.096   4.403  16.501  0.00  0.00    +0.000 NA
ENDROOT
BRANCH   1  11
ATOM      7  C   UNL     1       6.382   3.583  12.631  0.00  0.00    +0.000 A 
ATOM      8  N   UNL     1       7.216   4.478  12.059  0.00  0.00    +0.000 NA
ATOM      9  N   UNL     1       7.825   5.411  12.829  0.00  0.00    +0.000 NA
ATOM     10  C   UNL     1       7.563   5.414  14.148  0.00  0.00    +0.000 A 
ATOM     11  C   UNL     1       6.703   4.490  14.712  0.00  0.00    +0.000 A 
ATOM     12  N   UNL     1       6.097   3.551  13.946  0.00  0.00    +0.000 NA
BRANCH   7  14
ATOM     13  C   UNL     1       4.042   3.266  11.245  0.00  0.00    +0.000 C 
ATOM     14  S   UNL     1       5.572   2.374  11.615  0.00  0.00    +0.000 S 
ENDBRANCH   7  14
ENDBRANCH   1  11
BRANCH   5  15
ATOM     15  S   UNL     1       3.133   4.191  18.277  0.00  0.00    +0.000 S 
BRANCH  15  16
ATOM     16  C   UNL     1       3.273   2.758  19.399  0.00  0.00    +0.000 C 
BRANCH  16  17
ATOM     17  C   UNL     1       1.894   2.295  19.903  0.00  0.00    +0.000 C 
ATOM     18  C   UNL     1       1.429   3.063  21.145  0.00  0.00    +0.000 C 
ATOM     19  C   UNL     1       0.854   2.456  18.791  0.00  0.00    +0.000 C 
ENDBRANCH  16  17
ENDBRANCH  15  16
ENDBRANCH   5  15
TORSDOF 5
ENDMDL
MODEL 3
REMARK VINA RESULT:      -6.7      1.069      1.329
REMARK  Name = 
REMARK  8 active torsions:
REMARK  status: ('A' for Active; 'I' for Inactive)
REMARK    1  A    between atoms: C_1  and  S_2
REMARK    2  A    between atoms: S_2  and  C_3
REMARK    3  A    between atoms: C_7  and  C_8
REMARK    4  A    between atoms: C_12  and  S_13
REMARK    5  A    between atoms: S_13  and  C_14
REMARK    6  A    between atoms: C_14  and  C_15
REMARK    7  A    between atoms: C_15  and  C_16
REMARK    8  A    between atoms: C_15  and  C_17
REMARK                            x       y       z     vdW  Elec       q    Type
REMARK                         _______ _______ _______ _____ _____    ______ ____
ROOT
ATOM      1  C   UNL     1       5.042   4.272  17.760  0.00  0.00    +0.000 A 
ATOM      2  C   UNL     1       6.008   4.438  18.735  0.00  0.00    +0.000 A 
ATOM      3  N   UNL     1       7.300   4.632  18.411  0.00  0.00    +0.000 NA
ATOM      4  N   UNL     1       7.635   4.674  17.097  0.00  0.00    +0.000 NA
ATOM      5  C   UNL     1       6.671   4.518  16.164  0.00  0.00    +0.000 A 
ATOM      6  N   UNL     1       5.374   4.311  16.445  0.00  0.00    +0.000 NA
ENDROOT
BRANCH   1  11
ATOM      7  C   UNL     1       2.006   3.652  19.649  0.00  0.00    +0.000 A 
ATOM      8  N   UNL     1       1.031   3.645  18.715  0.00  0.00    +0.000 NA
ATOM      9  N   UNL     1       1.350   3.841  17.414  0.00  0.00    +0.000 NA
ATOM     10  C   UNL     1       2.642   4.048  17.102  0.00  0.00    +0.000 A 
ATOM     11  C   UNL     1       3.624   4.054  18.076  0.00  0.00    +0.000 A 
ATOM     12  N   UNL     1       3.308   3.850  19.378  0.00  0.00    +0.000 NA
BRANCH   7  14
ATOM     13  C   UNL     1       2.796   2.148  21.796  0.00  0.00    +0.000 C 
ATOM     14  S   UNL     1       1.579   3.412  21.355  0.00  0.00    +0.000 S 
ENDBRANCH   7  14
ENDBRANCH   1  11
BRANCH   5  15
ATOM     15  S   UNL     1       7.093   4.668  14.451  0.00  0.00    +0.000 S 
BRANCH  15  16
ATOM     16  C   UNL     1       5.525   4.113  13.698  0.00  0.00    +0.000 C 
BRANCH  16  17
ATOM     17  C   UNL     1       5.770   3.261  12.439  0.00  0.00    +0.000 C 
ATOM     18  C   UNL     1       4.557   3.227  11.503  0.00  0.00    +0.000 C 
ATOM     19  C   UNL     1       6.983   3.800  11.675  0.00  0.00    +0.000 C 
ENDBRANCH  16  17
ENDBRANCH  15  16
ENDBRANCH   5  15
TORSDOF 5
ENDMDL
MODEL 4
REMARK VINA RESULT:      -6.7      1.488      1.725
REMARK  Name = 
REMARK  8 active torsions:
REMARK  status: ('A' for Active; 'I' for Inactive)
REMARK    1  A    between atoms: C_1  and  S_2
REMARK    2  A    between atoms: S_2  and  C_3
REMARK    3  A    between atoms: C_7  and  C_8
REMARK    4  A    between atoms: C_12  and  S_13
REMARK    5  A    between atoms: S_13  and  C_14
REMARK    6  A    between atoms: C_14  and  C_15
REMARK    7  A    between atoms: C_15  and  C_16
REMARK    8  A    between atoms: C_15  and  C_17
REMARK                            x       y       z     vdW  Elec       q    Type
REMARK                         _______ _______ _______ _____ _____    ______ ____
ROOT
ATOM      1  C   UNL     1       5.611   5.157  17.615  0.00  0.00    +0.000 A 
ATOM      2  C   UNL     1       6.734   4.791  18.334  0.00  0.00    +0.000 A 
ATOM      3  N   UNL     1       7.868   4.414  17.714  0.00  0.00    +0.000 NA
ATOM      4  N   UNL     1       7.890   4.416  16.357  0.00  0.00    +0.000 NA
ATOM      5  C   UNL     1       6.783   4.786  15.678  0.00  0.00    +0.000 A 
ATOM      6  N   UNL     1       5.629   5.156  16.258  0.00  0.00    +0.000 NA
ENDROOT
BRANCH   1  11
ATOM      7  C   UNL     1       2.738   5.169  19.832  0.00  0.00    +0.000 A 
ATOM      8  N   UNL     1       2.049   6.274  19.475  0.00  0.00    +0.000 NA
ATOM      9  N   UNL     1       2.515   7.058  18.473  0.00  0.00    +0.000 NA
ATOM     10  C   UNL     1       3.666   6.703  17.874  0.00  0.00    +0.000 A 
ATOM     11  C   UNL     1       4.356   5.568  18.257  0.00  0.00    +0.000 A 
ATOM     12  N   UNL     1       3.888   4.778  19.255  0.00  0.00    +0.000 NA
BRANCH   7  14
ATOM     13  C   UNL     1       0.862   3.223  20.269  0.00  0.00    +0.000 C 
ATOM     14  S   UNL     1       2.132   4.156  21.158  0.00  0.00    +0.000 S 
ENDBRANCH   7  14
ENDBRANCH   1  11
BRANCH   5  15
ATOM     15  S   UNL     1       6.842   4.878  13.911  0.00  0.00    +0.000 S 
BRANCH  15  16
ATOM     16  C   UNL     1       5.626   3.582  13.494  0.00  0.00    +0.000 C 
BRANCH  16  17
ATOM     17  C   UNL     1       5.594   3.299  11.981  0.00  0.00    +0.000 C 
ATOM     18  C   UNL     1       6.223   1.949  11.618  0.00  0.00    +0.000 C 
ATOM     19  C   UNL     1       4.149   3.335  11.476  0.00  0.00    +0.000 C 
ENDBRANCH  16  17
ENDBRANCH  15  16
ENDBRANCH   5  15
TORSDOF 5
ENDMDL
MODEL 5
REMARK VINA RESULT:      -6.7      1.980      6.736
REMARK  Name = 
REMARK  8 active torsions:
REMARK  status: ('A' for Active; 'I' for Inactive)
REMARK    1  A    between atoms: C_1  and  S_2
REMARK    2  A    between atoms: S_2  and  C_3
REMARK    3  A    between atoms: C_7  and  C_8
REMARK    4  A    between atoms: C_12  and  S_13
REMARK    5  A    between atoms: S_13  and  C_14
REMARK    6  A    between atoms: C_14  and  C_15
REMARK    7  A    between atoms: C_15  and  C_16
REMARK    8  A    between atoms: C_15  and  C_17
REMARK                            x       y       z     vdW  Elec       q    Type
REMARK                         _______ _______ _______ _____ _____    ______ ____
ROOT
ATOM      1  C   UNL     1       4.363   6.159  18.108  0.00  0.00    +0.000 A 
ATOM      2  C   UNL     1       3.860   7.325  17.559  0.00  0.00    +0.000 A 
ATOM      3  N   UNL     1       2.706   7.862  17.999  0.00  0.00    +0.000 NA
ATOM      4  N   UNL     1       2.051   7.238  19.010  0.00  0.00    +0.000 NA
ATOM      5  C   UNL     1       2.567   6.106  19.534  0.00  0.00    +0.000 A 
ATOM      6  N   UNL     1       3.707   5.532  19.116  0.00  0.00    +0.000 NA
ENDROOT
BRANCH   1  11
ATOM      7  C   UNL     1       6.940   4.861  15.907  0.00  0.00    +0.000 A 
ATOM      8  N   UNL     1       7.897   4.412  16.747  0.00  0.00    +0.000 NA
ATOM      9  N   UNL     1       7.717   4.521  18.086  0.00  0.00    +0.000 NA
ATOM     10  C   UNL     1       6.580   5.088  18.528  0.00  0.00    +0.000 A 
ATOM     11  C   UNL     1       5.614   5.542  17.649  0.00  0.00    +0.000 A 
ATOM     12  N   UNL     1       5.789   5.428  16.309  0.00  0.00    +0.000 NA
BRANCH   7  14
ATOM     13  C   UNL     1       5.655   3.896  13.691  0.00  0.00    +0.000 C 
ATOM     14  S   UNL     1       7.190   4.732  14.155  0.00  0.00    +0.000 S 
ENDBRANCH   7  14
ENDBRANCH   1  11
BRANCH   5  15
ATOM     15  S   UNL     1       1.762   5.345  20.914  0.00  0.00    +0.000 S 
BRANCH  15  16
ATOM     16  C   UNL     1       0.868   4.008  20.051  0.00  0.00    +0.000 C 
BRANCH  16  17
ATOM     17  C   UNL     1       1.502   2.632  20.325  0.00  0.00    +0.000 C 
ATOM     18  C   UNL     1       2.277   2.087  19.120  0.00  0.00    +0.000 C 
ATOM     19  C   UNL     1       2.443   2.724  21.530  0.00  0.00    +0.000 C 
ENDBRANCH  16  17
ENDBRANCH  15  16
ENDBRANCH   5  15
TORSDOF 5
ENDMDL
MODEL 6
REMARK VINA RESULT:      -6.6      0.861      1.131
REMARK  Name = 
REMARK  8 active torsions:
REMARK  status: ('A' for Active; 'I' for Inactive)
REMARK    1  A    between atoms: C_1  and  S_2
REMARK    2  A    between atoms: S_2  and  C_3
REMARK    3  A    between atoms: C_7  and  C_8
REMARK    4  A    between atoms: C_12  and  S_13
REMARK    5  A    between atoms: S_13  and  C_14
REMARK    6  A    between atoms: C_14  and  C_15
REMARK    7  A    between atoms: C_15  and  C_16
REMARK    8  A    between atoms: C_15  and  C_17
REMARK                            x       y       z     vdW  Elec       q    Type
REMARK                         _______ _______ _______ _____ _____    ______ ____
ROOT
ATOM      1  C   UNL     1       5.142   4.929  16.998  0.00  0.00    +0.000 A 
ATOM      2  C   UNL     1       5.998   5.778  17.675  0.00  0.00    +0.000 A 
ATOM      3  N   UNL     1       7.157   6.185  17.125  0.00  0.00    +0.000 NA
ATOM      4  N   UNL     1       7.464   5.751  15.876  0.00  0.00    +0.000 NA
ATOM      5  C   UNL     1       6.607   4.929  15.233  0.00  0.00    +0.000 A 
ATOM      6  N   UNL     1       5.448   4.490  15.751  0.00  0.00    +0.000 NA
ENDROOT
BRANCH   1  11
ATOM      7  C   UNL     1       2.271   4.643  19.200  0.00  0.00    +0.000 A 
ATOM      8  N   UNL     1       1.543   3.639  18.666  0.00  0.00    +0.000 NA
ATOM      9  N   UNL     1       1.987   3.012  17.549  0.00  0.00    +0.000 NA
ATOM     10  C   UNL     1       3.145   3.429  17.007  0.00  0.00    +0.000 A 
ATOM     11  C   UNL     1       3.873   4.460  17.570  0.00  0.00    +0.000 A 
ATOM     12  N   UNL     1       3.435   5.084  18.690  0.00  0.00    +0.000 NA
BRANCH   7  14
ATOM     13  C   UNL     1       2.036   7.184  20.191  0.00  0.00    +0.000 C 
ATOM     14  S   UNL     1       1.676   5.472  20.652  0.00  0.00    +0.000 S 
ENDBRANCH   7  14
ENDBRANCH   1  11
BRANCH   5  15
ATOM     15  S   UNL     1       6.962   4.438  13.570  0.00  0.00    +0.000 S 
BRANCH  15  16
ATOM     16  C   UNL     1       5.406   3.574  13.164  0.00  0.00    +0.000 C 
BRANCH  16  17
ATOM     17  C   UNL     1       5.356   3.161  11.682  0.00  0.00    +0.000 C 
ATOM     18  C   UNL     1       5.901   1.748  11.444  0.00  0.00    +0.000 C 
ATOM     19  C   UNL     1       3.916   3.239  11.168  0.00  0.00    +0.000 C 
ENDBRANCH  16  17
ENDBRANCH  15  16
ENDBRANCH   5  15
TORSDOF 5
ENDMDL
MODEL 7
REMARK VINA RESULT:      -6.6      1.093      1.390
REMARK  Name = 
REMARK  8 active torsions:
REMARK  status: ('A' for Active; 'I' for Inactive)
REMARK    1  A    between atoms: C_1  and  S_2
REMARK    2  A    between atoms: S_2  and  C_3
REMARK    3  A    between atoms: C_7  and  C_8
REMARK    4  A    between atoms: C_12  and  S_13
REMARK    5  A    between atoms: S_13  and  C_14
REMARK    6  A    between atoms: C_14  and  C_15
REMARK    7  A    between atoms: C_15  and  C_16
REMARK    8  A    between atoms: C_15  and  C_17
REMARK                            x       y       z     vdW  Elec       q    Type
REMARK                         _______ _______ _______ _____ _____    ______ ____
ROOT
ATOM      1  C   UNL     1       5.274   4.012  17.690  0.00  0.00    +0.000 A 
ATOM      2  C   UNL     1       6.230   4.399  18.611  0.00  0.00    +0.000 A 
ATOM      3  N   UNL     1       7.438   4.845  18.218  0.00  0.00    +0.000 NA
ATOM      4  N   UNL     1       7.695   4.919  16.888  0.00  0.00    +0.000 NA
ATOM      5  C   UNL     1       6.742   4.543  16.009  0.00  0.00    +0.000 A 
ATOM      6  N   UNL     1       5.530   4.082  16.359  0.00  0.00    +0.000 NA
ENDROOT
BRANCH   1  11
ATOM      7  C   UNL     1       2.261   3.448  19.632  0.00  0.00    +0.000 A 
ATOM      8  N   UNL     1       1.515   2.633  18.856  0.00  0.00    +0.000 NA
ATOM      9  N   UNL     1       1.992   2.234  17.653  0.00  0.00    +0.000 NA
ATOM     10  C   UNL     1       3.203   2.681  17.272  0.00  0.00    +0.000 A 
ATOM     11  C   UNL     1       3.948   3.516  18.082  0.00  0.00    +0.000 A 
ATOM     12  N   UNL     1       3.476   3.911  19.290  0.00  0.00    +0.000 NA
BRANCH   7  14
ATOM     13  C   UNL     1       1.559   5.766  20.909  0.00  0.00    +0.000 C 
ATOM     14  S   UNL     1       1.623   3.982  21.200  0.00  0.00    +0.000 S 
ENDBRANCH   7  14
ENDBRANCH   1  11
BRANCH   5  15
ATOM     15  S   UNL     1       7.043   4.728  14.274  0.00  0.00    +0.000 S 
BRANCH  15  16
ATOM     16  C   UNL     1       5.470   4.076  13.616  0.00  0.00    +0.000 C 
BRANCH  16  17
ATOM     17  C   UNL     1       5.695   3.201  12.369  0.00  0.00    +0.000 C 
ATOM     18  C   UNL     1       4.503   3.228  11.406  0.00  0.00    +0.000 C 
ATOM     19  C   UNL     1       6.953   3.665  11.629  0.00  0.00    +0.000 C 
ENDBRANCH  16  17
ENDBRANCH  15  16
ENDBRANCH   5  15
TORSDOF 5
ENDMDL
MODEL 8
REMARK VINA RESULT:      -6.6      2.166      7.037
REMARK  Name = 
REMARK  8 active torsions:
REMARK  status: ('A' for Active; 'I' for Inactive)
REMARK    1  A    between atoms: C_1  and  S_2
REMARK    2  A    between atoms: S_2  and  C_3
REMARK    3  A    between atoms: C_7  and  C_8
REMARK    4  A    between atoms: C_12  and  S_13
REMARK    5  A    between atoms: S_13  and  C_14
REMARK    6  A    between atoms: C_14  and  C_15
REMARK    7  A    between atoms: C_15  and  C_16
REMARK    8  A    between atoms: C_15  and  C_17
REMARK                            x       y       z     vdW  Elec       q    Type
REMARK                         _______ _______ _______ _____ _____    ______ ____
ROOT
ATOM      1  C   UNL     1       6.407   4.345  16.270  0.00  0.00    +0.000 A 
ATOM      2  C   UNL     1       7.342   4.645  17.244  0.00  0.00    +0.000 A 
ATOM      3  N   UNL     1       7.038   4.559  18.553  0.00  0.00    +0.000 NA
ATOM      4  N   UNL     1       5.789   4.156  18.899  0.00  0.00    +0.000 NA
ATOM      5  C   UNL     1       4.898   3.861  17.928  0.00  0.00    +0.000 A 
ATOM      6  N   UNL     1       5.156   3.945  16.613  0.00  0.00    +0.000 NA
ENDROOT
BRANCH   1  11
ATOM      7  C   UNL     1       6.319   3.673  12.705  0.00  0.00    +0.000 A 
ATOM      8  N   UNL     1       7.204   4.548  12.181  0.00  0.00    +0.000 NA
ATOM      9  N   UNL     1       7.870   5.395  13.001  0.00  0.00    +0.000 NA
ATOM     10  C   UNL     1       7.613   5.335  14.320  0.00  0.00    +0.000 A 
ATOM     11  C   UNL     1       6.701   4.432  14.834  0.00  0.00    +0.000 A 
ATOM     12  N   UNL     1       6.037   3.578  14.017  0.00  0.00    +0.000 NA
BRANCH   7  14
ATOM     13  C   UNL     1       6.796   1.509  11.096  0.00  0.00    +0.000 C 
ATOM     14  S   UNL     1       5.434   2.577  11.624  0.00  0.00    +0.000 S 
ENDBRANCH   7  14
ENDBRANCH   1  11
BRANCH   5  15
ATOM     15  S   UNL     1       3.300   3.245  18.379  0.00  0.00    +0.000 S 
BRANCH  15  16
ATOM     16  C   UNL     1       2.825   4.497  19.619  0.00  0.00    +0.000 C 
BRANCH  16  17
ATOM     17  C   UNL     1       1.643   4.020  20.484  0.00  0.00    +0.000 C 
ATOM     18  C   UNL     1       0.648   3.157  19.700  0.00  0.00    +0.000 C 
ATOM     19  C   UNL     1       2.165   3.226  21.684  0.00  0.00    +0.000 C 
ENDBRANCH  16  17
ENDBRANCH  15  16
ENDBRANCH   5  15
TORSDOF 5
ENDMDL
MODEL 9
REMARK VINA RESULT:      -6.5      1.877      6.827
REMARK  Name = 
REMARK  8 active torsions:
REMARK  status: ('A' for Active; 'I' for Inactive)
REMARK    1  A    between atoms: C_1  and  S_2
REMARK    2  A    between atoms: S_2  and  C_3
REMARK    3  A    between atoms: C_7  and  C_8
REMARK    4  A    between atoms: C_12  and  S_13
REMARK    5  A    between atoms: S_13  and  C_14
REMARK    6  A    between atoms: C_14  and  C_15
REMARK    7  A    between atoms: C_15  and  C_16
REMARK    8  A    between atoms: C_15  and  C_17
REMARK                            x       y       z     vdW  Elec       q    Type
REMARK                         _______ _______ _______ _____ _____    ______ ____
ROOT
ATOM      1  C   UNL     1       5.506   4.343  17.021  0.00  0.00    +0.000 A 
ATOM      2  C   UNL     1       6.008   5.044  18.102  0.00  0.00    +0.000 A 
ATOM      3  N   UNL     1       5.477   4.904  19.331  0.00  0.00    +0.000 NA
ATOM      4  N   UNL     1       4.440   4.044  19.490  0.00  0.00    +0.000 NA
ATOM      5  C   UNL     1       3.975   3.365  18.420  0.00  0.00    +0.000 A 
ATOM      6  N   UNL     1       4.467   3.484  17.176  0.00  0.00    +0.000 NA
ENDROOT
BRANCH   1  11
ATOM      7  C   UNL     1       5.873   4.030  13.423  0.00  0.00    +0.000 A 
ATOM      8  N   UNL     1       7.022   4.684  13.150  0.00  0.00    +0.000 NA
ATOM      9  N   UNL     1       7.724   5.252  14.159  0.00  0.00    +0.000 NA
ATOM     10  C   UNL     1       7.236   5.148  15.408  0.00  0.00    +0.000 A 
ATOM     11  C   UNL     1       6.056   4.475  15.665  0.00  0.00    +0.000 A 
ATOM     12  N   UNL     1       5.354   3.900  14.658  0.00  0.00    +0.000 NA
BRANCH   7  14
ATOM     13  C   UNL     1       6.111   2.017  11.583  0.00  0.00    +0.000 C 
ATOM     14  S   UNL     1       4.947   3.304  12.094  0.00  0.00    +0.000 S 
ENDBRANCH   7  14
ENDBRANCH   1  11
BRANCH   5  15
ATOM     15  S   UNL     1       2.685   2.173  18.645  0.00  0.00    +0.000 S 
BRANCH  15  16
ATOM     16  C   UNL     1       1.249   3.292  18.773  0.00  0.00    +0.000 C 
BRANCH  16  17
ATOM     17  C   UNL     1       0.901   3.604  20.239  0.00  0.00    +0.000 C 
ATOM     18  C   UNL     1       1.525   2.606  21.221  0.00  0.00    +0.000 C 
ATOM     19  C   UNL     1       1.367   5.019  20.594  0.00  0.00    +0.000 C 
ENDBRANCH  16  17
ENDBRANCH  15  16
ENDBRANCH   5  15
TORSDOF 5
ENDMDL
