MODEL 1
REMARK VINA RESULT:      -7.9      0.000      0.000
REMARK  Name = 
REMARK  7 active torsions:
REMARK  status: ('A' for Active; 'I' for Inactive)
REMARK    1  A    between atoms: C_2  and  C_3
REMARK    2  A    between atoms: C_4  and  C_5
REMARK    3  A    between atoms: C_12  and  S_13
REMARK    4  A    between atoms: S_13  and  C_14
REMARK    5  A    between atoms: C_14  and  O_15
REMARK    6  A    between atoms: O_15  and  C_16
REMARK    7  A    between atoms: C_16  and  C_17
REMARK                            x       y       z     vdW  Elec       q    Type
REMARK                         _______ _______ _______ _____ _____    ______ ____
ROOT
ATOM      1  C   UNL     1       3.155   4.525  19.553  0.00  0.00    +0.000 A 
ATOM      2  C   UNL     1       3.636   5.741  19.218  0.00  0.00    +0.000 A 
ATOM      3  N   UNL     1       4.958   6.004  18.888  0.00  0.00    +0.000 NA
ATOM      4  C   UNL     1       5.775   5.008  18.920  0.00  0.00    +0.000 A 
ATOM      5  N   UNL     1       5.413   3.747  19.259  0.00  0.00    +0.000 N 
ATOM      6  C   UNL     1       4.134   3.415  19.588  0.00  0.00    +0.000 A 
ATOM      7  O   UNL     1       3.832   2.269  19.900  0.00  0.00    +0.000 OA
ATOM      8  H   UNL     1       6.113   3.016  19.274  0.00  0.00    +0.000 HD
ENDROOT
BRANCH   2   9
ATOM      9  C   UNL     1       2.732   6.915  19.215  0.00  0.00    +0.000 A 
ATOM     10  C   UNL     1       2.512   7.624  18.025  0.00  0.00    +0.000 A 
ATOM     11  C   UNL     1       1.684   8.750  18.014  0.00  0.00    +0.000 A 
ATOM     12  C   UNL     1       1.063   9.170  19.188  0.00  0.00    +0.000 A 
ATOM     13  C   UNL     1       1.268   8.468  20.375  0.00  0.00    +0.000 A 
ATOM     14  C   UNL     1       2.103   7.346  20.391  0.00  0.00    +0.000 A 
ENDBRANCH   2   9
BRANCH   1  16
ATOM     15  N   UNL     1       0.700   4.008  20.158  0.00  0.00    +0.000 NA
ATOM     16  C   UNL     1       1.800   4.246  19.883  0.00  0.00    +0.000 C 
ENDBRANCH   1  16
BRANCH   4  17
ATOM     17  S   UNL     1       7.450   5.091  18.507  0.00  0.00    +0.000 S 
BRANCH  17  18
ATOM     18  C   UNL     1       7.515   6.599  17.511  0.00  0.00    +0.000 C 
BRANCH  18  19
ATOM     19  O   UNL     1       7.181   6.270  16.163  0.00  0.00    +0.000 OA
BRANCH  19  20
ATOM     20  C   UNL     1       7.211   4.867  15.910  0.00  0.00    +0.000 C 
BRANCH  20  21
ATOM     21  C   UNL     1       6.935   4.560  14.451  0.00  0.00    +0.000 A 
ATOM     22  C   UNL     1       5.901   3.703  14.046  0.00  0.00    +0.000 A 
ATOM     23  C   UNL     1       5.709   3.402  12.695  0.00  0.00    +0.000 A 
ATOM     24  C   UNL     1       6.539   3.962  11.728  0.00  0.00    +0.000 A 
ATOM     25  C   UNL     1       7.555   4.834  12.110  0.00  0.00    +0.000 A 
ATOM     26  C   UNL     1       7.752   5.131  13.462  0.00  0.00    +0.000 A 
ENDBRANCH  20  21
ENDBRANCH  19  20
ENDBRANCH  18  19
ENDBRANCH  17  18
ENDBRANCH   4  17
TORSDOF 7
ENDMDL
MODEL 2
REMARK VINA RESULT:      -7.7      3.719      6.276
REMARK  Name = 
REMARK  7 active torsions:
REMARK  status: ('A' for Active; 'I' for Inactive)
REMARK    1  A    between atoms: C_2  and  C_3
REMARK    2  A    between atoms: C_4  and  C_5
REMARK    3  A    between atoms: C_12  and  S_13
REMARK    4  A    between atoms: S_13  and  C_14
REMARK    5  A    between atoms: C_14  and  O_15
REMARK    6  A    between atoms: O_15  and  C_16
REMARK    7  A    between atoms: C_16  and  C_17
REMARK                            x       y       z     vdW  Elec       q    Type
REMARK                         _______ _______ _______ _____ _____    ______ ____
ROOT
ATOM      1  C   UNL     1       4.355   4.251  17.467  0.00  0.00    +0.000 A 
ATOM      2  C   UNL     1       4.560   4.453  18.786  0.00  0.00    +0.000 A 
ATOM      3  N   UNL     1       5.681   5.066  19.326  0.00  0.00    +0.000 NA
ATOM      4  C   UNL     1       6.588   5.453  18.497  0.00  0.00    +0.000 A 
ATOM      5  N   UNL     1       6.503   5.288  17.155  0.00  0.00    +0.000 N 
ATOM      6  C   UNL     1       5.431   4.702  16.556  0.00  0.00    +0.000 A 
ATOM      7  O   UNL     1       5.380   4.556  15.340  0.00  0.00    +0.000 OA
ATOM      8  H   UNL     1       7.262   5.608  16.566  0.00  0.00    +0.000 HD
ENDROOT
BRANCH   2   9
ATOM      9  C   UNL     1       3.556   3.980  19.768  0.00  0.00    +0.000 A 
ATOM     10  C   UNL     1       2.415   4.752  20.028  0.00  0.00    +0.000 A 
ATOM     11  C   UNL     1       1.475   4.331  20.973  0.00  0.00    +0.000 A 
ATOM     12  C   UNL     1       1.662   3.131  21.656  0.00  0.00    +0.000 A 
ATOM     13  C   UNL     1       2.788   2.351  21.398  0.00  0.00    +0.000 A 
ATOM     14  C   UNL     1       3.736   2.774  20.460  0.00  0.00    +0.000 A 
ENDBRANCH   2   9
BRANCH   1  16
ATOM     15  N   UNL     1       2.274   3.123  16.438  0.00  0.00    +0.000 NA
ATOM     16  C   UNL     1       3.204   3.633  16.905  0.00  0.00    +0.000 C 
ENDBRANCH   1  16
BRANCH   4  17
ATOM     17  S   UNL     1       8.043   6.274  18.938  0.00  0.00    +0.000 S 
BRANCH  17  18
ATOM     18  C   UNL     1       7.928   7.791  17.959  0.00  0.00    +0.000 C 
BRANCH  18  19
ATOM     19  O   UNL     1       8.507   8.861  18.704  0.00  0.00    +0.000 OA
BRANCH  19  20
ATOM     20  C   UNL     1       8.635  10.061  17.945  0.00  0.00    +0.000 C 
BRANCH  20  21
ATOM     21  C   UNL     1       9.714  10.964  18.509  0.00  0.00    +0.000 A 
ATOM     22  C   UNL     1      10.649  11.619  17.693  0.00  0.00    +0.000 A 
ATOM     23  C   UNL     1      11.662  12.403  18.252  0.00  0.00    +0.000 A 
ATOM     24  C   UNL     1      11.749  12.553  19.633  0.00  0.00    +0.000 A 
ATOM     25  C   UNL     1      10.815  11.929  20.457  0.00  0.00    +0.000 A 
ATOM     26  C   UNL     1       9.805  11.140  19.899  0.00  0.00    +0.000 A 
ENDBRANCH  20  21
ENDBRANCH  19  20
ENDBRANCH  18  19
ENDBRANCH  17  18
ENDBRANCH   4  17
TORSDOF 7
ENDMDL
MODEL 3
REMARK VINA RESULT:      -7.6      3.383      7.695
REMARK  Name = 
REMARK  7 active torsions:
REMARK  status: ('A' for Active; 'I' for Inactive)
REMARK    1  A    between atoms: C_2  and  C_3
REMARK    2  A    between atoms: C_4  and  C_5
REMARK    3  A    between atoms: C_12  and  S_13
REMARK    4  A    between atoms: S_13  and  C_14
REMARK    5  A    between atoms: C_14  and  O_15
REMARK    6  A    between atoms: O_15  and  C_16
REMARK    7  A    between atoms: C_16  and  C_17
REMARK                            x       y       z     vdW  Elec       q    Type
REMARK                         _______ _______ _______ _____ _____    ______ ____
ROOT
ATOM      1  C   UNL     1       3.363   4.372  19.702  0.00  0.00    +0.000 A 
ATOM      2  C   UNL     1       3.821   5.326  18.864  0.00  0.00    +0.000 A 
ATOM      3  N   UNL     1       3.368   6.637  18.837  0.00  0.00    +0.000 NA
ATOM      4  C   UNL     1       2.434   6.947  19.670  0.00  0.00    +0.000 A 
ATOM      5  N   UNL     1       1.884   6.071  20.545  0.00  0.00    +0.000 N 
ATOM      6  C   UNL     1       2.283   4.773  20.631  0.00  0.00    +0.000 A 
ATOM      7  O   UNL     1       1.764   3.997  21.425  0.00  0.00    +0.000 OA
ATOM      8  H   UNL     1       1.145   6.384  21.162  0.00  0.00    +0.000 HD
ENDROOT
BRANCH   2   9
ATOM      9  C   UNL     1       4.862   4.991  17.864  0.00  0.00    +0.000 A 
ATOM     10  C   UNL     1       6.217   5.132  18.194  0.00  0.00    +0.000 A 
ATOM     11  C   UNL     1       7.209   4.846  17.251  0.00  0.00    +0.000 A 
ATOM     12  C   UNL     1       6.855   4.408  15.977  0.00  0.00    +0.000 A 
ATOM     13  C   UNL     1       5.510   4.257  15.641  0.00  0.00    +0.000 A 
ATOM     14  C   UNL     1       4.515   4.550  16.579  0.00  0.00    +0.000 A 
ENDBRANCH   2   9
BRANCH   1  16
ATOM     15  N   UNL     1       4.223   1.939  19.770  0.00  0.00    +0.000 NA
ATOM     16  C   UNL     1       3.830   3.029  19.742  0.00  0.00    +0.000 C 
ENDBRANCH   1  16
BRANCH   4  17
ATOM     17  S   UNL     1       1.749   8.523  19.844  0.00  0.00    +0.000 S 
BRANCH  17  18
ATOM     18  C   UNL     1       1.854   9.165  18.156  0.00  0.00    +0.000 C 
BRANCH  18  19
ATOM     19  O   UNL     1       0.531   9.382  17.667  0.00  0.00    +0.000 OA
BRANCH  19  20
ATOM     20  C   UNL     1      -0.223  10.277  18.482  0.00  0.00    +0.000 C 
BRANCH  20  21
ATOM     21  C   UNL     1      -1.623  10.480  17.938  0.00  0.00    +0.000 A 
ATOM     22  C   UNL     1      -2.056   9.893  16.739  0.00  0.00    +0.000 A 
ATOM     23  C   UNL     1      -3.338  10.144  16.242  0.00  0.00    +0.000 A 
ATOM     24  C   UNL     1      -4.210  10.975  16.940  0.00  0.00    +0.000 A 
ATOM     25  C   UNL     1      -3.804  11.546  18.144  0.00  0.00    +0.000 A 
ATOM     26  C   UNL     1      -2.520  11.300  18.640  0.00  0.00    +0.000 A 
ENDBRANCH  20  21
ENDBRANCH  19  20
ENDBRANCH  18  19
ENDBRANCH  17  18
ENDBRANCH   4  17
TORSDOF 7
ENDMDL
MODEL 4
REMARK VINA RESULT:      -7.6      3.824      7.962
REMARK  Name = 
REMARK  7 active torsions:
REMARK  status: ('A' for Active; 'I' for Inactive)
REMARK    1  A    between atoms: C_2  and  C_3
REMARK    2  A    between atoms: C_4  and  C_5
REMARK    3  A    between atoms: C_12  and  S_13
REMARK    4  A    between atoms: S_13  and  C_14
REMARK    5  A    between atoms: C_14  and  O_15
REMARK    6  A    between atoms: O_15  and  C_16
REMARK    7  A    between atoms: C_16  and  C_17
REMARK                            x       y       z     vdW  Elec       q    Type
REMARK                         _______ _______ _______ _____ _____    ______ ____
ROOT
ATOM      1  C   UNL     1       3.700   5.638  17.748  0.00  0.00    +0.000 A 
ATOM      2  C   UNL     1       2.689   5.878  18.609  0.00  0.00    +0.000 A 
ATOM      3  N   UNL     1       2.089   7.115  18.798  0.00  0.00    +0.000 NA
ATOM      4  C   UNL     1       2.550   8.097  18.102  0.00  0.00    +0.000 A 
ATOM      5  N   UNL     1       3.572   7.982  17.221  0.00  0.00    +0.000 N 
ATOM      6  C   UNL     1       4.203   6.800  16.981  0.00  0.00    +0.000 A 
ATOM      7  O   UNL     1       5.131   6.722  16.185  0.00  0.00    +0.000 OA
ATOM      8  H   UNL     1       3.889   8.802  16.717  0.00  0.00    +0.000 HD
ENDROOT
BRANCH   2   9
ATOM      9  C   UNL     1       2.167   4.780  19.456  0.00  0.00    +0.000 A 
ATOM     10  C   UNL     1       2.568   4.680  20.796  0.00  0.00    +0.000 A 
ATOM     11  C   UNL     1       2.106   3.633  21.598  0.00  0.00    +0.000 A 
ATOM     12  C   UNL     1       1.232   2.685  21.071  0.00  0.00    +0.000 A 
ATOM     13  C   UNL     1       0.819   2.780  19.742  0.00  0.00    +0.000 A 
ATOM     14  C   UNL     1       1.287   3.821  18.934  0.00  0.00    +0.000 A 
ENDBRANCH   2   9
BRANCH   1  16
ATOM     15  N   UNL     1       4.825   3.346  17.369  0.00  0.00    +0.000 NA
ATOM     16  C   UNL     1       4.314   4.372  17.543  0.00  0.00    +0.000 C 
ENDBRANCH   1  16
BRANCH   4  17
ATOM     17  S   UNL     1       1.931   9.709  18.140  0.00  0.00    +0.000 S 
BRANCH  17  18
ATOM     18  C   UNL     1       0.870   9.669  19.604  0.00  0.00    +0.000 C 
BRANCH  18  19
ATOM     19  O   UNL     1      -0.440  10.098  19.231  0.00  0.00    +0.000 OA
BRANCH  19  20
ATOM     20  C   UNL     1      -0.673  10.011  17.827  0.00  0.00    +0.000 C 
BRANCH  20  21
ATOM     21  C   UNL     1      -2.047  10.535  17.459  0.00  0.00    +0.000 A 
ATOM     22  C   UNL     1      -2.857  11.229  18.371  0.00  0.00    +0.000 A 
ATOM     23  C   UNL     1      -4.139  11.652  18.011  0.00  0.00    +0.000 A 
ATOM     24  C   UNL     1      -4.627  11.400  16.732  0.00  0.00    +0.000 A 
ATOM     25  C   UNL     1      -3.827  10.734  15.806  0.00  0.00    +0.000 A 
ATOM     26  C   UNL     1      -2.546  10.305  16.167  0.00  0.00    +0.000 A 
ENDBRANCH  20  21
ENDBRANCH  19  20
ENDBRANCH  18  19
ENDBRANCH  17  18
ENDBRANCH   4  17
TORSDOF 7
ENDMDL
MODEL 5
REMARK VINA RESULT:      -7.5      0.620      1.152
REMARK  Name = 
REMARK  7 active torsions:
REMARK  status: ('A' for Active; 'I' for Inactive)
REMARK    1  A    between atoms: C_2  and  C_3
REMARK    2  A    between atoms: C_4  and  C_5
REMARK    3  A    between atoms: C_12  and  S_13
REMARK    4  A    between atoms: S_13  and  C_14
REMARK    5  A    between atoms: C_14  and  O_15
REMARK    6  A    between atoms: O_15  and  C_16
REMARK    7  A    between atoms: C_16  and  C_17
REMARK                            x       y       z     vdW  Elec       q    Type
REMARK                         _______ _______ _______ _____ _____    ______ ____
ROOT
ATOM      1  C   UNL     1       3.196   4.417  19.328  0.00  0.00    +0.000 A 
ATOM      2  C   UNL     1       3.700   5.667  19.249  0.00  0.00    +0.000 A 
ATOM      3  N   UNL     1       5.042   5.968  19.070  0.00  0.00    +0.000 NA
ATOM      4  C   UNL     1       5.855   4.971  18.988  0.00  0.00    +0.000 A 
ATOM      5  N   UNL     1       5.471   3.675  19.073  0.00  0.00    +0.000 N 
ATOM      6  C   UNL     1       4.171   3.307  19.241  0.00  0.00    +0.000 A 
ATOM      7  O   UNL     1       3.848   2.127  19.323  0.00  0.00    +0.000 OA
ATOM      8  H   UNL     1       6.169   2.945  19.011  0.00  0.00    +0.000 HD
ENDROOT
BRANCH   2   9
ATOM      9  C   UNL     1       2.797   6.834  19.384  0.00  0.00    +0.000 A 
ATOM     10  C   UNL     1       2.225   7.134  20.629  0.00  0.00    +0.000 A 
ATOM     11  C   UNL     1       1.350   8.215  20.765  0.00  0.00    +0.000 A 
ATOM     12  C   UNL     1       1.047   9.010  19.661  0.00  0.00    +0.000 A 
ATOM     13  C   UNL     1       1.617   8.726  18.421  0.00  0.00    +0.000 A 
ATOM     14  C   UNL     1       2.486   7.639  18.280  0.00  0.00    +0.000 A 
ENDBRANCH   2   9
BRANCH   1  16
ATOM     15  N   UNL     1       0.699   3.850  19.655  0.00  0.00    +0.000 NA
ATOM     16  C   UNL     1       1.821   4.101  19.501  0.00  0.00    +0.000 C 
ENDBRANCH   1  16
BRANCH   4  17
ATOM     17  S   UNL     1       7.557   5.106  18.723  0.00  0.00    +0.000 S 
BRANCH  17  18
ATOM     18  C   UNL     1       7.707   4.607  16.992  0.00  0.00    +0.000 C 
BRANCH  18  19
ATOM     19  O   UNL     1       7.364   5.718  16.165  0.00  0.00    +0.000 OA
BRANCH  19  20
ATOM     20  C   UNL     1       6.121   5.544  15.488  0.00  0.00    +0.000 C 
BRANCH  20  21
ATOM     21  C   UNL     1       6.305   4.834  14.162  0.00  0.00    +0.000 A 
ATOM     22  C   UNL     1       5.446   3.812  13.730  0.00  0.00    +0.000 A 
ATOM     23  C   UNL     1       5.676   3.144  12.524  0.00  0.00    +0.000 A 
ATOM     24  C   UNL     1       6.761   3.495  11.726  0.00  0.00    +0.000 A 
ATOM     25  C   UNL     1       7.611   4.524  12.128  0.00  0.00    +0.000 A 
ATOM     26  C   UNL     1       7.384   5.189  13.336  0.00  0.00    +0.000 A 
ENDBRANCH  20  21
ENDBRANCH  19  20
ENDBRANCH  18  19
ENDBRANCH  17  18
ENDBRANCH   4  17
TORSDOF 7
ENDMDL
MODEL 6
REMARK VINA RESULT:      -7.5      0.989      1.547
REMARK  Name = 
REMARK  7 active torsions:
REMARK  status: ('A' for Active; 'I' for Inactive)
REMARK    1  A    between atoms: C_2  and  C_3
REMARK    2  A    between atoms: C_4  and  C_5
REMARK    3  A    between atoms: C_12  and  S_13
REMARK    4  A    between atoms: S_13  and  C_14
REMARK    5  A    between atoms: C_14  and  O_15
REMARK    6  A    between atoms: O_15  and  C_16
REMARK    7  A    between atoms: C_16  and  C_17
REMARK                            x       y       z     vdW  Elec       q    Type
REMARK                         _______ _______ _______ _____ _____    ______ ____
ROOT
ATOM      1  C   UNL     1       3.177   4.325  19.214  0.00  0.00    +0.000 A 
ATOM      2  C   UNL     1       3.671   5.527  18.850  0.00  0.00    +0.000 A 
ATOM      3  N   UNL     1       4.957   5.742  18.375  0.00  0.00    +0.000 NA
ATOM      4  C   UNL     1       5.726   4.711  18.294  0.00  0.00    +0.000 A 
ATOM      5  N   UNL     1       5.349   3.459  18.649  0.00  0.00    +0.000 N 
ATOM      6  C   UNL     1       4.102   3.174  19.115  0.00  0.00    +0.000 A 
ATOM      7  O   UNL     1       3.787   2.035  19.438  0.00  0.00    +0.000 OA
ATOM      8  H   UNL     1       6.013   2.699  18.569  0.00  0.00    +0.000 HD
ENDROOT
BRANCH   2   9
ATOM      9  C   UNL     1       2.827   6.739  18.973  0.00  0.00    +0.000 A 
ATOM     10  C   UNL     1       2.574   7.531  17.844  0.00  0.00    +0.000 A 
ATOM     11  C   UNL     1       1.802   8.692  17.952  0.00  0.00    +0.000 A 
ATOM     12  C   UNL     1       1.270   9.064  19.185  0.00  0.00    +0.000 A 
ATOM     13  C   UNL     1       1.508   8.278  20.312  0.00  0.00    +0.000 A 
ATOM     14  C   UNL     1       2.287   7.121  20.209  0.00  0.00    +0.000 A 
ENDBRANCH   2   9
BRANCH   1  16
ATOM     15  N   UNL     1       0.782   3.922  20.088  0.00  0.00    +0.000 NA
ATOM     16  C   UNL     1       1.857   4.097  19.692  0.00  0.00    +0.000 C 
ENDBRANCH   1  16
BRANCH   4  17
ATOM     17  S   UNL     1       7.346   4.733  17.694  0.00  0.00    +0.000 S 
BRANCH  17  18
ATOM     18  C   UNL     1       7.126   5.453  16.050  0.00  0.00    +0.000 C 
BRANCH  18  19
ATOM     19  O   UNL     1       6.718   4.423  15.150  0.00  0.00    +0.000 OA
BRANCH  19  20
ATOM     20  C   UNL     1       7.103   4.680  13.801  0.00  0.00    +0.000 C 
BRANCH  20  21
ATOM     21  C   UNL     1       6.370   3.773  12.832  0.00  0.00    +0.000 A 
ATOM     22  C   UNL     1       7.021   2.763  12.108  0.00  0.00    +0.000 A 
ATOM     23  C   UNL     1       6.323   1.980  11.185  0.00  0.00    +0.000 A 
ATOM     24  C   UNL     1       4.961   2.187  10.980  0.00  0.00    +0.000 A 
ATOM     25  C   UNL     1       4.294   3.169  11.708  0.00  0.00    +0.000 A 
ATOM     26  C   UNL     1       4.993   3.957  12.627  0.00  0.00    +0.000 A 
ENDBRANCH  20  21
ENDBRANCH  19  20
ENDBRANCH  18  19
ENDBRANCH  17  18
ENDBRANCH   4  17
TORSDOF 7
ENDMDL
MODEL 7
REMARK VINA RESULT:      -7.5      3.385      7.652
REMARK  Name = 
REMARK  7 active torsions:
REMARK  status: ('A' for Active; 'I' for Inactive)
REMARK    1  A    between atoms: C_2  and  C_3
REMARK    2  A    between atoms: C_4  and  C_5
REMARK    3  A    between atoms: C_12  and  S_13
REMARK    4  A    between atoms: S_13  and  C_14
REMARK    5  A    between atoms: C_14  and  O_15
REMARK    6  A    between atoms: O_15  and  C_16
REMARK    7  A    between atoms: C_16  and  C_17
REMARK                            x       y       z     vdW  Elec       q    Type
REMARK                         _______ _______ _______ _____ _____    ______ ____
ROOT
ATOM      1  C   UNL     1       2.836   3.797  19.162  0.00  0.00    +0.000 A 
ATOM      2  C   UNL     1       3.512   4.938  18.910  0.00  0.00    +0.000 A 
ATOM      3  N   UNL     1       3.156   6.190  19.390  0.00  0.00    +0.000 NA
ATOM      4  C   UNL     1       2.093   6.253  20.117  0.00  0.00    +0.000 A 
ATOM      5  N   UNL     1       1.323   5.181  20.421  0.00  0.00    +0.000 N 
ATOM      6  C   UNL     1       1.616   3.923  19.990  0.00  0.00    +0.000 A 
ATOM      7  O   UNL     1       0.899   2.970  20.271  0.00  0.00    +0.000 OA
ATOM      8  H   UNL     1       0.495   5.309  20.988  0.00  0.00    +0.000 HD
ENDROOT
BRANCH   2   9
ATOM      9  C   UNL     1       4.712   4.906  18.042  0.00  0.00    +0.000 A 
ATOM     10  C   UNL     1       4.570   5.003  16.650  0.00  0.00    +0.000 A 
ATOM     11  C   UNL     1       5.692   4.946  15.817  0.00  0.00    +0.000 A 
ATOM     12  C   UNL     1       6.963   4.802  16.369  0.00  0.00    +0.000 A 
ATOM     13  C   UNL     1       7.117   4.714  17.752  0.00  0.00    +0.000 A 
ATOM     14  C   UNL     1       5.996   4.762  18.588  0.00  0.00    +0.000 A 
ENDBRANCH   2   9
BRANCH   1  16
ATOM     15  N   UNL     1       3.504   1.466  18.277  0.00  0.00    +0.000 NA
ATOM     16  C   UNL     1       3.201   2.510  18.681  0.00  0.00    +0.000 C 
ENDBRANCH   1  16
BRANCH   4  17
ATOM     17  S   UNL     1       1.486   7.692  20.855  0.00  0.00    +0.000 S 
BRANCH  17  18
ATOM     18  C   UNL     1       1.464   8.846  19.462  0.00  0.00    +0.000 C 
BRANCH  18  19
ATOM     19  O   UNL     1       0.363   9.740  19.628  0.00  0.00    +0.000 OA
BRANCH  19  20
ATOM     20  C   UNL     1       0.148  10.572  18.490  0.00  0.00    +0.000 C 
BRANCH  20  21
ATOM     21  C   UNL     1      -1.316  10.615  18.101  0.00  0.00    +0.000 A 
ATOM     22  C   UNL     1      -1.833   9.864  17.035  0.00  0.00    +0.000 A 
ATOM     23  C   UNL     1      -3.180   9.968  16.673  0.00  0.00    +0.000 A 
ATOM     24  C   UNL     1      -4.031  10.814  17.378  0.00  0.00    +0.000 A 
ATOM     25  C   UNL     1      -3.539  11.548  18.455  0.00  0.00    +0.000 A 
ATOM     26  C   UNL     1      -2.192  11.449  18.814  0.00  0.00    +0.000 A 
ENDBRANCH  20  21
ENDBRANCH  19  20
ENDBRANCH  18  19
ENDBRANCH  17  18
ENDBRANCH   4  17
TORSDOF 7
ENDMDL
MODEL 8
REMARK VINA RESULT:      -7.5      0.695      1.537
REMARK  Name = 
REMARK  7 active torsions:
REMARK  status: ('A' for Active; 'I' for Inactive)
REMARK    1  A    between atoms: C_2  and  C_3
REMARK    2  A    between atoms: C_4  and  C_5
REMARK    3  A    between atoms: C_12  and  S_13
REMARK    4  A    between atoms: S_13  and  C_14
REMARK    5  A    between atoms: C_14  and  O_15
REMARK    6  A    between atoms: O_15  and  C_16
REMARK    7  A    between atoms: C_16  and  C_17
REMARK                            x       y       z     vdW  Elec       q    Type
REMARK                         _______ _______ _______ _____ _____    ______ ____
ROOT
ATOM      1  C   UNL     1       3.121   4.488  19.604  0.00  0.00    +0.000 A 
ATOM      2  C   UNL     1       3.632   5.712  19.355  0.00  0.00    +0.000 A 
ATOM      3  N   UNL     1       4.972   5.973  19.107  0.00  0.00    +0.000 NA
ATOM      4  C   UNL     1       5.775   4.965  19.133  0.00  0.00    +0.000 A 
ATOM      5  N   UNL     1       5.382   3.694  19.391  0.00  0.00    +0.000 N 
ATOM      6  C   UNL     1       4.084   3.365  19.636  0.00  0.00    +0.000 A 
ATOM      7  O   UNL     1       3.753   2.209  19.875  0.00  0.00    +0.000 OA
ATOM      8  H   UNL     1       6.072   2.954  19.406  0.00  0.00    +0.000 HD
ENDROOT
BRANCH   2   9
ATOM      9  C   UNL     1       2.743   6.897  19.362  0.00  0.00    +0.000 A 
ATOM     10  C   UNL     1       2.096   7.277  20.547  0.00  0.00    +0.000 A 
ATOM     11  C   UNL     1       1.232   8.377  20.561  0.00  0.00    +0.000 A 
ATOM     12  C   UNL     1       1.016   9.109  19.395  0.00  0.00    +0.000 A 
ATOM     13  C   UNL     1       1.661   8.744  18.214  0.00  0.00    +0.000 A 
ATOM     14  C   UNL     1       2.519   7.640  18.194  0.00  0.00    +0.000 A 
ENDBRANCH   2   9
BRANCH   1  16
ATOM     15  N   UNL     1       0.630   3.974  20.046  0.00  0.00    +0.000 NA
ATOM     16  C   UNL     1       1.748   4.212  19.849  0.00  0.00    +0.000 C 
ENDBRANCH   1  16
BRANCH   4  17
ATOM     17  S   UNL     1       7.471   5.045  18.813  0.00  0.00    +0.000 S 
BRANCH  17  18
ATOM     18  C   UNL     1       7.511   5.025  17.005  0.00  0.00    +0.000 C 
BRANCH  18  19
ATOM     19  O   UNL     1       6.513   4.120  16.535  0.00  0.00    +0.000 OA
BRANCH  19  20
ATOM     20  C   UNL     1       5.651   4.701  15.560  0.00  0.00    +0.000 C 
BRANCH  20  21
ATOM     21  C   UNL     1       6.096   4.362  14.151  0.00  0.00    +0.000 A 
ATOM     22  C   UNL     1       7.239   4.928  13.567  0.00  0.00    +0.000 A 
ATOM     23  C   UNL     1       7.591   4.630  12.247  0.00  0.00    +0.000 A 
ATOM     24  C   UNL     1       6.812   3.754  11.496  0.00  0.00    +0.000 A 
ATOM     25  C   UNL     1       5.687   3.164  12.068  0.00  0.00    +0.000 A 
ATOM     26  C   UNL     1       5.332   3.466  13.386  0.00  0.00    +0.000 A 
ENDBRANCH  20  21
ENDBRANCH  19  20
ENDBRANCH  18  19
ENDBRANCH  17  18
ENDBRANCH   4  17
TORSDOF 7
ENDMDL
MODEL 9
REMARK VINA RESULT:      -7.5      3.372      7.712
REMARK  Name = 
REMARK  7 active torsions:
REMARK  status: ('A' for Active; 'I' for Inactive)
REMARK    1  A    between atoms: C_2  and  C_3
REMARK    2  A    between atoms: C_4  and  C_5
REMARK    3  A    between atoms: C_12  and  S_13
REMARK    4  A    between atoms: S_13  and  C_14
REMARK    5  A    between atoms: C_14  and  O_15
REMARK    6  A    between atoms: O_15  and  C_16
REMARK    7  A    between atoms: C_16  and  C_17
REMARK                            x       y       z     vdW  Elec       q    Type
REMARK                         _______ _______ _______ _____ _____    ______ ____
ROOT
ATOM      1  C   UNL     1       2.853   3.957  19.258  0.00  0.00    +0.000 A 
ATOM      2  C   UNL     1       3.524   5.096  18.987  0.00  0.00    +0.000 A 
ATOM      3  N   UNL     1       3.163   6.354  19.446  0.00  0.00    +0.000 NA
ATOM      4  C   UNL     1       2.101   6.425  20.172  0.00  0.00    +0.000 A 
ATOM      5  N   UNL     1       1.335   5.355  20.495  0.00  0.00    +0.000 N 
ATOM      6  C   UNL     1       1.633   4.091  20.086  0.00  0.00    +0.000 A 
ATOM      7  O   UNL     1       0.921   3.140  20.383  0.00  0.00    +0.000 OA
ATOM      8  H   UNL     1       0.507   5.489  21.061  0.00  0.00    +0.000 HD
ENDROOT
BRANCH   2   9
ATOM      9  C   UNL     1       4.724   5.055  18.118  0.00  0.00    +0.000 A 
ATOM     10  C   UNL     1       5.989   4.847  18.684  0.00  0.00    +0.000 A 
ATOM     11  C   UNL     1       7.132   4.833  17.879  0.00  0.00    +0.000 A 
ATOM     12  C   UNL     1       7.018   5.018  16.503  0.00  0.00    +0.000 A 
ATOM     13  C   UNL     1       5.763   5.217  15.928  0.00  0.00    +0.000 A 
ATOM     14  C   UNL     1       4.619   5.239  16.732  0.00  0.00    +0.000 A 
ENDBRANCH   2   9
BRANCH   1  16
ATOM     15  N   UNL     1       3.522   1.603  18.437  0.00  0.00    +0.000 NA
ATOM     16  C   UNL     1       3.223   2.663  18.799  0.00  0.00    +0.000 C 
ENDBRANCH   1  16
BRANCH   4  17
ATOM     17  S   UNL     1       1.488   7.874  20.886  0.00  0.00    +0.000 S 
BRANCH  17  18
ATOM     18  C   UNL     1       1.365   8.973  19.456  0.00  0.00    +0.000 C 
BRANCH  18  19
ATOM     19  O   UNL     1       0.484  10.048  19.780  0.00  0.00    +0.000 OA
BRANCH  19  20
ATOM     20  C   UNL     1       0.215  10.900  18.669  0.00  0.00    +0.000 C 
BRANCH  20  21
ATOM     21  C   UNL     1      -1.247  10.850  18.272  0.00  0.00    +0.000 A 
ATOM     22  C   UNL     1      -2.205  11.716  18.820  0.00  0.00    +0.000 A 
ATOM     23  C   UNL     1      -3.554  11.607  18.467  0.00  0.00    +0.000 A 
ATOM     24  C   UNL     1      -3.962  10.639  17.554  0.00  0.00    +0.000 A 
ATOM     25  C   UNL     1      -3.021   9.787  16.982  0.00  0.00    +0.000 A 
ATOM     26  C   UNL     1      -1.673   9.892  17.338  0.00  0.00    +0.000 A 
ENDBRANCH  20  21
ENDBRANCH  19  20
ENDBRANCH  18  19
ENDBRANCH  17  18
ENDBRANCH   4  17
TORSDOF 7
ENDMDL
