MODEL 1
REMARK VINA RESULT:      -7.4      0.000      0.000
REMARK  Name = 
REMARK  15 active torsions:
REMARK  status: ('A' for Active; 'I' for Inactive)
REMARK    1  A    between atoms: C_1  and  C_2
REMARK    2  A    between atoms: C_2  and  C_3
REMARK    3  A    between atoms: C_3  and  C_4
REMARK    4  A    between atoms: C_4  and  N_5
REMARK    5  A    between atoms: N_5  and  C_6
REMARK    6  A    between atoms: N_5  and  C_7
REMARK    7  A    between atoms: C_7  and  C_8
REMARK    8  A    between atoms: C_8  and  N_9
REMARK    9  A    between atoms: C_10  and  C_12
REMARK   10  A    between atoms: C_15  and  C_16
REMARK   11  A    between atoms: C_16  and  N_17
REMARK   12  A    between atoms: C_23  and  O_24
REMARK   13  A    between atoms: O_24  and  C_25
REMARK   14  A    between atoms: C_26  and  O_27
REMARK   15  A    between atoms: O_27  and  C_28
REMARK                            x       y       z     vdW  Elec       q    Type
REMARK                         _______ _______ _______ _____ _____    ______ ____
ROOT
ATOM      1  C   UNL     1       2.156   7.300  18.990  0.00  0.00    +0.000 A 
ATOM      2  C   UNL     1       2.275   8.022  17.796  0.00  0.00    +0.000 A 
ATOM      3  C   UNL     1       1.948   9.401  17.740  0.00  0.00    +0.000 A 
ATOM      4  C   UNL     1       1.483  10.118  18.866  0.00  0.00    +0.000 A 
ATOM      5  C   UNL     1       1.391   9.379  20.067  0.00  0.00    +0.000 A 
ATOM      6  C   UNL     1       1.709   7.983  20.118  0.00  0.00    +0.000 A 
ENDROOT
BRANCH   1   8
ATOM      7  N   UNL     1       2.665   5.155  17.848  0.00  0.00    +0.000 N 
ATOM      8  C   UNL     1       2.423   5.791  19.049  0.00  0.00    +0.000 C 
ATOM      9  O   UNL     1       2.421   5.228  20.122  0.00  0.00    +0.000 OA
ATOM     10  H   UNL     1       2.938   5.709  17.035  0.00  0.00    +0.000 HD
BRANCH   7  11
ATOM     11  C   UNL     1       3.003   3.733  17.760  0.00  0.00    +0.000 C 
BRANCH  11  12
ATOM     12  C   UNL     1       4.462   3.448  17.301  0.00  0.00    +0.000 C 
BRANCH  12  13
ATOM     13  N   UNL     1       5.195   4.567  16.653  0.00  0.00    +0.000 NA
ATOM     14  C   UNL     1       5.306   4.299  15.206  0.00  0.00    +0.000 C 
BRANCH  13  15
ATOM     15  C   UNL     1       6.535   4.744  17.245  0.00  0.00    +0.000 C 
BRANCH  15  16
ATOM     16  C   UNL     1       7.178   6.114  16.976  0.00  0.00    +0.000 C 
BRANCH  16  18
ATOM     17  C   UNL     1       7.905   5.742  19.352  0.00  0.00    +0.000 C 
ATOM     18  C   UNL     1       7.722   6.769  18.247  0.00  0.00    +0.000 C 
ENDBRANCH  16  18
ENDBRANCH  15  16
ENDBRANCH  13  15
ENDBRANCH  12  13
ENDBRANCH  11  12
ENDBRANCH   7  11
ENDBRANCH   1   8
BRANCH   4  19
ATOM     19  C   UNL     1       1.206  11.656  18.797  0.00  0.00    +0.000 C 
BRANCH  19  20
ATOM     20  N   UNL     1      -0.068  12.197  19.357  0.00  0.00    +0.000 N 
ATOM     21  C   UNL     1      -1.224  11.798  18.745  0.00  0.00    +0.000 A 
ATOM     22  O   UNL     1      -1.395  10.682  18.263  0.00  0.00    +0.000 OA
ATOM     23  N   UNL     1      -2.266  12.694  18.956  0.00  0.00    +0.000 N 
ATOM     24  C   UNL     1      -2.628  12.799  20.317  0.00  0.00    +0.000 A 
ATOM     25  C   UNL     1      -3.945  13.102  20.631  0.00  0.00    +0.000 A 
ATOM     26  C   UNL     1      -4.429  12.884  21.921  0.00  0.00    +0.000 A 
ATOM     27  C   UNL     1      -3.579  12.320  22.898  0.00  0.00    +0.000 A 
ATOM     28  C   UNL     1      -2.190  12.157  22.598  0.00  0.00    +0.000 A 
ATOM     29  C   UNL     1      -1.701  12.442  21.285  0.00  0.00    +0.000 A 
ATOM     30  C   UNL     1      -0.241  12.442  20.747  0.00  0.00    +0.000 A 
ATOM     31  O   UNL     1       0.684  12.710  21.513  0.00  0.00    +0.000 OA
ATOM     32  H   UNL     1      -2.014  13.616  18.610  0.00  0.00    +0.000 HD
BRANCH  26  33
ATOM     33  O   UNL     1      -5.775  13.150  22.028  0.00  0.00    +0.000 OA
ATOM     34  C   UNL     1      -6.193  14.463  22.383  0.00  0.00    +0.000 C 
ENDBRANCH  26  33
BRANCH  27  35
ATOM     35  O   UNL     1      -4.254  11.938  24.022  0.00  0.00    +0.000 OA
ATOM     36  C   UNL     1      -4.360  12.686  25.214  0.00  0.00    +0.000 C 
ENDBRANCH  27  35
ENDBRANCH  19  20
ENDBRANCH   4  19
TORSDOF 11
ENDMDL
MODEL 2
REMARK VINA RESULT:      -7.4      1.035      1.161
REMARK  Name = 
REMARK  15 active torsions:
REMARK  status: ('A' for Active; 'I' for Inactive)
REMARK    1  A    between atoms: C_1  and  C_2
REMARK    2  A    between atoms: C_2  and  C_3
REMARK    3  A    between atoms: C_3  and  C_4
REMARK    4  A    between atoms: C_4  and  N_5
REMARK    5  A    between atoms: N_5  and  C_6
REMARK    6  A    between atoms: N_5  and  C_7
REMARK    7  A    between atoms: C_7  and  C_8
REMARK    8  A    between atoms: C_8  and  N_9
REMARK    9  A    between atoms: C_10  and  C_12
REMARK   10  A    between atoms: C_15  and  C_16
REMARK   11  A    between atoms: C_16  and  N_17
REMARK   12  A    between atoms: C_23  and  O_24
REMARK   13  A    between atoms: O_24  and  C_25
REMARK   14  A    between atoms: C_26  and  O_27
REMARK   15  A    between atoms: O_27  and  C_28
REMARK                            x       y       z     vdW  Elec       q    Type
REMARK                         _______ _______ _______ _____ _____    ______ ____
ROOT
ATOM      1  C   UNL     1       1.988   7.599  19.711  0.00  0.00    +0.000 A 
ATOM      2  C   UNL     1       2.152   8.148  18.434  0.00  0.00    +0.000 A 
ATOM      3  C   UNL     1       1.698   9.458  18.137  0.00  0.00    +0.000 A 
ATOM      4  C   UNL     1       1.056  10.275  19.094  0.00  0.00    +0.000 A 
ATOM      5  C   UNL     1       0.920   9.714  20.385  0.00  0.00    +0.000 A 
ATOM      6  C   UNL     1       1.368   8.385  20.679  0.00  0.00    +0.000 A 
ENDROOT
BRANCH   1   8
ATOM      7  N   UNL     1       3.564   5.698  19.449  0.00  0.00    +0.000 N 
ATOM      8  C   UNL     1       2.396   6.154  20.028  0.00  0.00    +0.000 C 
ATOM      9  O   UNL     1       1.700   5.486  20.761  0.00  0.00    +0.000 OA
ATOM     10  H   UNL     1       4.241   6.372  19.091  0.00  0.00    +0.000 HD
BRANCH   7  11
ATOM     11  C   UNL     1       4.110   4.366  19.717  0.00  0.00    +0.000 C 
BRANCH  11  12
ATOM     12  C   UNL     1       5.255   3.938  18.755  0.00  0.00    +0.000 C 
BRANCH  12  13
ATOM     13  N   UNL     1       5.391   4.702  17.488  0.00  0.00    +0.000 NA
ATOM     14  C   UNL     1       4.514   4.103  16.463  0.00  0.00    +0.000 C 
BRANCH  13  15
ATOM     15  C   UNL     1       6.791   4.717  17.018  0.00  0.00    +0.000 C 
BRANCH  15  16
ATOM     16  C   UNL     1       7.357   6.118  16.735  0.00  0.00    +0.000 C 
BRANCH  16  18
ATOM     17  C   UNL     1       7.798   8.404  17.678  0.00  0.00    +0.000 C 
ATOM     18  C   UNL     1       7.556   6.941  18.008  0.00  0.00    +0.000 C 
ENDBRANCH  16  18
ENDBRANCH  15  16
ENDBRANCH  13  15
ENDBRANCH  12  13
ENDBRANCH  11  12
ENDBRANCH   7  11
ENDBRANCH   1   8
BRANCH   4  19
ATOM     19  C   UNL     1       0.637  11.745  18.764  0.00  0.00    +0.000 C 
BRANCH  19  20
ATOM     20  N   UNL     1      -0.718  12.229  19.163  0.00  0.00    +0.000 N 
ATOM     21  C   UNL     1      -1.788  11.583  18.607  0.00  0.00    +0.000 A 
ATOM     22  O   UNL     1      -1.806  10.383  18.351  0.00  0.00    +0.000 OA
ATOM     23  N   UNL     1      -2.932  12.372  18.601  0.00  0.00    +0.000 N 
ATOM     24  C   UNL     1      -3.378  12.694  19.901  0.00  0.00    +0.000 A 
ATOM     25  C   UNL     1      -4.736  12.894  20.106  0.00  0.00    +0.000 A 
ATOM     26  C   UNL     1      -5.264  12.874  21.397  0.00  0.00    +0.000 A 
ATOM     27  C   UNL     1      -4.411  12.615  22.494  0.00  0.00    +0.000 A 
ATOM     28  C   UNL     1      -2.999  12.565  22.277  0.00  0.00    +0.000 A 
ATOM     29  C   UNL     1      -2.472  12.646  20.951  0.00  0.00    +0.000 A 
ATOM     30  C   UNL     1      -0.994  12.716  20.471  0.00  0.00    +0.000 A 
ATOM     31  O   UNL     1      -0.148  13.236  21.198  0.00  0.00    +0.000 OA
ATOM     32  H   UNL     1      -2.765  13.233  18.086  0.00  0.00    +0.000 HD
BRANCH  26  33
ATOM     33  O   UNL     1      -6.635  12.992  21.405  0.00  0.00    +0.000 OA
ATOM     34  C   UNL     1      -7.240  14.046  20.664  0.00  0.00    +0.000 C 
ENDBRANCH  26  33
BRANCH  27  35
ATOM     35  O   UNL     1      -5.102  12.381  23.649  0.00  0.00    +0.000 OA
ATOM     36  C   UNL     1      -4.568  12.436  24.954  0.00  0.00    +0.000 C 
ENDBRANCH  27  35
ENDBRANCH  19  20
ENDBRANCH   4  19
TORSDOF 11
ENDMDL
MODEL 3
REMARK VINA RESULT:      -7.3      2.069      3.624
REMARK  Name = 
REMARK  15 active torsions:
REMARK  status: ('A' for Active; 'I' for Inactive)
REMARK    1  A    between atoms: C_1  and  C_2
REMARK    2  A    between atoms: C_2  and  C_3
REMARK    3  A    between atoms: C_3  and  C_4
REMARK    4  A    between atoms: C_4  and  N_5
REMARK    5  A    between atoms: N_5  and  C_6
REMARK    6  A    between atoms: N_5  and  C_7
REMARK    7  A    between atoms: C_7  and  C_8
REMARK    8  A    between atoms: C_8  and  N_9
REMARK    9  A    between atoms: C_10  and  C_12
REMARK   10  A    between atoms: C_15  and  C_16
REMARK   11  A    between atoms: C_16  and  N_17
REMARK   12  A    between atoms: C_23  and  O_24
REMARK   13  A    between atoms: O_24  and  C_25
REMARK   14  A    between atoms: C_26  and  O_27
REMARK   15  A    between atoms: O_27  and  C_28
REMARK                            x       y       z     vdW  Elec       q    Type
REMARK                         _______ _______ _______ _____ _____    ______ ____
ROOT
ATOM      1  C   UNL     1       2.341   7.333  19.099  0.00  0.00    +0.000 A 
ATOM      2  C   UNL     1       1.701   7.964  20.172  0.00  0.00    +0.000 A 
ATOM      3  C   UNL     1       1.135   9.256  20.028  0.00  0.00    +0.000 A 
ATOM      4  C   UNL     1       1.189   9.979  18.815  0.00  0.00    +0.000 A 
ATOM      5  C   UNL     1       1.819   9.318  17.736  0.00  0.00    +0.000 A 
ATOM      6  C   UNL     1       2.401   8.018  17.887  0.00  0.00    +0.000 A 
ENDROOT
BRANCH   1   8
ATOM      7  N   UNL     1       3.981   5.644  18.310  0.00  0.00    +0.000 N 
ATOM      8  C   UNL     1       3.033   5.973  19.258  0.00  0.00    +0.000 C 
ATOM      9  O   UNL     1       2.735   5.260  20.191  0.00  0.00    +0.000 OA
ATOM     10  H   UNL     1       4.390   6.380  17.735  0.00  0.00    +0.000 HD
BRANCH   7  11
ATOM     11  C   UNL     1       4.769   4.411  18.375  0.00  0.00    +0.000 C 
BRANCH  11  12
ATOM     12  C   UNL     1       6.299   4.618  18.189  0.00  0.00    +0.000 C 
BRANCH  12  13
ATOM     13  N   UNL     1       6.825   4.545  16.801  0.00  0.00    +0.000 NA
ATOM     14  C   UNL     1       7.142   5.907  16.330  0.00  0.00    +0.000 C 
BRANCH  13  15
ATOM     15  C   UNL     1       5.854   3.903  15.893  0.00  0.00    +0.000 C 
BRANCH  15  16
ATOM     16  C   UNL     1       5.657   4.626  14.551  0.00  0.00    +0.000 C 
BRANCH  16  18
ATOM     17  C   UNL     1       6.798   3.903  12.432  0.00  0.00    +0.000 C 
ATOM     18  C   UNL     1       5.622   3.663  13.363  0.00  0.00    +0.000 C 
ENDBRANCH  16  18
ENDBRANCH  15  16
ENDBRANCH  13  15
ENDBRANCH  12  13
ENDBRANCH  11  12
ENDBRANCH   7  11
ENDBRANCH   1   8
BRANCH   4  19
ATOM     19  C   UNL     1       0.488  11.368  18.661  0.00  0.00    +0.000 C 
BRANCH  19  20
ATOM     20  N   UNL     1      -0.952  11.509  19.031  0.00  0.00    +0.000 N 
ATOM     21  C   UNL     1      -1.312  12.668  19.663  0.00  0.00    +0.000 A 
ATOM     22  O   UNL     1      -0.809  13.762  19.425  0.00  0.00    +0.000 OA
ATOM     23  N   UNL     1      -2.474  12.520  20.410  0.00  0.00    +0.000 N 
ATOM     24  C   UNL     1      -3.599  12.212  19.613  0.00  0.00    +0.000 A 
ATOM     25  C   UNL     1      -4.850  12.636  20.039  0.00  0.00    +0.000 A 
ATOM     26  C   UNL     1      -5.924  12.665  19.150  0.00  0.00    +0.000 A 
ATOM     27  C   UNL     1      -5.722  12.292  17.802  0.00  0.00    +0.000 A 
ATOM     28  C   UNL     1      -4.470  11.716  17.421  0.00  0.00    +0.000 A 
ATOM     29  C   UNL     1      -3.398  11.641  18.364  0.00  0.00    +0.000 A 
ATOM     30  C   UNL     1      -1.998  10.978  18.226  0.00  0.00    +0.000 A 
ATOM     31  O   UNL     1      -1.863  10.001  17.489  0.00  0.00    +0.000 OA
ATOM     32  H   UNL     1      -2.355  11.790  21.108  0.00  0.00    +0.000 HD
BRANCH  26  33
ATOM     33  O   UNL     1      -7.058  13.201  19.715  0.00  0.00    +0.000 OA
ATOM     34  C   UNL     1      -7.352  12.911  21.078  0.00  0.00    +0.000 C 
ENDBRANCH  26  33
BRANCH  27  35
ATOM     35  O   UNL     1      -6.788  12.607  17.008  0.00  0.00    +0.000 OA
ATOM     36  C   UNL     1      -7.222  13.912  16.689  0.00  0.00    +0.000 C 
ENDBRANCH  27  35
ENDBRANCH  19  20
ENDBRANCH   4  19
TORSDOF 11
ENDMDL
MODEL 4
REMARK VINA RESULT:      -7.3      1.833      2.580
REMARK  Name = 
REMARK  15 active torsions:
REMARK  status: ('A' for Active; 'I' for Inactive)
REMARK    1  A    between atoms: C_1  and  C_2
REMARK    2  A    between atoms: C_2  and  C_3
REMARK    3  A    between atoms: C_3  and  C_4
REMARK    4  A    between atoms: C_4  and  N_5
REMARK    5  A    between atoms: N_5  and  C_6
REMARK    6  A    between atoms: N_5  and  C_7
REMARK    7  A    between atoms: C_7  and  C_8
REMARK    8  A    between atoms: C_8  and  N_9
REMARK    9  A    between atoms: C_10  and  C_12
REMARK   10  A    between atoms: C_15  and  C_16
REMARK   11  A    between atoms: C_16  and  N_17
REMARK   12  A    between atoms: C_23  and  O_24
REMARK   13  A    between atoms: O_24  and  C_25
REMARK   14  A    between atoms: C_26  and  O_27
REMARK   15  A    between atoms: O_27  and  C_28
REMARK                            x       y       z     vdW  Elec       q    Type
REMARK                         _______ _______ _______ _____ _____    ______ ____
ROOT
ATOM      1  C   UNL     1       2.070   7.972  19.523  0.00  0.00    +0.000 A 
ATOM      2  C   UNL     1       2.152   8.523  18.239  0.00  0.00    +0.000 A 
ATOM      3  C   UNL     1       1.579   9.787  17.948  0.00  0.00    +0.000 A 
ATOM      4  C   UNL     1       0.894  10.553  18.918  0.00  0.00    +0.000 A 
ATOM      5  C   UNL     1       0.841   9.992  20.215  0.00  0.00    +0.000 A 
ATOM      6  C   UNL     1       1.409   8.709  20.503  0.00  0.00    +0.000 A 
ENDROOT
BRANCH   1   8
ATOM      7  N   UNL     1       1.897   5.822  20.753  0.00  0.00    +0.000 N 
ATOM      8  C   UNL     1       2.609   6.570  19.836  0.00  0.00    +0.000 C 
ATOM      9  O   UNL     1       3.608   6.177  19.274  0.00  0.00    +0.000 OA
ATOM     10  H   UNL     1       0.933   6.077  20.967  0.00  0.00    +0.000 HD
BRANCH   7  11
ATOM     11  C   UNL     1       2.255   4.443  21.096  0.00  0.00    +0.000 C 
BRANCH  11  12
ATOM     12  C   UNL     1       1.714   3.376  20.102  0.00  0.00    +0.000 C 
BRANCH  12  13
ATOM     13  N   UNL     1       2.595   2.213  19.816  0.00  0.00    +0.000 NA
ATOM     14  C   UNL     1       3.822   2.323  20.629  0.00  0.00    +0.000 C 
BRANCH  13  15
ATOM     15  C   UNL     1       2.936   2.139  18.382  0.00  0.00    +0.000 C 
BRANCH  15  16
ATOM     16  C   UNL     1       4.124   3.018  17.959  0.00  0.00    +0.000 C 
BRANCH  16  18
ATOM     17  C   UNL     1       5.085   4.464  16.144  0.00  0.00    +0.000 C 
ATOM     18  C   UNL     1       3.813   3.878  16.733  0.00  0.00    +0.000 C 
ENDBRANCH  16  18
ENDBRANCH  15  16
ENDBRANCH  13  15
ENDBRANCH  12  13
ENDBRANCH  11  12
ENDBRANCH   7  11
ENDBRANCH   1   8
BRANCH   4  19
ATOM     19  C   UNL     1       0.341  11.979  18.592  0.00  0.00    +0.000 C 
BRANCH  19  20
ATOM     20  N   UNL     1      -1.053  12.333  18.990  0.00  0.00    +0.000 N 
ATOM     21  C   UNL     1      -2.047  11.509  18.539  0.00  0.00    +0.000 A 
ATOM     22  O   UNL     1      -1.923  10.295  18.405  0.00  0.00    +0.000 OA
ATOM     23  N   UNL     1      -3.281  12.148  18.496  0.00  0.00    +0.000 N 
ATOM     24  C   UNL     1      -3.732  12.547  19.773  0.00  0.00    +0.000 A 
ATOM     25  C   UNL     1      -5.100  12.600  20.006  0.00  0.00    +0.000 A 
ATOM     26  C   UNL     1      -5.590  12.650  21.311  0.00  0.00    +0.000 A 
ATOM     27  C   UNL     1      -4.686  12.612  22.396  0.00  0.00    +0.000 A 
ATOM     28  C   UNL     1      -3.283  12.711  22.135  0.00  0.00    +0.000 A 
ATOM     29  C   UNL     1      -2.803  12.717  20.789  0.00  0.00    +0.000 A 
ATOM     30  C   UNL     1      -1.356  12.917  20.252  0.00  0.00    +0.000 A 
ATOM     31  O   UNL     1      -0.565  13.607  20.892  0.00  0.00    +0.000 OA
ATOM     32  H   UNL     1      -3.234  12.965  17.893  0.00  0.00    +0.000 HD
BRANCH  26  33
ATOM     33  O   UNL     1      -6.964  12.601  21.357  0.00  0.00    +0.000 OA
ATOM     34  C   UNL     1      -7.624  11.399  20.976  0.00  0.00    +0.000 C 
ENDBRANCH  26  33
BRANCH  27  35
ATOM     35  O   UNL     1      -5.314  12.416  23.593  0.00  0.00    +0.000 OA
ATOM     36  C   UNL     1      -4.694  12.418  24.861  0.00  0.00    +0.000 C 
ENDBRANCH  27  35
ENDBRANCH  19  20
ENDBRANCH   4  19
TORSDOF 11
ENDMDL
MODEL 5
REMARK VINA RESULT:      -7.2      1.505      2.859
REMARK  Name = 
REMARK  15 active torsions:
REMARK  status: ('A' for Active; 'I' for Inactive)
REMARK    1  A    between atoms: C_1  and  C_2
REMARK    2  A    between atoms: C_2  and  C_3
REMARK    3  A    between atoms: C_3  and  C_4
REMARK    4  A    between atoms: C_4  and  N_5
REMARK    5  A    between atoms: N_5  and  C_6
REMARK    6  A    between atoms: N_5  and  C_7
REMARK    7  A    between atoms: C_7  and  C_8
REMARK    8  A    between atoms: C_8  and  N_9
REMARK    9  A    between atoms: C_10  and  C_12
REMARK   10  A    between atoms: C_15  and  C_16
REMARK   11  A    between atoms: C_16  and  N_17
REMARK   12  A    between atoms: C_23  and  O_24
REMARK   13  A    between atoms: O_24  and  C_25
REMARK   14  A    between atoms: C_26  and  O_27
REMARK   15  A    between atoms: O_27  and  C_28
REMARK                            x       y       z     vdW  Elec       q    Type
REMARK                         _______ _______ _______ _____ _____    ______ ____
ROOT
ATOM      1  C   UNL     1       2.244   7.590  18.868  0.00  0.00    +0.000 A 
ATOM      2  C   UNL     1       2.188   8.588  17.888  0.00  0.00    +0.000 A 
ATOM      3  C   UNL     1       1.608   9.852  18.164  0.00  0.00    +0.000 A 
ATOM      4  C   UNL     1       1.052  10.174  19.423  0.00  0.00    +0.000 A 
ATOM      5  C   UNL     1       1.138   9.163  20.407  0.00  0.00    +0.000 A 
ATOM      6  C   UNL     1       1.713   7.882  20.122  0.00  0.00    +0.000 A 
ENDROOT
BRANCH   1   8
ATOM      7  N   UNL     1       4.055   5.899  19.038  0.00  0.00    +0.000 N 
ATOM      8  C   UNL     1       2.791   6.189  18.563  0.00  0.00    +0.000 C 
ATOM      9  O   UNL     1       2.109   5.407  17.939  0.00  0.00    +0.000 OA
ATOM     10  H   UNL     1       4.452   6.470  19.785  0.00  0.00    +0.000 HD
BRANCH   7  11
ATOM     11  C   UNL     1       4.674   4.581  18.882  0.00  0.00    +0.000 C 
BRANCH  11  12
ATOM     12  C   UNL     1       6.229   4.605  18.841  0.00  0.00    +0.000 C 
BRANCH  12  13
ATOM     13  N   UNL     1       6.865   4.763  17.507  0.00  0.00    +0.000 NA
ATOM     14  C   UNL     1       7.254   6.174  17.318  0.00  0.00    +0.000 C 
BRANCH  13  15
ATOM     15  C   UNL     1       5.957   4.333  16.425  0.00  0.00    +0.000 C 
BRANCH  15  16
ATOM     16  C   UNL     1       5.953   5.249  15.190  0.00  0.00    +0.000 C 
BRANCH  16  18
ATOM     17  C   UNL     1       5.958   3.676  13.231  0.00  0.00    +0.000 C 
ATOM     18  C   UNL     1       6.773   4.678  14.032  0.00  0.00    +0.000 C 
ENDBRANCH  16  18
ENDBRANCH  15  16
ENDBRANCH  13  15
ENDBRANCH  12  13
ENDBRANCH  11  12
ENDBRANCH   7  11
ENDBRANCH   1   8
BRANCH   4  19
ATOM     19  C   UNL     1       0.489  11.602  19.726  0.00  0.00    +0.000 C 
BRANCH  19  20
ATOM     20  N   UNL     1      -0.762  11.742  20.528  0.00  0.00    +0.000 N 
ATOM     21  C   UNL     1      -0.626  12.246  21.793  0.00  0.00    +0.000 A 
ATOM     22  O   UNL     1       0.195  13.103  22.104  0.00  0.00    +0.000 OA
ATOM     23  N   UNL     1      -1.678  11.875  22.621  0.00  0.00    +0.000 N 
ATOM     24  C   UNL     1      -2.920  12.391  22.189  0.00  0.00    +0.000 A 
ATOM     25  C   UNL     1      -3.891  12.665  23.142  0.00  0.00    +0.000 A 
ATOM     26  C   UNL     1      -4.980  13.477  22.824  0.00  0.00    +0.000 A 
ATOM     27  C   UNL     1      -5.069  14.048  21.534  0.00  0.00    +0.000 A 
ATOM     28  C   UNL     1      -4.144  13.632  20.526  0.00  0.00    +0.000 A 
ATOM     29  C   UNL     1      -3.068  12.752  20.858  0.00  0.00    +0.000 A 
ATOM     30  C   UNL     1      -2.009  12.085  19.934  0.00  0.00    +0.000 A 
ATOM     31  O   UNL     1      -2.303  11.827  18.767  0.00  0.00    +0.000 OA
ATOM     32  H   UNL     1      -1.743  10.862  22.677  0.00  0.00    +0.000 HD
BRANCH  26  33
ATOM     33  O   UNL     1      -5.789  13.719  23.910  0.00  0.00    +0.000 OA
ATOM     34  C   UNL     1      -6.922  12.886  24.125  0.00  0.00    +0.000 C 
ENDBRANCH  26  33
BRANCH  27  35
ATOM     35  O   UNL     1      -6.040  15.005  21.452  0.00  0.00    +0.000 OA
ATOM     36  C   UNL     1      -7.306  14.847  20.848  0.00  0.00    +0.000 C 
ENDBRANCH  27  35
ENDBRANCH  19  20
ENDBRANCH   4  19
TORSDOF 11
ENDMDL
MODEL 6
REMARK VINA RESULT:      -7.2      1.203      2.236
REMARK  Name = 
REMARK  15 active torsions:
REMARK  status: ('A' for Active; 'I' for Inactive)
REMARK    1  A    between atoms: C_1  and  C_2
REMARK    2  A    between atoms: C_2  and  C_3
REMARK    3  A    between atoms: C_3  and  C_4
REMARK    4  A    between atoms: C_4  and  N_5
REMARK    5  A    between atoms: N_5  and  C_6
REMARK    6  A    between atoms: N_5  and  C_7
REMARK    7  A    between atoms: C_7  and  C_8
REMARK    8  A    between atoms: C_8  and  N_9
REMARK    9  A    between atoms: C_10  and  C_12
REMARK   10  A    between atoms: C_15  and  C_16
REMARK   11  A    between atoms: C_16  and  N_17
REMARK   12  A    between atoms: C_23  and  O_24
REMARK   13  A    between atoms: O_24  and  C_25
REMARK   14  A    between atoms: C_26  and  O_27
REMARK   15  A    between atoms: O_27  and  C_28
REMARK                            x       y       z     vdW  Elec       q    Type
REMARK                         _______ _______ _______ _____ _____    ______ ____
ROOT
ATOM      1  C   UNL     1       2.819   6.804  18.804  0.00  0.00    +0.000 A 
ATOM      2  C   UNL     1       2.873   7.706  17.734  0.00  0.00    +0.000 A 
ATOM      3  C   UNL     1       2.243   8.973  17.814  0.00  0.00    +0.000 A 
ATOM      4  C   UNL     1       1.526   9.395  18.957  0.00  0.00    +0.000 A 
ATOM      5  C   UNL     1       1.501   8.481  20.035  0.00  0.00    +0.000 A 
ATOM      6  C   UNL     1       2.128   7.196  19.947  0.00  0.00    +0.000 A 
ENDROOT
BRANCH   1   8
ATOM      7  N   UNL     1       3.416   4.806  17.455  0.00  0.00    +0.000 N 
ATOM      8  C   UNL     1       3.422   5.397  18.704  0.00  0.00    +0.000 C 
ATOM      9  O   UNL     1       3.877   4.872  19.696  0.00  0.00    +0.000 OA
ATOM     10  H   UNL     1       3.294   5.389  16.627  0.00  0.00    +0.000 HD
BRANCH   7  11
ATOM     11  C   UNL     1       4.020   3.497  17.198  0.00  0.00    +0.000 C 
BRANCH  11  12
ATOM     12  C   UNL     1       5.280   3.540  16.286  0.00  0.00    +0.000 C 
BRANCH  12  13
ATOM     13  N   UNL     1       5.368   4.658  15.311  0.00  0.00    +0.000 NA
ATOM     14  C   UNL     1       5.962   4.161  14.055  0.00  0.00    +0.000 C 
BRANCH  13  15
ATOM     15  C   UNL     1       6.168   5.777  15.849  0.00  0.00    +0.000 C 
BRANCH  15  16
ATOM     16  C   UNL     1       7.183   5.375  16.932  0.00  0.00    +0.000 C 
BRANCH  16  18
ATOM     17  C   UNL     1       7.782   5.882  19.318  0.00  0.00    +0.000 C 
ATOM     18  C   UNL     1       7.399   6.474  17.973  0.00  0.00    +0.000 C 
ENDBRANCH  16  18
ENDBRANCH  15  16
ENDBRANCH  13  15
ENDBRANCH  12  13
ENDBRANCH  11  12
ENDBRANCH   7  11
ENDBRANCH   1   8
BRANCH   4  19
ATOM     19  C   UNL     1       0.908  10.828  19.050  0.00  0.00    +0.000 C 
BRANCH  19  20
ATOM     20  N   UNL     1      -0.192  11.091  20.025  0.00  0.00    +0.000 N 
ATOM     21  C   UNL     1       0.173  11.614  21.235  0.00  0.00    +0.000 A 
ATOM     22  O   UNL     1       1.095  12.410  21.387  0.00  0.00    +0.000 OA
ATOM     23  N   UNL     1      -0.766  11.351  22.225  0.00  0.00    +0.000 N 
ATOM     24  C   UNL     1      -2.016  11.955  21.965  0.00  0.00    +0.000 A 
ATOM     25  C   UNL     1      -2.807  12.332  23.042  0.00  0.00    +0.000 A 
ATOM     26  C   UNL     1      -3.865  13.221  22.860  0.00  0.00    +0.000 A 
ATOM     27  C   UNL     1      -4.107  13.764  21.577  0.00  0.00    +0.000 A 
ATOM     28  C   UNL     1      -3.381  13.249  20.458  0.00  0.00    +0.000 A 
ATOM     29  C   UNL     1      -2.337  12.293  20.659  0.00  0.00    +0.000 A 
ATOM     30  C   UNL     1      -1.485  11.518  19.612  0.00  0.00    +0.000 A 
ATOM     31  O   UNL     1      -1.972  11.255  18.513  0.00  0.00    +0.000 OA
ATOM     32  H   UNL     1      -0.899  10.349  22.329  0.00  0.00    +0.000 HD
BRANCH  26  33
ATOM     33  O   UNL     1      -4.478  13.557  24.045  0.00  0.00    +0.000 OA
ATOM     34  C   UNL     1      -5.484  12.696  24.569  0.00  0.00    +0.000 C 
ENDBRANCH  26  33
BRANCH  27  35
ATOM     35  O   UNL     1      -5.002  14.795  21.606  0.00  0.00    +0.000 OA
ATOM     36  C   UNL     1      -5.040  15.880  20.704  0.00  0.00    +0.000 C 
ENDBRANCH  27  35
ENDBRANCH  19  20
ENDBRANCH   4  19
TORSDOF 11
ENDMDL
MODEL 7
REMARK VINA RESULT:      -7.2      1.890      3.306
REMARK  Name = 
REMARK  15 active torsions:
REMARK  status: ('A' for Active; 'I' for Inactive)
REMARK    1  A    between atoms: C_1  and  C_2
REMARK    2  A    between atoms: C_2  and  C_3
REMARK    3  A    between atoms: C_3  and  C_4
REMARK    4  A    between atoms: C_4  and  N_5
REMARK    5  A    between atoms: N_5  and  C_6
REMARK    6  A    between atoms: N_5  and  C_7
REMARK    7  A    between atoms: C_7  and  C_8
REMARK    8  A    between atoms: C_8  and  N_9
REMARK    9  A    between atoms: C_10  and  C_12
REMARK   10  A    between atoms: C_15  and  C_16
REMARK   11  A    between atoms: C_16  and  N_17
REMARK   12  A    between atoms: C_23  and  O_24
REMARK   13  A    between atoms: O_24  and  C_25
REMARK   14  A    between atoms: C_26  and  O_27
REMARK   15  A    between atoms: O_27  and  C_28
REMARK                            x       y       z     vdW  Elec       q    Type
REMARK                         _______ _______ _______ _____ _____    ______ ____
ROOT
ATOM      1  C   UNL     1       2.210   7.467  19.331  0.00  0.00    +0.000 A 
ATOM      2  C   UNL     1       2.214   8.126  18.096  0.00  0.00    +0.000 A 
ATOM      3  C   UNL     1       1.521   9.350  17.918  0.00  0.00    +0.000 A 
ATOM      4  C   UNL     1       0.789   9.967  18.957  0.00  0.00    +0.000 A 
ATOM      5  C   UNL     1       0.815   9.300  20.204  0.00  0.00    +0.000 A 
ATOM      6  C   UNL     1       1.505   8.057  20.377  0.00  0.00    +0.000 A 
ENDROOT
BRANCH   1   8
ATOM      7  N   UNL     1       4.199   5.997  19.119  0.00  0.00    +0.000 N 
ATOM      8  C   UNL     1       2.882   6.101  19.520  0.00  0.00    +0.000 C 
ATOM      9  O   UNL     1       2.252   5.189  20.009  0.00  0.00    +0.000 OA
ATOM     10  H   UNL     1       4.752   6.845  18.992  0.00  0.00    +0.000 HD
BRANCH   7  11
ATOM     11  C   UNL     1       4.987   4.776  19.302  0.00  0.00    +0.000 C 
BRANCH  11  12
ATOM     12  C   UNL     1       5.178   3.936  18.006  0.00  0.00    +0.000 C 
BRANCH  12  13
ATOM     13  N   UNL     1       6.263   4.359  17.083  0.00  0.00    +0.000 NA
ATOM     14  C   UNL     1       7.460   4.713  17.870  0.00  0.00    +0.000 C 
BRANCH  13  15
ATOM     15  C   UNL     1       5.842   5.501  16.248  0.00  0.00    +0.000 C 
BRANCH  15  16
ATOM     16  C   UNL     1       5.497   5.139  14.794  0.00  0.00    +0.000 C 
BRANCH  16  18
ATOM     17  C   UNL     1       5.940   3.550  12.900  0.00  0.00    +0.000 C 
ATOM     18  C   UNL     1       6.490   4.149  14.183  0.00  0.00    +0.000 C 
ENDBRANCH  16  18
ENDBRANCH  15  16
ENDBRANCH  13  15
ENDBRANCH  12  13
ENDBRANCH  11  12
ENDBRANCH   7  11
ENDBRANCH   1   8
BRANCH   4  19
ATOM     19  C   UNL     1       0.100  11.357  18.757  0.00  0.00    +0.000 C 
BRANCH  19  20
ATOM     20  N   UNL     1      -1.255  11.594  19.338  0.00  0.00    +0.000 N 
ATOM     21  C   UNL     1      -1.420  12.746  20.057  0.00  0.00    +0.000 A 
ATOM     22  O   UNL     1      -0.864  13.807  19.788  0.00  0.00    +0.000 OA
ATOM     23  N   UNL     1      -2.473  12.656  20.959  0.00  0.00    +0.000 N 
ATOM     24  C   UNL     1      -3.721  12.479  20.323  0.00  0.00    +0.000 A 
ATOM     25  C   UNL     1      -4.858  12.980  20.942  0.00  0.00    +0.000 A 
ATOM     26  C   UNL     1      -6.041  13.139  20.220  0.00  0.00    +0.000 A 
ATOM     27  C   UNL     1      -6.065  12.817  18.844  0.00  0.00    +0.000 A 
ATOM     28  C   UNL     1      -4.934  12.161  18.265  0.00  0.00    +0.000 A 
ATOM     29  C   UNL     1      -3.750  11.955  19.039  0.00  0.00    +0.000 A 
ATOM     30  C   UNL     1      -2.446  11.189  18.674  0.00  0.00    +0.000 A 
ATOM     31  O   UNL     1      -2.502  10.241  17.891  0.00  0.00    +0.000 OA
ATOM     32  H   UNL     1      -2.319  11.886  21.605  0.00  0.00    +0.000 HD
BRANCH  26  33
ATOM     33  O   UNL     1      -7.033  13.736  20.964  0.00  0.00    +0.000 OA
ATOM     34  C   UNL     1      -7.917  12.914  21.719  0.00  0.00    +0.000 C 
ENDBRANCH  26  33
BRANCH  27  35
ATOM     35  O   UNL     1      -7.201  13.254  18.225  0.00  0.00    +0.000 OA
ATOM     36  C   UNL     1      -7.256  14.167  17.150  0.00  0.00    +0.000 C 
ENDBRANCH  27  35
ENDBRANCH  19  20
ENDBRANCH   4  19
TORSDOF 11
ENDMDL
MODEL 8
REMARK VINA RESULT:      -7.1      1.483      2.566
REMARK  Name = 
REMARK  15 active torsions:
REMARK  status: ('A' for Active; 'I' for Inactive)
REMARK    1  A    between atoms: C_1  and  C_2
REMARK    2  A    between atoms: C_2  and  C_3
REMARK    3  A    between atoms: C_3  and  C_4
REMARK    4  A    between atoms: C_4  and  N_5
REMARK    5  A    between atoms: N_5  and  C_6
REMARK    6  A    between atoms: N_5  and  C_7
REMARK    7  A    between atoms: C_7  and  C_8
REMARK    8  A    between atoms: C_8  and  N_9
REMARK    9  A    between atoms: C_10  and  C_12
REMARK   10  A    between atoms: C_15  and  C_16
REMARK   11  A    between atoms: C_16  and  N_17
REMARK   12  A    between atoms: C_23  and  O_24
REMARK   13  A    between atoms: O_24  and  C_25
REMARK   14  A    between atoms: C_26  and  O_27
REMARK   15  A    between atoms: O_27  and  C_28
REMARK                            x       y       z     vdW  Elec       q    Type
REMARK                         _______ _______ _______ _____ _____    ______ ____
ROOT
ATOM      1  C   UNL     1       2.262   7.594  18.481  0.00  0.00    +0.000 A 
ATOM      2  C   UNL     1       2.176   8.721  17.654  0.00  0.00    +0.000 A 
ATOM      3  C   UNL     1       1.712   9.963  18.156  0.00  0.00    +0.000 A 
ATOM      4  C   UNL     1       1.305  10.135  19.498  0.00  0.00    +0.000 A 
ATOM      5  C   UNL     1       1.420   8.994  20.324  0.00  0.00    +0.000 A 
ATOM      6  C   UNL     1       1.877   7.737  19.811  0.00  0.00    +0.000 A 
ENDROOT
BRANCH   1   8
ATOM      7  N   UNL     1       3.904   6.156  17.298  0.00  0.00    +0.000 N 
ATOM      8  C   UNL     1       2.681   6.223  17.935  0.00  0.00    +0.000 C 
ATOM      9  O   UNL     1       1.946   5.272  18.087  0.00  0.00    +0.000 OA
ATOM     10  H   UNL     1       4.590   6.896  17.452  0.00  0.00    +0.000 HD
BRANCH   7  11
ATOM     11  C   UNL     1       4.463   4.901  16.790  0.00  0.00    +0.000 C 
BRANCH  11  12
ATOM     12  C   UNL     1       5.075   3.982  17.885  0.00  0.00    +0.000 C 
BRANCH  12  13
ATOM     13  N   UNL     1       6.346   4.434  18.511  0.00  0.00    +0.000 NA
ATOM     14  C   UNL     1       6.038   5.235  19.711  0.00  0.00    +0.000 C 
BRANCH  13  15
ATOM     15  C   UNL     1       7.159   5.222  17.563  0.00  0.00    +0.000 C 
BRANCH  15  16
ATOM     16  C   UNL     1       7.781   6.496  18.158  0.00  0.00    +0.000 C 
BRANCH  16  18
ATOM     17  C   UNL     1       8.149   8.968  17.906  0.00  0.00    +0.000 C 
ATOM     18  C   UNL     1       7.400   7.756  17.380  0.00  0.00    +0.000 C 
ENDBRANCH  16  18
ENDBRANCH  15  16
ENDBRANCH  13  15
ENDBRANCH  12  13
ENDBRANCH  11  12
ENDBRANCH   7  11
ENDBRANCH   1   8
BRANCH   4  19
ATOM     19  C   UNL     1       0.872  11.535  20.047  0.00  0.00    +0.000 C 
BRANCH  19  20
ATOM     20  N   UNL     1      -0.413  11.663  20.796  0.00  0.00    +0.000 N 
ATOM     21  C   UNL     1      -0.371  12.367  21.968  0.00  0.00    +0.000 A 
ATOM     22  O   UNL     1       0.347  13.346  22.154  0.00  0.00    +0.000 OA
ATOM     23  N   UNL     1      -1.406  12.019  22.827  0.00  0.00    +0.000 N 
ATOM     24  C   UNL     1      -2.679  12.327  22.299  0.00  0.00    +0.000 A 
ATOM     25  C   UNL     1      -3.705  12.640  23.180  0.00  0.00    +0.000 A 
ATOM     26  C   UNL     1      -4.859  13.273  22.720  0.00  0.00    +0.000 A 
ATOM     27  C   UNL     1      -4.965  13.625  21.356  0.00  0.00    +0.000 A 
ATOM     28  C   UNL     1      -3.969  13.159  20.441  0.00  0.00    +0.000 A 
ATOM     29  C   UNL     1      -2.820  12.460  20.925  0.00  0.00    +0.000 A 
ATOM     30  C   UNL     1      -1.668  11.776  20.135  0.00  0.00    +0.000 A 
ATOM     31  O   UNL     1      -1.895  11.311  19.019  0.00  0.00    +0.000 OA
ATOM     32  H   UNL     1      -1.369  11.026  23.040  0.00  0.00    +0.000 HD
BRANCH  26  33
ATOM     33  O   UNL     1      -5.724  13.593  23.742  0.00  0.00    +0.000 OA
ATOM     34  C   UNL     1      -6.794  12.703  24.043  0.00  0.00    +0.000 C 
ENDBRANCH  26  33
BRANCH  27  35
ATOM     35  O   UNL     1      -6.025  14.449  21.109  0.00  0.00    +0.000 OA
ATOM     36  C   UNL     1      -7.146  14.135  20.311  0.00  0.00    +0.000 C 
ENDBRANCH  27  35
ENDBRANCH  19  20
ENDBRANCH   4  19
TORSDOF 11
ENDMDL
MODEL 9
REMARK VINA RESULT:      -7.1      1.371      2.361
REMARK  Name = 
REMARK  15 active torsions:
REMARK  status: ('A' for Active; 'I' for Inactive)
REMARK    1  A    between atoms: C_1  and  C_2
REMARK    2  A    between atoms: C_2  and  C_3
REMARK    3  A    between atoms: C_3  and  C_4
REMARK    4  A    between atoms: C_4  and  N_5
REMARK    5  A    between atoms: N_5  and  C_6
REMARK    6  A    between atoms: N_5  and  C_7
REMARK    7  A    between atoms: C_7  and  C_8
REMARK    8  A    between atoms: C_8  and  N_9
REMARK    9  A    between atoms: C_10  and  C_12
REMARK   10  A    between atoms: C_15  and  C_16
REMARK   11  A    between atoms: C_16  and  N_17
REMARK   12  A    between atoms: C_23  and  O_24
REMARK   13  A    between atoms: O_24  and  C_25
REMARK   14  A    between atoms: C_26  and  O_27
REMARK   15  A    between atoms: O_27  and  C_28
REMARK                            x       y       z     vdW  Elec       q    Type
REMARK                         _______ _______ _______ _____ _____    ______ ____
ROOT
ATOM      1  C   UNL     1       2.177   7.354  19.551  0.00  0.00    +0.000 A 
ATOM      2  C   UNL     1       2.153   8.195  18.432  0.00  0.00    +0.000 A 
ATOM      3  C   UNL     1       1.520   9.463  18.484  0.00  0.00    +0.000 A 
ATOM      4  C   UNL     1       0.879   9.945  19.647  0.00  0.00    +0.000 A 
ATOM      5  C   UNL     1       0.934   9.093  20.774  0.00  0.00    +0.000 A 
ATOM      6  C   UNL     1       1.562   7.807  20.715  0.00  0.00    +0.000 A 
ENDROOT
BRANCH   1   8
ATOM      7  N   UNL     1       3.334   5.560  18.283  0.00  0.00    +0.000 N 
ATOM      8  C   UNL     1       2.782   5.945  19.488  0.00  0.00    +0.000 C 
ATOM      9  O   UNL     1       2.761   5.244  20.476  0.00  0.00    +0.000 OA
ATOM     10  H   UNL     1       3.581   6.272  17.595  0.00  0.00    +0.000 HD
BRANCH   7  11
ATOM     11  C   UNL     1       4.007   4.272  18.098  0.00  0.00    +0.000 C 
BRANCH  11  12
ATOM     12  C   UNL     1       4.427   3.974  16.630  0.00  0.00    +0.000 C 
BRANCH  12  13
ATOM     13  N   UNL     1       5.558   4.766  16.078  0.00  0.00    +0.000 NA
ATOM     14  C   UNL     1       6.296   3.942  15.102  0.00  0.00    +0.000 C 
BRANCH  13  15
ATOM     15  C   UNL     1       6.463   5.225  17.150  0.00  0.00    +0.000 C 
BRANCH  15  16
ATOM     16  C   UNL     1       7.028   6.641  16.948  0.00  0.00    +0.000 C 
BRANCH  16  18
ATOM     17  C   UNL     1       8.215   8.588  18.003  0.00  0.00    +0.000 C 
ATOM     18  C   UNL     1       7.868   7.114  18.135  0.00  0.00    +0.000 C 
ENDBRANCH  16  18
ENDBRANCH  15  16
ENDBRANCH  13  15
ENDBRANCH  12  13
ENDBRANCH  11  12
ENDBRANCH   7  11
ENDBRANCH   1   8
BRANCH   4  19
ATOM     19  C   UNL     1       0.259  11.380  19.702  0.00  0.00    +0.000 C 
BRANCH  19  20
ATOM     20  N   UNL     1      -0.978  11.613  20.505  0.00  0.00    +0.000 N 
ATOM     21  C   UNL     1      -0.802  12.080  21.780  0.00  0.00    +0.000 A 
ATOM     22  O   UNL     1       0.089  12.857  22.107  0.00  0.00    +0.000 OA
ATOM     23  N   UNL     1      -1.885  11.787  22.600  0.00  0.00    +0.000 N 
ATOM     24  C   UNL     1      -3.076  12.416  22.176  0.00  0.00    +0.000 A 
ATOM     25  C   UNL     1      -4.023  12.756  23.133  0.00  0.00    +0.000 A 
ATOM     26  C   UNL     1      -5.035  13.665  22.829  0.00  0.00    +0.000 A 
ATOM     27  C   UNL     1      -5.072  14.265  21.550  0.00  0.00    +0.000 A 
ATOM     28  C   UNL     1      -4.183  13.790  20.535  0.00  0.00    +0.000 A 
ATOM     29  C   UNL     1      -3.189  12.813  20.852  0.00  0.00    +0.000 A 
ATOM     30  C   UNL     1      -2.189  12.074  19.917  0.00  0.00    +0.000 A 
ATOM     31  O   UNL     1      -2.501  11.864  18.745  0.00  0.00    +0.000 OA
ATOM     32  H   UNL     1      -2.038  10.782  22.637  0.00  0.00    +0.000 HD
BRANCH  26  33
ATOM     33  O   UNL     1      -5.823  13.957  23.919  0.00  0.00    +0.000 OA
ATOM     34  C   UNL     1      -7.014  13.206  24.129  0.00  0.00    +0.000 C 
ENDBRANCH  26  33
BRANCH  27  35
ATOM     35  O   UNL     1      -5.955  15.305  21.485  0.00  0.00    +0.000 OA
ATOM     36  C   UNL     1      -5.633  16.644  21.178  0.00  0.00    +0.000 C 
ENDBRANCH  27  35
ENDBRANCH  19  20
ENDBRANCH   4  19
TORSDOF 11
ENDMDL
