MODEL 1
REMARK VINA RESULT:      -6.7      0.000      0.000
REMARK  Name = 
REMARK  7 active torsions:
REMARK  status: ('A' for Active; 'I' for Inactive)
REMARK    1  A    between atoms: C_1  and  C_2
REMARK    2  A    between atoms: C_4  and  C_5
REMARK    3  A    between atoms: C_5  and  N_6
REMARK    4  A    between atoms: C_13  and  C_14
REMARK    5  A    between atoms: C_14  and  O_15
REMARK    6  A    between atoms: O_15  and  C_16
REMARK    7  A    between atoms: C_16  and  C_17
REMARK                            x       y       z     vdW  Elec       q    Type
REMARK                         _______ _______ _______ _____ _____    ______ ____
ROOT
ATOM      1  N   UNL     1       3.462   4.448  18.026  0.00  0.00    +0.000 NA
ATOM      2  C   UNL     1       3.899   3.202  18.612  0.00  0.00    +0.000 C 
ATOM      3  C   UNL     1       4.879   3.592  19.716  0.00  0.00    +0.000 C 
ATOM      4  C   UNL     1       5.874   4.688  19.296  0.00  0.00    +0.000 C 
ATOM      5  N   UNL     1       6.321   4.642  17.923  0.00  0.00    +0.000 N 
ATOM      6  C   UNL     1       7.629   4.592  17.511  0.00  0.00    +0.000 A 
ATOM      7  N   UNL     1       7.727   4.635  16.199  0.00  0.00    +0.000 NA
ATOM      8  C   UNL     1       6.437   4.710  15.734  0.00  0.00    +0.000 A 
ATOM      9  C   UNL     1       5.544   4.726  16.789  0.00  0.00    +0.000 A 
ATOM     10  C   UNL     1       4.060   4.865  16.773  0.00  0.00    +0.000 C 
ENDROOT
BRANCH   1  11
ATOM     11  C   UNL     1       2.091   4.830  18.235  0.00  0.00    +0.000 C 
BRANCH  11  15
ATOM     12  C   UNL     1       1.399   8.458  21.509  0.00  0.00    +0.000 C 
ATOM     13  C   UNL     1       1.784   7.838  20.213  0.00  0.00    +0.000 A 
ATOM     14  N   UNL     1       1.912   6.544  20.033  0.00  0.00    +0.000 NA
ATOM     15  C   UNL     1       2.060   6.264  18.681  0.00  0.00    +0.000 A 
ATOM     16  C   UNL     1       2.134   7.382  17.869  0.00  0.00    +0.000 A 
ATOM     17  S   UNL     1       2.011   8.805  18.814  0.00  0.00    +0.000 S 
ENDBRANCH  11  15
ENDBRANCH   1  11
BRANCH   8  18
ATOM     18  C   UNL     1       6.142   4.849  14.278  0.00  0.00    +0.000 C 
BRANCH  18  19
ATOM     19  O   UNL     1       7.298   4.687  13.438  0.00  0.00    +0.000 OA
BRANCH  19  20
ATOM     20  C   UNL     1       6.979   4.080  12.186  0.00  0.00    +0.000 C 
BRANCH  20  21
ATOM     21  C   UNL     1       5.803   3.176  12.384  0.00  0.00    +0.000 C 
ATOM     22  C   UNL     1       4.625   3.237  11.441  0.00  0.00    +0.000 C 
ATOM     23  C   UNL     1       5.528   2.038  11.430  0.00  0.00    +0.000 C 
ENDBRANCH  20  21
ENDBRANCH  19  20
ENDBRANCH  18  19
ENDBRANCH   8  18
TORSDOF 6
ENDMDL
MODEL 2
REMARK VINA RESULT:      -6.6      1.349      1.823
REMARK  Name = 
REMARK  7 active torsions:
REMARK  status: ('A' for Active; 'I' for Inactive)
REMARK    1  A    between atoms: C_1  and  C_2
REMARK    2  A    between atoms: C_4  and  C_5
REMARK    3  A    between atoms: C_5  and  N_6
REMARK    4  A    between atoms: C_13  and  C_14
REMARK    5  A    between atoms: C_14  and  O_15
REMARK    6  A    between atoms: O_15  and  C_16
REMARK    7  A    between atoms: C_16  and  C_17
REMARK                            x       y       z     vdW  Elec       q    Type
REMARK                         _______ _______ _______ _____ _____    ______ ____
ROOT
ATOM      1  N   UNL     1       4.182   4.525  18.226  0.00  0.00    +0.000 NA
ATOM      2  C   UNL     1       5.317   4.109  19.016  0.00  0.00    +0.000 C 
ATOM      3  C   UNL     1       6.109   5.384  19.296  0.00  0.00    +0.000 C 
ATOM      4  C   UNL     1       6.263   6.295  18.064  0.00  0.00    +0.000 C 
ATOM      5  N   UNL     1       6.413   5.619  16.796  0.00  0.00    +0.000 N 
ATOM      6  C   UNL     1       7.444   5.806  15.910  0.00  0.00    +0.000 A 
ATOM      7  N   UNL     1       7.270   5.109  14.807  0.00  0.00    +0.000 NA
ATOM      8  C   UNL     1       6.085   4.436  14.979  0.00  0.00    +0.000 A 
ATOM      9  C   UNL     1       5.528   4.746  16.205  0.00  0.00    +0.000 A 
ATOM     10  C   UNL     1       4.228   4.313  16.793  0.00  0.00    +0.000 C 
ENDROOT
BRANCH   1  11
ATOM     11  C   UNL     1       2.883   4.441  18.840  0.00  0.00    +0.000 C 
BRANCH  11  15
ATOM     12  C   UNL     1       2.204   9.248  17.954  0.00  0.00    +0.000 C 
ATOM     13  C   UNL     1       2.105   7.966  18.701  0.00  0.00    +0.000 A 
ATOM     14  N   UNL     1       2.410   6.797  18.188  0.00  0.00    +0.000 NA
ATOM     15  C   UNL     1       2.429   5.830  19.184  0.00  0.00    +0.000 A 
ATOM     16  C   UNL     1       2.040   6.286  20.432  0.00  0.00    +0.000 A 
ATOM     17  S   UNL     1       1.650   7.951  20.356  0.00  0.00    +0.000 S 
ENDBRANCH  11  15
ENDBRANCH   1  11
BRANCH   8  18
ATOM     18  C   UNL     1       5.509   3.586  13.896  0.00  0.00    +0.000 C 
BRANCH  18  19
ATOM     19  O   UNL     1       6.273   3.610  12.678  0.00  0.00    +0.000 OA
BRANCH  19  20
ATOM     20  C   UNL     1       5.628   2.904  11.618  0.00  0.00    +0.000 C 
BRANCH  20  21
ATOM     21  C   UNL     1       4.203   3.357  11.546  0.00  0.00    +0.000 C 
ATOM     22  C   UNL     1       3.654   3.952  10.271  0.00  0.00    +0.000 C 
ATOM     23  C   UNL     1       3.187   2.599  10.725  0.00  0.00    +0.000 C 
ENDBRANCH  20  21
ENDBRANCH  19  20
ENDBRANCH  18  19
ENDBRANCH   8  18
TORSDOF 6
ENDMDL
MODEL 3
REMARK VINA RESULT:      -6.3      2.018      2.357
REMARK  Name = 
REMARK  7 active torsions:
REMARK  status: ('A' for Active; 'I' for Inactive)
REMARK    1  A    between atoms: C_1  and  C_2
REMARK    2  A    between atoms: C_4  and  C_5
REMARK    3  A    between atoms: C_5  and  N_6
REMARK    4  A    between atoms: C_13  and  C_14
REMARK    5  A    between atoms: C_14  and  O_15
REMARK    6  A    between atoms: O_15  and  C_16
REMARK    7  A    between atoms: C_16  and  C_17
REMARK                            x       y       z     vdW  Elec       q    Type
REMARK                         _______ _______ _______ _____ _____    ______ ____
ROOT
ATOM      1  N   UNL     1       3.996   3.510  17.271  0.00  0.00    +0.000 NA
ATOM      2  C   UNL     1       4.947   2.957  18.207  0.00  0.00    +0.000 C 
ATOM      3  C   UNL     1       5.254   4.085  19.190  0.00  0.00    +0.000 C 
ATOM      4  C   UNL     1       5.478   5.448  18.511  0.00  0.00    +0.000 C 
ATOM      5  N   UNL     1       6.141   5.413  17.228  0.00  0.00    +0.000 N 
ATOM      6  C   UNL     1       7.280   6.104  16.899  0.00  0.00    +0.000 A 
ATOM      7  N   UNL     1       7.605   5.932  15.635  0.00  0.00    +0.000 NA
ATOM      8  C   UNL     1       6.648   5.093  15.118  0.00  0.00    +0.000 A 
ATOM      9  C   UNL     1       5.720   4.764  16.089  0.00  0.00    +0.000 A 
ATOM     10  C   UNL     1       4.481   3.944  15.975  0.00  0.00    +0.000 C 
ENDROOT
BRANCH   1  11
ATOM     11  C   UNL     1       2.655   2.990  17.307  0.00  0.00    +0.000 C 
BRANCH  11  15
ATOM     12  C   UNL     1       1.329   5.978  21.004  0.00  0.00    +0.000 C 
ATOM     13  C   UNL     1       1.443   4.703  20.248  0.00  0.00    +0.000 A 
ATOM     14  N   UNL     1       1.850   4.627  19.002  0.00  0.00    +0.000 NA
ATOM     15  C   UNL     1       2.061   3.300  18.651  0.00  0.00    +0.000 A 
ATOM     16  C   UNL     1       1.712   2.386  19.629  0.00  0.00    +0.000 A 
ATOM     17  S   UNL     1       1.116   3.201  21.013  0.00  0.00    +0.000 S 
ENDBRANCH  11  15
ENDBRANCH   1  11
BRANCH   8  18
ATOM     18  C   UNL     1       6.639   4.720  13.673  0.00  0.00    +0.000 C 
BRANCH  18  19
ATOM     19  O   UNL     1       6.224   3.365  13.431  0.00  0.00    +0.000 OA
BRANCH  19  20
ATOM     20  C   UNL     1       5.877   3.139  12.065  0.00  0.00    +0.000 C 
BRANCH  20  21
ATOM     21  C   UNL     1       4.444   3.528  11.872  0.00  0.00    +0.000 C 
ATOM     22  C   UNL     1       3.948   3.961  10.513  0.00  0.00    +0.000 C 
ATOM     23  C   UNL     1       3.499   2.648  11.087  0.00  0.00    +0.000 C 
ENDBRANCH  20  21
ENDBRANCH  19  20
ENDBRANCH  18  19
ENDBRANCH   8  18
TORSDOF 6
ENDMDL
MODEL 4
REMARK VINA RESULT:      -6.3      1.126      1.409
REMARK  Name = 
REMARK  7 active torsions:
REMARK  status: ('A' for Active; 'I' for Inactive)
REMARK    1  A    between atoms: C_1  and  C_2
REMARK    2  A    between atoms: C_4  and  C_5
REMARK    3  A    between atoms: C_5  and  N_6
REMARK    4  A    between atoms: C_13  and  C_14
REMARK    5  A    between atoms: C_14  and  O_15
REMARK    6  A    between atoms: O_15  and  C_16
REMARK    7  A    between atoms: C_16  and  C_17
REMARK                            x       y       z     vdW  Elec       q    Type
REMARK                         _______ _______ _______ _____ _____    ______ ____
ROOT
ATOM      1  N   UNL     1       3.480   4.375  17.759  0.00  0.00    +0.000 NA
ATOM      2  C   UNL     1       3.853   3.122  18.373  0.00  0.00    +0.000 C 
ATOM      3  C   UNL     1       4.702   3.498  19.585  0.00  0.00    +0.000 C 
ATOM      4  C   UNL     1       5.734   4.602  19.295  0.00  0.00    +0.000 C 
ATOM      5  N   UNL     1       6.332   4.577  17.979  0.00  0.00    +0.000 N 
ATOM      6  C   UNL     1       7.678   4.535  17.716  0.00  0.00    +0.000 A 
ATOM      7  N   UNL     1       7.923   4.598  16.424  0.00  0.00    +0.000 NA
ATOM      8  C   UNL     1       6.692   4.676  15.819  0.00  0.00    +0.000 A 
ATOM      9  C   UNL     1       5.687   4.675  16.767  0.00  0.00    +0.000 A 
ATOM     10  C   UNL     1       4.214   4.811  16.587  0.00  0.00    +0.000 C 
ENDROOT
BRANCH   1  11
ATOM     11  C   UNL     1       2.093   4.752  17.819  0.00  0.00    +0.000 C 
BRANCH  11  15
ATOM     12  C   UNL     1       2.072   9.683  18.010  0.00  0.00    +0.000 C 
ATOM     13  C   UNL     1       1.937   8.292  18.520  0.00  0.00    +0.000 A 
ATOM     14  N   UNL     1       1.895   7.232  17.745  0.00  0.00    +0.000 NA
ATOM     15  C   UNL     1       1.990   6.079  18.512  0.00  0.00    +0.000 A 
ATOM     16  C   UNL     1       2.008   6.299  19.879  0.00  0.00    +0.000 A 
ATOM     17  S   UNL     1       1.911   7.977  20.206  0.00  0.00    +0.000 S 
ENDBRANCH  11  15
ENDBRANCH   1  11
BRANCH   8  18
ATOM     18  C   UNL     1       6.561   4.836  14.340  0.00  0.00    +0.000 C 
BRANCH  18  19
ATOM     19  O   UNL     1       5.874   3.746  13.702  0.00  0.00    +0.000 OA
BRANCH  19  20
ATOM     20  C   UNL     1       6.253   3.589  12.335  0.00  0.00    +0.000 C 
BRANCH  20  21
ATOM     21  C   UNL     1       6.555   2.144  12.092  0.00  0.00    +0.000 C 
ATOM     22  C   UNL     1       5.778   1.365  11.057  0.00  0.00    +0.000 C 
ATOM     23  C   UNL     1       7.222   1.694  10.813  0.00  0.00    +0.000 C 
ENDBRANCH  20  21
ENDBRANCH  19  20
ENDBRANCH  18  19
ENDBRANCH   8  18
TORSDOF 6
ENDMDL
MODEL 5
REMARK VINA RESULT:      -6.2      1.438      1.888
REMARK  Name = 
REMARK  7 active torsions:
REMARK  status: ('A' for Active; 'I' for Inactive)
REMARK    1  A    between atoms: C_1  and  C_2
REMARK    2  A    between atoms: C_4  and  C_5
REMARK    3  A    between atoms: C_5  and  N_6
REMARK    4  A    between atoms: C_13  and  C_14
REMARK    5  A    between atoms: C_14  and  O_15
REMARK    6  A    between atoms: O_15  and  C_16
REMARK    7  A    between atoms: C_16  and  C_17
REMARK                            x       y       z     vdW  Elec       q    Type
REMARK                         _______ _______ _______ _____ _____    ______ ____
ROOT
ATOM      1  N   UNL     1       4.231   4.448  18.129  0.00  0.00    +0.000 NA
ATOM      2  C   UNL     1       5.340   4.190  19.016  0.00  0.00    +0.000 C 
ATOM      3  C   UNL     1       6.007   5.546  19.241  0.00  0.00    +0.000 C 
ATOM      4  C   UNL     1       6.169   6.373  17.954  0.00  0.00    +0.000 C 
ATOM      5  N   UNL     1       6.457   5.621  16.753  0.00  0.00    +0.000 N 
ATOM      6  C   UNL     1       7.526   5.830  15.919  0.00  0.00    +0.000 A 
ATOM      7  N   UNL     1       7.482   5.041  14.866  0.00  0.00    +0.000 NA
ATOM      8  C   UNL     1       6.346   4.284  15.019  0.00  0.00    +0.000 A 
ATOM      9  C   UNL     1       5.685   4.635  16.182  0.00  0.00    +0.000 A 
ATOM     10  C   UNL     1       4.389   4.136  16.722  0.00  0.00    +0.000 C 
ENDROOT
BRANCH   1  11
ATOM     11  C   UNL     1       2.905   4.300  18.669  0.00  0.00    +0.000 C 
BRANCH  11  15
ATOM     12  C   UNL     1       2.024   9.122  18.104  0.00  0.00    +0.000 C 
ATOM     13  C   UNL     1       2.001   7.796  18.776  0.00  0.00    +0.000 A 
ATOM     14  N   UNL     1       2.324   6.671  18.180  0.00  0.00    +0.000 NA
ATOM     15  C   UNL     1       2.419   5.648  19.115  0.00  0.00    +0.000 A 
ATOM     16  C   UNL     1       2.068   6.014  20.402  0.00  0.00    +0.000 A 
ATOM     17  S   UNL     1       1.619   7.666  20.444  0.00  0.00    +0.000 S 
ENDBRANCH  11  15
ENDBRANCH   1  11
BRANCH   8  18
ATOM     18  C   UNL     1       5.914   3.310  13.974  0.00  0.00    +0.000 C 
BRANCH  18  19
ATOM     19  O   UNL     1       5.103   3.896  12.941  0.00  0.00    +0.000 OA
BRANCH  19  20
ATOM     20  C   UNL     1       5.211   3.196  11.702  0.00  0.00    +0.000 C 
BRANCH  20  21
ATOM     21  C   UNL     1       6.198   2.084  11.872  0.00  0.00    +0.000 C 
ATOM     22  C   UNL     1       6.157   0.880  10.961  0.00  0.00    +0.000 C 
ATOM     23  C   UNL     1       7.294   1.856  10.858  0.00  0.00    +0.000 C 
ENDBRANCH  20  21
ENDBRANCH  19  20
ENDBRANCH  18  19
ENDBRANCH   8  18
TORSDOF 6
ENDMDL
MODEL 6
REMARK VINA RESULT:      -6.2      2.162      2.926
REMARK  Name = 
REMARK  7 active torsions:
REMARK  status: ('A' for Active; 'I' for Inactive)
REMARK    1  A    between atoms: C_1  and  C_2
REMARK    2  A    between atoms: C_4  and  C_5
REMARK    3  A    between atoms: C_5  and  N_6
REMARK    4  A    between atoms: C_13  and  C_14
REMARK    5  A    between atoms: C_14  and  O_15
REMARK    6  A    between atoms: O_15  and  C_16
REMARK    7  A    between atoms: C_16  and  C_17
REMARK                            x       y       z     vdW  Elec       q    Type
REMARK                         _______ _______ _______ _____ _____    ______ ____
ROOT
ATOM      1  N   UNL     1       4.512   5.596  18.319  0.00  0.00    +0.000 NA
ATOM      2  C   UNL     1       5.410   4.754  19.076  0.00  0.00    +0.000 C 
ATOM      3  C   UNL     1       6.674   5.586  19.280  0.00  0.00    +0.000 C 
ATOM      4  C   UNL     1       7.131   6.332  18.013  0.00  0.00    +0.000 C 
ATOM      5  N   UNL     1       6.920   5.639  16.763  0.00  0.00    +0.000 N 
ATOM      6  C   UNL     1       7.888   5.367  15.829  0.00  0.00    +0.000 A 
ATOM      7  N   UNL     1       7.383   4.792  14.758  0.00  0.00    +0.000 NA
ATOM      8  C   UNL     1       6.036   4.678  15.001  0.00  0.00    +0.000 A 
ATOM      9  C   UNL     1       5.723   5.209  16.239  0.00  0.00    +0.000 A 
ATOM     10  C   UNL     1       4.392   5.366  16.893  0.00  0.00    +0.000 C 
ENDROOT
BRANCH   1  11
ATOM     11  C   UNL     1       3.331   6.071  18.989  0.00  0.00    +0.000 C 
BRANCH  11  15
ATOM     12  C   UNL     1       0.560   1.993  18.767  0.00  0.00    +0.000 C 
ATOM     13  C   UNL     1       1.407   3.040  19.397  0.00  0.00    +0.000 A 
ATOM     14  N   UNL     1       2.106   3.920  18.718  0.00  0.00    +0.000 NA
ATOM     15  C   UNL     1       2.608   4.891  19.573  0.00  0.00    +0.000 A 
ATOM     16  C   UNL     1       2.348   4.665  20.913  0.00  0.00    +0.000 A 
ATOM     17  S   UNL     1       1.456   3.215  21.104  0.00  0.00    +0.000 S 
ENDBRANCH  11  15
ENDBRANCH   1  11
BRANCH   8  18
ATOM     18  C   UNL     1       5.103   4.132  13.972  0.00  0.00    +0.000 C 
BRANCH  18  19
ATOM     19  O   UNL     1       5.713   3.167  13.097  0.00  0.00    +0.000 OA
BRANCH  19  20
ATOM     20  C   UNL     1       5.468   3.451  11.720  0.00  0.00    +0.000 C 
BRANCH  20  21
ATOM     21  C   UNL     1       3.990   3.573  11.518  0.00  0.00    +0.000 C 
ATOM     22  C   UNL     1       3.435   4.021  10.187  0.00  0.00    +0.000 C 
ATOM     23  C   UNL     1       3.243   2.601  10.635  0.00  0.00    +0.000 C 
ENDBRANCH  20  21
ENDBRANCH  19  20
ENDBRANCH  18  19
ENDBRANCH   8  18
TORSDOF 6
ENDMDL
MODEL 7
REMARK VINA RESULT:      -6.2      2.744      4.104
REMARK  Name = 
REMARK  7 active torsions:
REMARK  status: ('A' for Active; 'I' for Inactive)
REMARK    1  A    between atoms: C_1  and  C_2
REMARK    2  A    between atoms: C_4  and  C_5
REMARK    3  A    between atoms: C_5  and  N_6
REMARK    4  A    between atoms: C_13  and  C_14
REMARK    5  A    between atoms: C_14  and  O_15
REMARK    6  A    between atoms: O_15  and  C_16
REMARK    7  A    between atoms: C_16  and  C_17
REMARK                            x       y       z     vdW  Elec       q    Type
REMARK                         _______ _______ _______ _____ _____    ______ ____
ROOT
ATOM      1  N   UNL     1       2.279   5.452  20.214  0.00  0.00    +0.000 NA
ATOM      2  C   UNL     1       1.030   4.756  20.004  0.00  0.00    +0.000 C 
ATOM      3  C   UNL     1       1.129   3.479  20.836  0.00  0.00    +0.000 C 
ATOM      4  C   UNL     1       2.489   2.768  20.711  0.00  0.00    +0.000 C 
ATOM      5  N   UNL     1       3.116   2.829  19.411  0.00  0.00    +0.000 N 
ATOM      6  C   UNL     1       3.528   1.748  18.673  0.00  0.00    +0.000 A 
ATOM      7  N   UNL     1       4.132   2.118  17.564  0.00  0.00    +0.000 NA
ATOM      8  C   UNL     1       4.110   3.492  17.573  0.00  0.00    +0.000 A 
ATOM      9  C   UNL     1       3.492   3.957  18.718  0.00  0.00    +0.000 A 
ATOM     10  C   UNL     1       3.298   5.359  19.187  0.00  0.00    +0.000 C 
ENDROOT
BRANCH   1  11
ATOM     11  C   UNL     1       2.231   6.684  20.954  0.00  0.00    +0.000 C 
BRANCH  11  15
ATOM     12  C   UNL     1      -0.316  10.657  19.511  0.00  0.00    +0.000 C 
ATOM     13  C   UNL     1       0.733   9.605  19.446  0.00  0.00    +0.000 A 
ATOM     14  N   UNL     1       1.021   8.799  20.441  0.00  0.00    +0.000 NA
ATOM     15  C   UNL     1       1.876   7.795  20.008  0.00  0.00    +0.000 A 
ATOM     16  C   UNL     1       2.292   7.924  18.694  0.00  0.00    +0.000 A 
ATOM     17  S   UNL     1       1.597   9.322  17.990  0.00  0.00    +0.000 S 
ENDBRANCH  11  15
ENDBRANCH   1  11
BRANCH   8  18
ATOM     18  C   UNL     1       4.774   4.287  16.498  0.00  0.00    +0.000 C 
BRANCH  18  19
ATOM     19  O   UNL     1       6.190   4.056  16.402  0.00  0.00    +0.000 OA
BRANCH  19  20
ATOM     20  C   UNL     1       6.923   5.259  16.172  0.00  0.00    +0.000 C 
BRANCH  20  21
ATOM     21  C   UNL     1       6.675   6.190  17.318  0.00  0.00    +0.000 C 
ATOM     22  C   UNL     1       7.625   6.226  18.492  0.00  0.00    +0.000 C 
ATOM     23  C   UNL     1       7.561   7.392  17.548  0.00  0.00    +0.000 C 
ENDBRANCH  20  21
ENDBRANCH  19  20
ENDBRANCH  18  19
ENDBRANCH   8  18
TORSDOF 6
ENDMDL
MODEL 8
REMARK VINA RESULT:      -6.1      3.513      7.366
REMARK  Name = 
REMARK  7 active torsions:
REMARK  status: ('A' for Active; 'I' for Inactive)
REMARK    1  A    between atoms: C_1  and  C_2
REMARK    2  A    between atoms: C_4  and  C_5
REMARK    3  A    between atoms: C_5  and  N_6
REMARK    4  A    between atoms: C_13  and  C_14
REMARK    5  A    between atoms: C_14  and  O_15
REMARK    6  A    between atoms: O_15  and  C_16
REMARK    7  A    between atoms: C_16  and  C_17
REMARK                            x       y       z     vdW  Elec       q    Type
REMARK                         _______ _______ _______ _____ _____    ______ ____
ROOT
ATOM      1  N   UNL     1       4.321   3.985  17.747  0.00  0.00    +0.000 NA
ATOM      2  C   UNL     1       4.612   2.748  18.435  0.00  0.00    +0.000 C 
ATOM      3  C   UNL     1       3.582   1.744  17.921  0.00  0.00    +0.000 C 
ATOM      4  C   UNL     1       2.155   2.314  17.838  0.00  0.00    +0.000 C 
ATOM      5  N   UNL     1       1.789   3.251  18.875  0.00  0.00    +0.000 N 
ATOM      6  C   UNL     1       0.701   3.139  19.704  0.00  0.00    +0.000 A 
ATOM      7  N   UNL     1       0.584   4.183  20.497  0.00  0.00    +0.000 NA
ATOM      8  C   UNL     1       1.637   5.006  20.181  0.00  0.00    +0.000 A 
ATOM      9  C   UNL     1       2.395   4.452  19.167  0.00  0.00    +0.000 A 
ATOM     10  C   UNL     1       3.583   5.009  18.459  0.00  0.00    +0.000 C 
ENDROOT
BRANCH   1  11
ATOM     11  C   UNL     1       5.286   4.448  16.785  0.00  0.00    +0.000 C 
BRANCH  11  15
ATOM     12  C   UNL     1       7.828   8.614  17.517  0.00  0.00    +0.000 C 
ATOM     13  C   UNL     1       7.351   7.234  17.798  0.00  0.00    +0.000 A 
ATOM     14  N   UNL     1       6.345   6.667  17.172  0.00  0.00    +0.000 NA
ATOM     15  C   UNL     1       6.284   5.318  17.493  0.00  0.00    +0.000 A 
ATOM     16  C   UNL     1       7.205   4.913  18.442  0.00  0.00    +0.000 A 
ATOM     17  S   UNL     1       8.167   6.241  18.936  0.00  0.00    +0.000 S 
ENDBRANCH  11  15
ENDBRANCH   1  11
BRANCH   8  18
ATOM     18  C   UNL     1       1.802   6.340  20.829  0.00  0.00    +0.000 C 
BRANCH  18  19
ATOM     19  O   UNL     1       2.034   7.409  19.896  0.00  0.00    +0.000 OA
BRANCH  19  20
ATOM     20  C   UNL     1       1.303   8.589  20.228  0.00  0.00    +0.000 C 
BRANCH  20  21
ATOM     21  C   UNL     1       0.681   8.396  21.576  0.00  0.00    +0.000 C 
ATOM     22  C   UNL     1       0.947   9.383  22.688  0.00  0.00    +0.000 C 
ATOM     23  C   UNL     1      -0.417   9.313  22.063  0.00  0.00    +0.000 C 
ENDBRANCH  20  21
ENDBRANCH  19  20
ENDBRANCH  18  19
ENDBRANCH   8  18
TORSDOF 6
ENDMDL
MODEL 9
REMARK VINA RESULT:      -6.0      2.954      4.872
REMARK  Name = 
REMARK  7 active torsions:
REMARK  status: ('A' for Active; 'I' for Inactive)
REMARK    1  A    between atoms: C_1  and  C_2
REMARK    2  A    between atoms: C_4  and  C_5
REMARK    3  A    between atoms: C_5  and  N_6
REMARK    4  A    between atoms: C_13  and  C_14
REMARK    5  A    between atoms: C_14  and  O_15
REMARK    6  A    between atoms: O_15  and  C_16
REMARK    7  A    between atoms: C_16  and  C_17
REMARK                            x       y       z     vdW  Elec       q    Type
REMARK                         _______ _______ _______ _____ _____    ______ ____
ROOT
ATOM      1  N   UNL     1       3.442   5.347  18.996  0.00  0.00    +0.000 NA
ATOM      2  C   UNL     1       2.812   5.375  17.697  0.00  0.00    +0.000 C 
ATOM      3  C   UNL     1       2.927   3.951  17.157  0.00  0.00    +0.000 C 
ATOM      4  C   UNL     1       4.314   3.320  17.377  0.00  0.00    +0.000 C 
ATOM      5  N   UNL     1       5.440   4.220  17.275  0.00  0.00    +0.000 N 
ATOM      6  C   UNL     1       6.520   4.054  16.446  0.00  0.00    +0.000 A 
ATOM      7  N   UNL     1       7.422   4.995  16.629  0.00  0.00    +0.000 NA
ATOM      8  C   UNL     1       6.911   5.811  17.609  0.00  0.00    +0.000 A 
ATOM      9  C   UNL     1       5.683   5.342  18.035  0.00  0.00    +0.000 A 
ATOM     10  C   UNL     1       4.794   5.857  19.115  0.00  0.00    +0.000 C 
ENDROOT
BRANCH   1  11
ATOM     11  C   UNL     1       2.593   5.520  20.145  0.00  0.00    +0.000 C 
BRANCH  11  15
ATOM     12  C   UNL     1      -0.141   9.251  21.865  0.00  0.00    +0.000 C 
ATOM     13  C   UNL     1       0.834   8.564  20.977  0.00  0.00    +0.000 A 
ATOM     14  N   UNL     1       1.343   7.380  21.229  0.00  0.00    +0.000 NA
ATOM     15  C   UNL     1       2.039   6.915  20.122  0.00  0.00    +0.000 A 
ATOM     16  C   UNL     1       2.118   7.817  19.075  0.00  0.00    +0.000 A 
ATOM     17  S   UNL     1       1.302   9.267  19.483  0.00  0.00    +0.000 S 
ENDBRANCH  11  15
ENDBRANCH   1  11
BRANCH   8  18
ATOM     18  C   UNL     1       7.691   6.965  18.145  0.00  0.00    +0.000 C 
BRANCH  18  19
ATOM     19  O   UNL     1       7.825   8.052  17.214  0.00  0.00    +0.000 OA
BRANCH  19  20
ATOM     20  C   UNL     1       7.756   9.326  17.852  0.00  0.00    +0.000 C 
BRANCH  20  21
ATOM     21  C   UNL     1       9.116   9.666  18.378  0.00  0.00    +0.000 C 
ATOM     22  C   UNL     1       9.640  11.079  18.285  0.00  0.00    +0.000 C 
ATOM     23  C   UNL     1       9.280  10.503  19.625  0.00  0.00    +0.000 C 
ENDBRANCH  20  21
ENDBRANCH  19  20
ENDBRANCH  18  19
ENDBRANCH   8  18
TORSDOF 6
ENDMDL
