MODEL 1
REMARK VINA RESULT:      -8.9      0.000      0.000
REMARK  Name = 
REMARK  4 active torsions:
REMARK  status: ('A' for Active; 'I' for Inactive)
REMARK    1  A    between atoms: C_6  and  C_7
REMARK    2  A    between atoms: C_7  and  C_8
REMARK    3  A    between atoms: N_10  and  C_11
REMARK    4  A    between atoms: C_19  and  C_20
REMARK                            x       y       z     vdW  Elec       q    Type
REMARK                         _______ _______ _______ _____ _____    ______ ____
ROOT
ATOM      1  C   UNL     1       4.691   4.934  18.525  0.00  0.00    +0.000 A 
ATOM      2  C   UNL     1       3.964   5.803  19.311  0.00  0.00    +0.000 A 
ATOM      3  N   UNL     1       3.371   6.723  18.481  0.00  0.00    +0.000 N 
ATOM      4  N   UNL     1       3.754   6.532  17.197  0.00  0.00    +0.000 NA
ATOM      5  C   UNL     1       4.618   5.502  17.213  0.00  0.00    +0.000 A 
ENDROOT
BRANCH   3   6
ATOM      6  C   UNL     1       2.427   7.726  18.849  0.00  0.00    +0.000 A 
ATOM      7  C   UNL     1       1.923   7.792  20.157  0.00  0.00    +0.000 A 
ATOM      8  C   UNL     1       0.976   8.762  20.502  0.00  0.00    +0.000 A 
ATOM      9  C   UNL     1       0.525   9.663  19.541  0.00  0.00    +0.000 A 
ATOM     10 CL   UNL     1      -0.649  10.845  19.970  0.00  0.00    +0.000 Cl
ATOM     11  C   UNL     1       1.018   9.610  18.239  0.00  0.00    +0.000 A 
ATOM     12  C   UNL     1       1.974   8.646  17.892  0.00  0.00    +0.000 A 
ENDBRANCH   3   6
BRANCH   5  13
ATOM     13  C   UNL     1       5.306   5.090  15.981  0.00  0.00    +0.000 A 
ATOM     14  C   UNL     1       6.629   5.482  15.729  0.00  0.00    +0.000 A 
ATOM     15  C   UNL     1       7.288   5.099  14.556  0.00  0.00    +0.000 A 
ATOM     16  C   UNL     1       6.612   4.355  13.598  0.00  0.00    +0.000 A 
ATOM     17 CL   UNL     1       7.408   3.928  12.134  0.00  0.00    +0.000 Cl
ATOM     18  C   UNL     1       5.288   3.979  13.809  0.00  0.00    +0.000 A 
ATOM     19  C   UNL     1       4.639   4.341  14.997  0.00  0.00    +0.000 A 
ENDBRANCH   5  13
BRANCH   1  20
ATOM     20  C   UNL     1       5.336   3.673  19.024  0.00  0.00    +0.000 C 
BRANCH  20  26
ATOM     21  O   UNL     1       0.985   3.210  21.390  0.00  0.00    +0.000 OA
ATOM     22  C   UNL     1       1.995   2.999  20.732  0.00  0.00    +0.000 C 
ATOM     23  N   UNL     1       2.046   3.244  19.395  0.00  0.00    +0.000 N 
ATOM     24  C   UNL     1       3.036   2.815  18.559  0.00  0.00    +0.000 C 
ATOM     25  O   UNL     1       2.855   2.730  17.348  0.00  0.00    +0.000 OA
ATOM     26  C   UNL     1       4.362   2.499  19.198  0.00  0.00    +0.000 C 
ATOM     27  C   UNL     1       4.260   2.113  20.645  0.00  0.00    +0.000 C 
ATOM     28  O   UNL     1       5.185   1.576  21.250  0.00  0.00    +0.000 OA
ATOM     29  N   UNL     1       3.104   2.447  21.294  0.00  0.00    +0.000 N 
ATOM     30  H   UNL     1       1.174   3.522  18.965  0.00  0.00    +0.000 HD
ATOM     31  H   UNL     1       3.045   2.218  22.276  0.00  0.00    +0.000 HD
ENDBRANCH  20  26
ENDBRANCH   1  20
TORSDOF 4
ENDMDL
MODEL 2
REMARK VINA RESULT:      -8.9      0.081      1.271
REMARK  Name = 
REMARK  4 active torsions:
REMARK  status: ('A' for Active; 'I' for Inactive)
REMARK    1  A    between atoms: C_6  and  C_7
REMARK    2  A    between atoms: C_7  and  C_8
REMARK    3  A    between atoms: N_10  and  C_11
REMARK    4  A    between atoms: C_19  and  C_20
REMARK                            x       y       z     vdW  Elec       q    Type
REMARK                         _______ _______ _______ _____ _____    ______ ____
ROOT
ATOM      1  C   UNL     1       4.676   4.923  18.504  0.00  0.00    +0.000 A 
ATOM      2  C   UNL     1       3.944   5.768  19.313  0.00  0.00    +0.000 A 
ATOM      3  N   UNL     1       3.342   6.702  18.506  0.00  0.00    +0.000 N 
ATOM      4  N   UNL     1       3.724   6.545  17.217  0.00  0.00    +0.000 NA
ATOM      5  C   UNL     1       4.596   5.522  17.207  0.00  0.00    +0.000 A 
ENDROOT
BRANCH   3   6
ATOM      6  C   UNL     1       2.392   7.689  18.900  0.00  0.00    +0.000 A 
ATOM      7  C   UNL     1       1.928   8.645  17.983  0.00  0.00    +0.000 A 
ATOM      8  C   UNL     1       1.017   9.628  18.385  0.00  0.00    +0.000 A 
ATOM      9  C   UNL     1       0.571   9.661  19.704  0.00  0.00    +0.000 A 
ATOM     10 CL   UNL     1      -0.540  10.879  20.194  0.00  0.00    +0.000 Cl
ATOM     11  C   UNL     1       1.021   8.717  20.624  0.00  0.00    +0.000 A 
ATOM     12  C   UNL     1       1.927   7.726  20.223  0.00  0.00    +0.000 A 
ENDBRANCH   3   6
BRANCH   5  13
ATOM     13  C   UNL     1       5.284   5.144  15.963  0.00  0.00    +0.000 A 
ATOM     14  C   UNL     1       4.641   4.361  14.993  0.00  0.00    +0.000 A 
ATOM     15  C   UNL     1       5.291   3.994  13.811  0.00  0.00    +0.000 A 
ATOM     16  C   UNL     1       6.613   4.369  13.606  0.00  0.00    +0.000 A 
ATOM     17 CL   UNL     1       7.427   3.873  12.174  0.00  0.00    +0.000 Cl
ATOM     18  C   UNL     1       7.285   5.120  14.567  0.00  0.00    +0.000 A 
ATOM     19  C   UNL     1       6.622   5.510  15.739  0.00  0.00    +0.000 A 
ENDBRANCH   5  13
BRANCH   1  20
ATOM     20  C   UNL     1       5.332   3.656  18.972  0.00  0.00    +0.000 C 
BRANCH  20  26
ATOM     21  O   UNL     1       0.982   3.236  21.349  0.00  0.00    +0.000 OA
ATOM     22  C   UNL     1       1.993   3.013  20.695  0.00  0.00    +0.000 C 
ATOM     23  N   UNL     1       2.043   3.231  19.353  0.00  0.00    +0.000 N 
ATOM     24  C   UNL     1       3.032   2.787  18.526  0.00  0.00    +0.000 C 
ATOM     25  O   UNL     1       2.851   2.677  17.316  0.00  0.00    +0.000 OA
ATOM     26  C   UNL     1       4.359   2.485  19.170  0.00  0.00    +0.000 C 
ATOM     27  C   UNL     1       4.258   2.128  20.625  0.00  0.00    +0.000 C 
ATOM     28  O   UNL     1       5.184   1.604  21.240  0.00  0.00    +0.000 OA
ATOM     29  N   UNL     1       3.102   2.473  21.267  0.00  0.00    +0.000 N 
ATOM     30  H   UNL     1       1.170   3.500  18.918  0.00  0.00    +0.000 HD
ATOM     31  H   UNL     1       3.044   2.265  22.254  0.00  0.00    +0.000 HD
ENDBRANCH  20  26
ENDBRANCH   1  20
TORSDOF 4
ENDMDL
MODEL 3
REMARK VINA RESULT:      -8.9      1.293      1.880
REMARK  Name = 
REMARK  4 active torsions:
REMARK  status: ('A' for Active; 'I' for Inactive)
REMARK    1  A    between atoms: C_6  and  C_7
REMARK    2  A    between atoms: C_7  and  C_8
REMARK    3  A    between atoms: N_10  and  C_11
REMARK    4  A    between atoms: C_19  and  C_20
REMARK                            x       y       z     vdW  Elec       q    Type
REMARK                         _______ _______ _______ _____ _____    ______ ____
ROOT
ATOM      1  C   UNL     1       4.108   4.788  19.282  0.00  0.00    +0.000 A 
ATOM      2  C   UNL     1       3.414   5.646  20.109  0.00  0.00    +0.000 A 
ATOM      3  N   UNL     1       2.842   6.615  19.322  0.00  0.00    +0.000 N 
ATOM      4  N   UNL     1       3.210   6.465  18.028  0.00  0.00    +0.000 NA
ATOM      5  C   UNL     1       4.043   5.410  17.996  0.00  0.00    +0.000 A 
ENDROOT
BRANCH   3   6
ATOM      6  C   UNL     1       1.931   7.630  19.738  0.00  0.00    +0.000 A 
ATOM      7  C   UNL     1       1.644   8.722  18.904  0.00  0.00    +0.000 A 
ATOM      8  C   UNL     1       0.771   9.728  19.332  0.00  0.00    +0.000 A 
ATOM      9  C   UNL     1       0.188   9.649  20.594  0.00  0.00    +0.000 A 
ATOM     10 CL   UNL     1      -0.875  10.896  21.117  0.00  0.00    +0.000 Cl
ATOM     11  C   UNL     1       0.463   8.570  21.431  0.00  0.00    +0.000 A 
ATOM     12  C   UNL     1       1.329   7.556  21.003  0.00  0.00    +0.000 A 
ENDBRANCH   3   6
BRANCH   5  13
ATOM     13  C   UNL     1       4.709   5.028  16.741  0.00  0.00    +0.000 A 
ATOM     14  C   UNL     1       4.994   3.684  16.457  0.00  0.00    +0.000 A 
ATOM     15  C   UNL     1       5.632   3.314  15.270  0.00  0.00    +0.000 A 
ATOM     16  C   UNL     1       6.035   4.293  14.370  0.00  0.00    +0.000 A 
ATOM     17 CL   UNL     1       6.865   3.839  12.933  0.00  0.00    +0.000 Cl
ATOM     18  C   UNL     1       5.793   5.637  14.642  0.00  0.00    +0.000 A 
ATOM     19  C   UNL     1       5.128   6.002  15.821  0.00  0.00    +0.000 A 
ENDBRANCH   5  13
BRANCH   1  20
ATOM     20  C   UNL     1       4.720   3.490  19.725  0.00  0.00    +0.000 C 
BRANCH  20  26
ATOM     21  O   UNL     1      -0.027   2.897  18.360  0.00  0.00    +0.000 OA
ATOM     22  C   UNL     1       1.090   2.738  18.835  0.00  0.00    +0.000 C 
ATOM     23  N   UNL     1       2.103   2.181  18.118  0.00  0.00    +0.000 N 
ATOM     24  C   UNL     1       3.287   1.752  18.642  0.00  0.00    +0.000 C 
ATOM     25  O   UNL     1       3.990   0.938  18.049  0.00  0.00    +0.000 OA
ATOM     26  C   UNL     1       3.700   2.365  19.954  0.00  0.00    +0.000 C 
ATOM     27  C   UNL     1       2.548   2.861  20.778  0.00  0.00    +0.000 C 
ATOM     28  O   UNL     1       2.664   3.144  21.969  0.00  0.00    +0.000 OA
ATOM     29  N   UNL     1       1.361   3.053  20.130  0.00  0.00    +0.000 N 
ATOM     30  H   UNL     1       1.852   1.825  17.205  0.00  0.00    +0.000 HD
ATOM     31  H   UNL     1       0.593   3.418  20.675  0.00  0.00    +0.000 HD
ENDBRANCH  20  26
ENDBRANCH   1  20
TORSDOF 4
ENDMDL
MODEL 4
REMARK VINA RESULT:      -8.9      1.276      1.521
REMARK  Name = 
REMARK  4 active torsions:
REMARK  status: ('A' for Active; 'I' for Inactive)
REMARK    1  A    between atoms: C_6  and  C_7
REMARK    2  A    between atoms: C_7  and  C_8
REMARK    3  A    between atoms: N_10  and  C_11
REMARK    4  A    between atoms: C_19  and  C_20
REMARK                            x       y       z     vdW  Elec       q    Type
REMARK                         _______ _______ _______ _____ _____    ______ ____
ROOT
ATOM      1  C   UNL     1       4.159   4.746  19.257  0.00  0.00    +0.000 A 
ATOM      2  C   UNL     1       3.468   5.611  20.079  0.00  0.00    +0.000 A 
ATOM      3  N   UNL     1       2.918   6.591  19.290  0.00  0.00    +0.000 N 
ATOM      4  N   UNL     1       3.297   6.440  17.999  0.00  0.00    +0.000 NA
ATOM      5  C   UNL     1       4.116   5.373  17.972  0.00  0.00    +0.000 A 
ENDROOT
BRANCH   3   6
ATOM      6  C   UNL     1       2.018   7.617  19.700  0.00  0.00    +0.000 A 
ATOM      7  C   UNL     1       1.403   7.571  20.961  0.00  0.00    +0.000 A 
ATOM      8  C   UNL     1       0.498   8.567  21.343  0.00  0.00    +0.000 A 
ATOM      9  C   UNL     1       0.201   9.607  20.467  0.00  0.00    +0.000 A 
ATOM     10 CL   UNL     1      -0.921  10.822  20.940  0.00  0.00    +0.000 Cl
ATOM     11  C   UNL     1       0.806   9.666  19.213  0.00  0.00    +0.000 A 
ATOM     12  C   UNL     1       1.719   8.676  18.829  0.00  0.00    +0.000 A 
ENDBRANCH   3   6
BRANCH   5  13
ATOM     13  C   UNL     1       4.790   4.986  16.723  0.00  0.00    +0.000 A 
ATOM     14  C   UNL     1       5.145   5.950  15.768  0.00  0.00    +0.000 A 
ATOM     15  C   UNL     1       5.781   5.589  14.576  0.00  0.00    +0.000 A 
ATOM     16  C   UNL     1       6.028   4.249  14.306  0.00  0.00    +0.000 A 
ATOM     17 CL   UNL     1       6.765   3.802  12.816  0.00  0.00    +0.000 Cl
ATOM     18  C   UNL     1       5.657   3.269  15.223  0.00  0.00    +0.000 A 
ATOM     19  C   UNL     1       5.045   3.637  16.429  0.00  0.00    +0.000 A 
ENDBRANCH   5  13
BRANCH   1  20
ATOM     20  C   UNL     1       4.747   3.438  19.702  0.00  0.00    +0.000 C 
BRANCH  20  26
ATOM     21  O   UNL     1      -0.010   2.934  18.334  0.00  0.00    +0.000 OA
ATOM     22  C   UNL     1       1.105   2.753  18.807  0.00  0.00    +0.000 C 
ATOM     23  N   UNL     1       2.108   2.183  18.088  0.00  0.00    +0.000 N 
ATOM     24  C   UNL     1       3.285   1.731  18.609  0.00  0.00    +0.000 C 
ATOM     25  O   UNL     1       3.973   0.908  18.011  0.00  0.00    +0.000 OA
ATOM     26  C   UNL     1       3.708   2.329  19.924  0.00  0.00    +0.000 C 
ATOM     27  C   UNL     1       2.565   2.840  20.752  0.00  0.00    +0.000 C 
ATOM     28  O   UNL     1       2.686   3.114  21.944  0.00  0.00    +0.000 OA
ATOM     29  N   UNL     1       1.381   3.056  20.105  0.00  0.00    +0.000 N 
ATOM     30  H   UNL     1       1.850   1.836  17.173  0.00  0.00    +0.000 HD
ATOM     31  H   UNL     1       0.619   3.431  20.652  0.00  0.00    +0.000 HD
ENDBRANCH  20  26
ENDBRANCH   1  20
TORSDOF 4
ENDMDL
MODEL 5
REMARK VINA RESULT:      -8.4      5.756     10.518
REMARK  Name = 
REMARK  4 active torsions:
REMARK  status: ('A' for Active; 'I' for Inactive)
REMARK    1  A    between atoms: C_6  and  C_7
REMARK    2  A    between atoms: C_7  and  C_8
REMARK    3  A    between atoms: N_10  and  C_11
REMARK    4  A    between atoms: C_19  and  C_20
REMARK                            x       y       z     vdW  Elec       q    Type
REMARK                         _______ _______ _______ _____ _____    ______ ____
ROOT
ATOM      1  C   UNL     1      -0.662  11.098  18.813  0.00  0.00    +0.000 A 
ATOM      2  C   UNL     1       0.123  10.163  18.169  0.00  0.00    +0.000 A 
ATOM      3  N   UNL     1       0.951   9.594  19.105  0.00  0.00    +0.000 N 
ATOM      4  N   UNL     1       0.790  10.184  20.312  0.00  0.00    +0.000 NA
ATOM      5  C   UNL     1      -0.125  11.153  20.138  0.00  0.00    +0.000 A 
ENDROOT
BRANCH   3   6
ATOM      6  C   UNL     1       1.835   8.493  18.910  0.00  0.00    +0.000 A 
ATOM      7  C   UNL     1       2.608   8.391  17.744  0.00  0.00    +0.000 A 
ATOM      8  C   UNL     1       3.452   7.292  17.548  0.00  0.00    +0.000 A 
ATOM      9  C   UNL     1       3.521   6.291  18.514  0.00  0.00    +0.000 A 
ATOM     10 CL   UNL     1       4.552   4.938  18.261  0.00  0.00    +0.000 Cl
ATOM     11  C   UNL     1       2.761   6.382  19.678  0.00  0.00    +0.000 A 
ATOM     12  C   UNL     1       1.921   7.484  19.882  0.00  0.00    +0.000 A 
ENDBRANCH   3   6
BRANCH   5  13
ATOM     13  C   UNL     1      -0.466  12.061  21.243  0.00  0.00    +0.000 A 
ATOM     14  C   UNL     1      -1.215  11.610  22.341  0.00  0.00    +0.000 A 
ATOM     15  C   UNL     1      -1.548  12.469  23.393  0.00  0.00    +0.000 A 
ATOM     16  C   UNL     1      -1.173  13.806  23.336  0.00  0.00    +0.000 A 
ATOM     17 CL   UNL     1      -1.627  14.872  24.607  0.00  0.00    +0.000 Cl
ATOM     18  C   UNL     1      -0.456  14.286  22.243  0.00  0.00    +0.000 A 
ATOM     19  C   UNL     1      -0.100  13.417  21.204  0.00  0.00    +0.000 A 
ENDBRANCH   5  13
BRANCH   1  20
ATOM     20  C   UNL     1      -1.826  11.808  18.185  0.00  0.00    +0.000 C 
BRANCH  20  26
ATOM     21  O   UNL     1      -6.462  12.835  16.700  0.00  0.00    +0.000 OA
ATOM     22  C   UNL     1      -5.481  12.339  17.239  0.00  0.00    +0.000 C 
ATOM     23  N   UNL     1      -4.753  11.357  16.643  0.00  0.00    +0.000 N 
ATOM     24  C   UNL     1      -3.810  10.595  17.268  0.00  0.00    +0.000 C 
ATOM     25  O   UNL     1      -3.464   9.508  16.813  0.00  0.00    +0.000 OA
ATOM     26  C   UNL     1      -3.190  11.180  18.509  0.00  0.00    +0.000 C 
ATOM     27  C   UNL     1      -4.069  12.172  19.214  0.00  0.00    +0.000 C 
ATOM     28  O   UNL     1      -3.848  12.548  20.363  0.00  0.00    +0.000 OA
ATOM     29  N   UNL     1      -5.104  12.701  18.495  0.00  0.00    +0.000 N 
ATOM     30  H   UNL     1      -5.125  11.001  15.772  0.00  0.00    +0.000 HD
ATOM     31  H   UNL     1      -5.677  13.393  18.956  0.00  0.00    +0.000 HD
ENDBRANCH  20  26
ENDBRANCH   1  20
TORSDOF 4
ENDMDL
MODEL 6
REMARK VINA RESULT:      -8.4      2.910      5.147
REMARK  Name = 
REMARK  4 active torsions:
REMARK  status: ('A' for Active; 'I' for Inactive)
REMARK    1  A    between atoms: C_6  and  C_7
REMARK    2  A    between atoms: C_7  and  C_8
REMARK    3  A    between atoms: N_10  and  C_11
REMARK    4  A    between atoms: C_19  and  C_20
REMARK                            x       y       z     vdW  Elec       q    Type
REMARK                         _______ _______ _______ _____ _____    ______ ____
ROOT
ATOM      1  C   UNL     1       3.262   7.056  18.072  0.00  0.00    +0.000 A 
ATOM      2  C   UNL     1       2.583   8.203  18.428  0.00  0.00    +0.000 A 
ATOM      3  N   UNL     1       1.902   7.943  19.591  0.00  0.00    +0.000 N 
ATOM      4  N   UNL     1       2.046   6.648  19.956  0.00  0.00    +0.000 NA
ATOM      5  C   UNL     1       2.802   6.073  19.005  0.00  0.00    +0.000 A 
ENDROOT
BRANCH   3   6
ATOM      6  C   UNL     1       1.175   8.878  20.385  0.00  0.00    +0.000 A 
ATOM      7  C   UNL     1       1.060   8.704  21.773  0.00  0.00    +0.000 A 
ATOM      8  C   UNL     1       0.320   9.610  22.540  0.00  0.00    +0.000 A 
ATOM      9  C   UNL     1      -0.311  10.687  21.924  0.00  0.00    +0.000 A 
ATOM     10 CL   UNL     1      -1.228  11.790  22.873  0.00  0.00    +0.000 Cl
ATOM     11  C   UNL     1      -0.203  10.873  20.547  0.00  0.00    +0.000 A 
ATOM     12  C   UNL     1       0.544   9.973  19.776  0.00  0.00    +0.000 A 
ENDBRANCH   3   6
BRANCH   5  13
ATOM     13  C   UNL     1       3.074   4.628  19.044  0.00  0.00    +0.000 A 
ATOM     14  C   UNL     1       4.245   4.131  19.634  0.00  0.00    +0.000 A 
ATOM     15  C   UNL     1       4.513   2.759  19.671  0.00  0.00    +0.000 A 
ATOM     16  C   UNL     1       3.630   1.869  19.074  0.00  0.00    +0.000 A 
ATOM     17 CL   UNL     1       3.987   0.186  19.076  0.00  0.00    +0.000 Cl
ATOM     18  C   UNL     1       2.475   2.338  18.454  0.00  0.00    +0.000 A 
ATOM     19  C   UNL     1       2.196   3.711  18.443  0.00  0.00    +0.000 A 
ENDBRANCH   5  13
BRANCH   1  20
ATOM     20  C   UNL     1       4.274   6.975  16.966  0.00  0.00    +0.000 C 
BRANCH  20  26
ATOM     21  O   UNL     1       8.044   5.375  14.141  0.00  0.00    +0.000 OA
ATOM     22  C   UNL     1       7.210   5.506  15.028  0.00  0.00    +0.000 C 
ATOM     23  N   UNL     1       7.429   6.300  16.110  0.00  0.00    +0.000 N 
ATOM     24  C   UNL     1       6.667   6.309  17.241  0.00  0.00    +0.000 C 
ATOM     25  O   UNL     1       7.105   6.743  18.303  0.00  0.00    +0.000 OA
ATOM     26  C   UNL     1       5.256   5.802  17.101  0.00  0.00    +0.000 C 
ATOM     27  C   UNL     1       5.071   4.831  15.972  0.00  0.00    +0.000 C 
ATOM     28  O   UNL     1       4.071   4.123  15.869  0.00  0.00    +0.000 OA
ATOM     29  N   UNL     1       6.041   4.810  15.009  0.00  0.00    +0.000 N 
ATOM     30  H   UNL     1       8.355   6.701  16.180  0.00  0.00    +0.000 HD
ATOM     31  H   UNL     1       5.904   4.181  14.231  0.00  0.00    +0.000 HD
ENDBRANCH  20  26
ENDBRANCH   1  20
TORSDOF 4
ENDMDL
MODEL 7
REMARK VINA RESULT:      -8.3      3.513      5.697
REMARK  Name = 
REMARK  4 active torsions:
REMARK  status: ('A' for Active; 'I' for Inactive)
REMARK    1  A    between atoms: C_6  and  C_7
REMARK    2  A    between atoms: C_7  and  C_8
REMARK    3  A    between atoms: N_10  and  C_11
REMARK    4  A    between atoms: C_19  and  C_20
REMARK                            x       y       z     vdW  Elec       q    Type
REMARK                         _______ _______ _______ _____ _____    ______ ____
ROOT
ATOM      1  C   UNL     1       3.042   7.507  17.808  0.00  0.00    +0.000 A 
ATOM      2  C   UNL     1       2.705   8.802  17.475  0.00  0.00    +0.000 A 
ATOM      3  N   UNL     1       1.847   9.273  18.438  0.00  0.00    +0.000 N 
ATOM      4  N   UNL     1       1.551   8.304  19.336  0.00  0.00    +0.000 NA
ATOM      5  C   UNL     1       2.202   7.202  18.926  0.00  0.00    +0.000 A 
ENDROOT
BRANCH   3   6
ATOM      6  C   UNL     1       1.350  10.603  18.567  0.00  0.00    +0.000 A 
ATOM      7  C   UNL     1       0.014  10.837  18.929  0.00  0.00    +0.000 A 
ATOM      8  C   UNL     1      -0.474  12.145  19.024  0.00  0.00    +0.000 A 
ATOM      9  C   UNL     1       0.369  13.220  18.754  0.00  0.00    +0.000 A 
ATOM     10 CL   UNL     1      -0.241  14.825  18.862  0.00  0.00    +0.000 Cl
ATOM     11  C   UNL     1       1.697  13.002  18.395  0.00  0.00    +0.000 A 
ATOM     12  C   UNL     1       2.192  11.694  18.307  0.00  0.00    +0.000 A 
ENDBRANCH   3   6
BRANCH   5  13
ATOM     13  C   UNL     1       2.019   5.925  19.632  0.00  0.00    +0.000 A 
ATOM     14  C   UNL     1       1.437   4.823  18.987  0.00  0.00    +0.000 A 
ATOM     15  C   UNL     1       1.254   3.607  19.654  0.00  0.00    +0.000 A 
ATOM     16  C   UNL     1       1.611   3.495  20.992  0.00  0.00    +0.000 A 
ATOM     17 CL   UNL     1       1.339   2.014  21.824  0.00  0.00    +0.000 Cl
ATOM     18  C   UNL     1       2.161   4.583  21.664  0.00  0.00    +0.000 A 
ATOM     19  C   UNL     1       2.368   5.792  20.985  0.00  0.00    +0.000 A 
ENDBRANCH   5  13
BRANCH   1  20
ATOM     20  C   UNL     1       4.102   6.699  17.116  0.00  0.00    +0.000 C 
BRANCH  20  26
ATOM     21  O   UNL     1       8.223   4.008  16.388  0.00  0.00    +0.000 OA
ATOM     22  C   UNL     1       7.369   4.751  16.855  0.00  0.00    +0.000 C 
ATOM     23  N   UNL     1       7.336   6.080  16.567  0.00  0.00    +0.000 N 
ATOM     24  C   UNL     1       6.580   7.004  17.225  0.00  0.00    +0.000 C 
ATOM     25  O   UNL     1       6.859   8.200  17.189  0.00  0.00    +0.000 OA
ATOM     26  C   UNL     1       5.370   6.484  17.955  0.00  0.00    +0.000 C 
ATOM     27  C   UNL     1       5.486   5.046  18.368  0.00  0.00    +0.000 C 
ATOM     28  O   UNL     1       4.727   4.533  19.188  0.00  0.00    +0.000 OA
ATOM     29  N   UNL     1       6.442   4.297  17.741  0.00  0.00    +0.000 N 
ATOM     30  H   UNL     1       8.112   6.430  16.019  0.00  0.00    +0.000 HD
ATOM     31  H   UNL     1       6.501   3.320  17.993  0.00  0.00    +0.000 HD
ENDBRANCH  20  26
ENDBRANCH   1  20
TORSDOF 4
ENDMDL
MODEL 8
REMARK VINA RESULT:      -8.3      5.782     10.468
REMARK  Name = 
REMARK  4 active torsions:
REMARK  status: ('A' for Active; 'I' for Inactive)
REMARK    1  A    between atoms: C_6  and  C_7
REMARK    2  A    between atoms: C_7  and  C_8
REMARK    3  A    between atoms: N_10  and  C_11
REMARK    4  A    between atoms: C_19  and  C_20
REMARK                            x       y       z     vdW  Elec       q    Type
REMARK                         _______ _______ _______ _____ _____    ______ ____
ROOT
ATOM      1  C   UNL     1      -0.700  11.107  18.791  0.00  0.00    +0.000 A 
ATOM      2  C   UNL     1       0.078  10.161  18.157  0.00  0.00    +0.000 A 
ATOM      3  N   UNL     1       0.905   9.600  19.099  0.00  0.00    +0.000 N 
ATOM      4  N   UNL     1       0.751  10.206  20.299  0.00  0.00    +0.000 NA
ATOM      5  C   UNL     1      -0.160  11.177  20.114  0.00  0.00    +0.000 A 
ENDROOT
BRANCH   3   6
ATOM      6  C   UNL     1       1.783   8.492  18.917  0.00  0.00    +0.000 A 
ATOM      7  C   UNL     1       1.893   7.494  19.898  0.00  0.00    +0.000 A 
ATOM      8  C   UNL     1       2.778   6.425  19.724  0.00  0.00    +0.000 A 
ATOM      9  C   UNL     1       3.560   6.353  18.574  0.00  0.00    +0.000 A 
ATOM     10 CL   UNL     1       4.655   5.041  18.373  0.00  0.00    +0.000 Cl
ATOM     11  C   UNL     1       3.460   7.335  17.591  0.00  0.00    +0.000 A 
ATOM     12  C   UNL     1       2.568   8.403  17.757  0.00  0.00    +0.000 A 
ENDBRANCH   3   6
BRANCH   5  13
ATOM     13  C   UNL     1      -0.494  12.101  21.209  0.00  0.00    +0.000 A 
ATOM     14  C   UNL     1      -0.016  13.419  21.210  0.00  0.00    +0.000 A 
ATOM     15  C   UNL     1      -0.324  14.302  22.250  0.00  0.00    +0.000 A 
ATOM     16  C   UNL     1      -1.080  13.858  23.327  0.00  0.00    +0.000 A 
ATOM     17 CL   UNL     1      -1.417  14.930  24.630  0.00  0.00    +0.000 Cl
ATOM     18  C   UNL     1      -1.542  12.545  23.367  0.00  0.00    +0.000 A 
ATOM     19  C   UNL     1      -1.254  11.671  22.309  0.00  0.00    +0.000 A 
ENDBRANCH   5  13
BRANCH   1  20
ATOM     20  C   UNL     1      -1.862  11.816  18.156  0.00  0.00    +0.000 C 
BRANCH  20  26
ATOM     21  O   UNL     1      -6.497  12.873  16.690  0.00  0.00    +0.000 OA
ATOM     22  C   UNL     1      -5.516  12.365  17.219  0.00  0.00    +0.000 C 
ATOM     23  N   UNL     1      -4.787  11.397  16.603  0.00  0.00    +0.000 N 
ATOM     24  C   UNL     1      -3.844  10.622  17.212  0.00  0.00    +0.000 C 
ATOM     25  O   UNL     1      -3.498   9.545  16.735  0.00  0.00    +0.000 OA
ATOM     26  C   UNL     1      -3.225  11.181  18.466  0.00  0.00    +0.000 C 
ATOM     27  C   UNL     1      -4.106  12.157  19.190  0.00  0.00    +0.000 C 
ATOM     28  O   UNL     1      -3.886  12.508  20.348  0.00  0.00    +0.000 OA
ATOM     29  N   UNL     1      -5.140  12.701  18.483  0.00  0.00    +0.000 N 
ATOM     30  H   UNL     1      -5.158  11.059  15.724  0.00  0.00    +0.000 HD
ATOM     31  H   UNL     1      -5.715  13.383  18.957  0.00  0.00    +0.000 HD
ENDBRANCH  20  26
ENDBRANCH   1  20
TORSDOF 4
ENDMDL
MODEL 9
REMARK VINA RESULT:      -8.3      1.397      1.736
REMARK  Name = 
REMARK  4 active torsions:
REMARK  status: ('A' for Active; 'I' for Inactive)
REMARK    1  A    between atoms: C_6  and  C_7
REMARK    2  A    between atoms: C_7  and  C_8
REMARK    3  A    between atoms: N_10  and  C_11
REMARK    4  A    between atoms: C_19  and  C_20
REMARK                            x       y       z     vdW  Elec       q    Type
REMARK                         _______ _______ _______ _____ _____    ______ ____
ROOT
ATOM      1  C   UNL     1       3.420   6.079  19.341  0.00  0.00    +0.000 A 
ATOM      2  C   UNL     1       2.641   7.060  19.920  0.00  0.00    +0.000 A 
ATOM      3  N   UNL     1       2.169   7.868  18.915  0.00  0.00    +0.000 N 
ATOM      4  N   UNL     1       2.681   7.498  17.717  0.00  0.00    +0.000 NA
ATOM      5  C   UNL     1       3.506   6.465  17.966  0.00  0.00    +0.000 A 
ENDROOT
BRANCH   3   6
ATOM      6  C   UNL     1       1.224   8.927  19.039  0.00  0.00    +0.000 A 
ATOM      7  C   UNL     1       0.870   9.428  20.302  0.00  0.00    +0.000 A 
ATOM      8  C   UNL     1      -0.081  10.448  20.417  0.00  0.00    +0.000 A 
ATOM      9  C   UNL     1      -0.683  10.967  19.273  0.00  0.00    +0.000 A 
ATOM     10 CL   UNL     1      -1.859  12.213  19.423  0.00  0.00    +0.000 Cl
ATOM     11  C   UNL     1      -0.339  10.480  18.014  0.00  0.00    +0.000 A 
ATOM     12  C   UNL     1       0.619   9.465  17.893  0.00  0.00    +0.000 A 
ENDBRANCH   3   6
BRANCH   5  13
ATOM     13  C   UNL     1       4.308   5.878  16.882  0.00  0.00    +0.000 A 
ATOM     14  C   UNL     1       4.995   6.694  15.971  0.00  0.00    +0.000 A 
ATOM     15  C   UNL     1       5.756   6.143  14.935  0.00  0.00    +0.000 A 
ATOM     16  C   UNL     1       5.799   4.764  14.771  0.00  0.00    +0.000 A 
ATOM     17 CL   UNL     1       6.694   4.090  13.465  0.00  0.00    +0.000 Cl
ATOM     18  C   UNL     1       5.100   3.932  15.642  0.00  0.00    +0.000 A 
ATOM     19  C   UNL     1       4.362   4.487  16.696  0.00  0.00    +0.000 A 
ENDBRANCH   5  13
BRANCH   1  20
ATOM     20  C   UNL     1       3.969   4.888  20.072  0.00  0.00    +0.000 C 
BRANCH  20  26
ATOM     21  O   UNL     1       0.787   2.122  22.714  0.00  0.00    +0.000 OA
ATOM     22  C   UNL     1       1.516   2.560  21.833  0.00  0.00    +0.000 C 
ATOM     23  N   UNL     1       1.072   3.455  20.911  0.00  0.00    +0.000 N 
ATOM     24  C   UNL     1       1.739   3.800  19.772  0.00  0.00    +0.000 C 
ATOM     25  O   UNL     1       1.152   4.300  18.816  0.00  0.00    +0.000 OA
ATOM     26  C   UNL     1       3.228   3.576  19.773  0.00  0.00    +0.000 C 
ATOM     27  C   UNL     1       3.676   2.496  20.714  0.00  0.00    +0.000 C 
ATOM     28  O   UNL     1       4.799   1.999  20.659  0.00  0.00    +0.000 OA
ATOM     29  N   UNL     1       2.797   2.123  21.692  0.00  0.00    +0.000 N 
ATOM     30  H   UNL     1       0.083   3.665  20.943  0.00  0.00    +0.000 HD
ATOM     31  H   UNL     1       3.108   1.420  22.347  0.00  0.00    +0.000 HD
ENDBRANCH  20  26
ENDBRANCH   1  20
TORSDOF 4
ENDMDL
