MODEL 1
REMARK VINA RESULT:      -7.0      0.000      0.000
REMARK  Name = 
REMARK  9 active torsions:
REMARK  status: ('A' for Active; 'I' for Inactive)
REMARK    1  A    between atoms: C_1  and  N_2
REMARK    2  A    between atoms: N_2  and  C_3
REMARK    3  A    between atoms: N_2  and  C_4
REMARK    4  A    between atoms: C_4  and  C_5
REMARK    5  A    between atoms: C_5  and  C_6
REMARK    6  A    between atoms: C_6  and  O_7
REMARK    7  A    between atoms: O_7  and  C_8
REMARK    8  A    between atoms: C_13  and  C_14
REMARK    9  A    between atoms: C_15  and  C_16
REMARK                            x       y       z     vdW  Elec       q    Type
REMARK                         _______ _______ _______ _____ _____    ______ ____
ROOT
ATOM      1  C   UNL     1       3.600   4.578  17.250  0.00  0.00    +0.000 A 
ATOM      2  C   UNL     1       4.634   3.956  16.535  0.00  0.00    +0.000 A 
ATOM      3  C   UNL     1       5.744   4.675  16.104  0.00  0.00    +0.000 A 
ATOM      4  C   UNL     1       5.846   6.031  16.384  0.00  0.00    +0.000 A 
ATOM      5  C   UNL     1       4.824   6.670  17.088  0.00  0.00    +0.000 A 
ATOM      6  C   UNL     1       3.689   5.964  17.533  0.00  0.00    +0.000 A 
ENDROOT
BRANCH   6   7
ATOM      7  C   UNL     1       2.608   6.778  18.135  0.00  0.00    +0.000 C 
ATOM      8  C   UNL     1       2.425   8.094  17.949  0.00  0.00    +0.000 C 
BRANCH   8   9
ATOM      9  C   UNL     1       1.499   8.928  18.741  0.00  0.00    +0.000 A 
ATOM     10  C   UNL     1       1.409   8.664  20.116  0.00  0.00    +0.000 A 
ATOM     11  C   UNL     1       0.475   9.325  20.918  0.00  0.00    +0.000 A 
ATOM     12  C   UNL     1      -0.371  10.277  20.357  0.00  0.00    +0.000 A 
ATOM     13  C   UNL     1      -0.266  10.584  19.003  0.00  0.00    +0.000 A 
ATOM     14  C   UNL     1       0.670   9.922  18.199  0.00  0.00    +0.000 A 
ENDBRANCH   8   9
ENDBRANCH   6   7
BRANCH   1  15
ATOM     15  O   UNL     1       2.468   3.902  17.656  0.00  0.00    +0.000 OA
BRANCH  15  16
ATOM     16  C   UNL     1       2.595   2.480  17.789  0.00  0.00    +0.000 C 
BRANCH  16  17
ATOM     17  C   UNL     1       1.797   2.007  19.000  0.00  0.00    +0.000 C 
BRANCH  17  18
ATOM     18  C   UNL     1       0.922   3.125  19.589  0.00  0.00    +0.000 C 
BRANCH  18  20
ATOM     19  C   UNL     1       2.167   2.567  21.610  0.00  0.00    +0.000 C 
ATOM     20  N   UNL     1       1.265   3.526  20.968  0.00  0.00    +0.000 NA
ATOM     21  C   UNL     1       1.879   4.857  20.969  0.00  0.00    +0.000 C 
ENDBRANCH  18  20
ENDBRANCH  17  18
ENDBRANCH  16  17
ENDBRANCH  15  16
ENDBRANCH   1  15
TORSDOF 7
ENDMDL
MODEL 2
REMARK VINA RESULT:      -6.8      0.808      1.319
REMARK  Name = 
REMARK  9 active torsions:
REMARK  status: ('A' for Active; 'I' for Inactive)
REMARK    1  A    between atoms: C_1  and  N_2
REMARK    2  A    between atoms: N_2  and  C_3
REMARK    3  A    between atoms: N_2  and  C_4
REMARK    4  A    between atoms: C_4  and  C_5
REMARK    5  A    between atoms: C_5  and  C_6
REMARK    6  A    between atoms: C_6  and  O_7
REMARK    7  A    between atoms: O_7  and  C_8
REMARK    8  A    between atoms: C_13  and  C_14
REMARK    9  A    between atoms: C_15  and  C_16
REMARK                            x       y       z     vdW  Elec       q    Type
REMARK                         _______ _______ _______ _____ _____    ______ ____
ROOT
ATOM      1  C   UNL     1       4.505   4.292  17.409  0.00  0.00    +0.000 A 
ATOM      2  C   UNL     1       5.444   3.636  16.601  0.00  0.00    +0.000 A 
ATOM      3  C   UNL     1       6.116   4.309  15.587  0.00  0.00    +0.000 A 
ATOM      4  C   UNL     1       5.866   5.657  15.362  0.00  0.00    +0.000 A 
ATOM      5  C   UNL     1       4.929   6.326  16.151  0.00  0.00    +0.000 A 
ATOM      6  C   UNL     1       4.234   5.665  17.182  0.00  0.00    +0.000 A 
ENDROOT
BRANCH   6   7
ATOM      7  C   UNL     1       3.161   6.440  17.848  0.00  0.00    +0.000 C 
ATOM      8  C   UNL     1       2.919   7.748  17.674  0.00  0.00    +0.000 C 
BRANCH   8   9
ATOM      9  C   UNL     1       2.012   8.548  18.520  0.00  0.00    +0.000 A 
ATOM     10  C   UNL     1       1.463   9.711  17.957  0.00  0.00    +0.000 A 
ATOM     11  C   UNL     1       0.690  10.587  18.722  0.00  0.00    +0.000 A 
ATOM     12  C   UNL     1       0.437  10.303  20.061  0.00  0.00    +0.000 A 
ATOM     13  C   UNL     1       0.937   9.131  20.625  0.00  0.00    +0.000 A 
ATOM     14  C   UNL     1       1.711   8.253  19.857  0.00  0.00    +0.000 A 
ENDBRANCH   8   9
ENDBRANCH   6   7
BRANCH   1  15
ATOM     15  O   UNL     1       3.792   3.642  18.396  0.00  0.00    +0.000 OA
BRANCH  15  16
ATOM     16  C   UNL     1       3.234   2.371  18.038  0.00  0.00    +0.000 C 
BRANCH  16  17
ATOM     17  C   UNL     1       1.833   2.245  18.627  0.00  0.00    +0.000 C 
BRANCH  17  18
ATOM     18  C   UNL     1       1.266   3.603  19.072  0.00  0.00    +0.000 C 
BRANCH  18  20
ATOM     19  C   UNL     1       1.528   2.573  21.266  0.00  0.00    +0.000 C 
ATOM     20  N   UNL     1       1.131   3.776  20.532  0.00  0.00    +0.000 NA
ATOM     21  C   UNL     1       1.936   4.917  20.982  0.00  0.00    +0.000 C 
ENDBRANCH  18  20
ENDBRANCH  17  18
ENDBRANCH  16  17
ENDBRANCH  15  16
ENDBRANCH   1  15
TORSDOF 7
ENDMDL
MODEL 3
REMARK VINA RESULT:      -6.8      0.840      1.160
REMARK  Name = 
REMARK  9 active torsions:
REMARK  status: ('A' for Active; 'I' for Inactive)
REMARK    1  A    between atoms: C_1  and  N_2
REMARK    2  A    between atoms: N_2  and  C_3
REMARK    3  A    between atoms: N_2  and  C_4
REMARK    4  A    between atoms: C_4  and  C_5
REMARK    5  A    between atoms: C_5  and  C_6
REMARK    6  A    between atoms: C_6  and  O_7
REMARK    7  A    between atoms: O_7  and  C_8
REMARK    8  A    between atoms: C_13  and  C_14
REMARK    9  A    between atoms: C_15  and  C_16
REMARK                            x       y       z     vdW  Elec       q    Type
REMARK                         _______ _______ _______ _____ _____    ______ ____
ROOT
ATOM      1  C   UNL     1       4.536   4.484  16.825  0.00  0.00    +0.000 A 
ATOM      2  C   UNL     1       5.682   3.977  16.196  0.00  0.00    +0.000 A 
ATOM      3  C   UNL     1       6.874   4.692  16.190  0.00  0.00    +0.000 A 
ATOM      4  C   UNL     1       6.947   5.929  16.816  0.00  0.00    +0.000 A 
ATOM      5  C   UNL     1       5.815   6.455  17.441  0.00  0.00    +0.000 A 
ATOM      6  C   UNL     1       4.595   5.751  17.459  0.00  0.00    +0.000 A 
ENDROOT
BRANCH   6   7
ATOM      7  C   UNL     1       3.431   6.475  18.019  0.00  0.00    +0.000 C 
ATOM      8  C   UNL     1       3.079   7.735  17.724  0.00  0.00    +0.000 C 
BRANCH   8   9
ATOM      9  C   UNL     1       2.070   8.516  18.467  0.00  0.00    +0.000 A 
ATOM     10  C   UNL     1       1.891   8.212  19.825  0.00  0.00    +0.000 A 
ATOM     11  C   UNL     1       0.879   8.819  20.573  0.00  0.00    +0.000 A 
ATOM     12  C   UNL     1       0.041   9.756  19.976  0.00  0.00    +0.000 A 
ATOM     13  C   UNL     1       0.232  10.103  18.640  0.00  0.00    +0.000 A 
ATOM     14  C   UNL     1       1.247   9.495  17.891  0.00  0.00    +0.000 A 
ENDBRANCH   8   9
ENDBRANCH   6   7
BRANCH   1  15
ATOM     15  O   UNL     1       3.327   3.818  16.814  0.00  0.00    +0.000 OA
BRANCH  15  16
ATOM     16  C   UNL     1       3.073   2.954  17.929  0.00  0.00    +0.000 C 
BRANCH  16  17
ATOM     17  C   UNL     1       1.571   2.868  18.176  0.00  0.00    +0.000 C 
BRANCH  17  18
ATOM     18  C   UNL     1       1.221   2.971  19.669  0.00  0.00    +0.000 C 
BRANCH  18  20
ATOM     19  C   UNL     1       2.088   4.814  21.009  0.00  0.00    +0.000 C 
ATOM     20  N   UNL     1       2.317   3.448  20.536  0.00  0.00    +0.000 NA
ATOM     21  C   UNL     1       2.481   2.550  21.684  0.00  0.00    +0.000 C 
ENDBRANCH  18  20
ENDBRANCH  17  18
ENDBRANCH  16  17
ENDBRANCH  15  16
ENDBRANCH   1  15
TORSDOF 7
ENDMDL
MODEL 4
REMARK VINA RESULT:      -6.8      4.193      7.325
REMARK  Name = 
REMARK  9 active torsions:
REMARK  status: ('A' for Active; 'I' for Inactive)
REMARK    1  A    between atoms: C_1  and  N_2
REMARK    2  A    between atoms: N_2  and  C_3
REMARK    3  A    between atoms: N_2  and  C_4
REMARK    4  A    between atoms: C_4  and  C_5
REMARK    5  A    between atoms: C_5  and  C_6
REMARK    6  A    between atoms: C_6  and  O_7
REMARK    7  A    between atoms: O_7  and  C_8
REMARK    8  A    between atoms: C_13  and  C_14
REMARK    9  A    between atoms: C_15  and  C_16
REMARK                            x       y       z     vdW  Elec       q    Type
REMARK                         _______ _______ _______ _____ _____    ______ ____
ROOT
ATOM      1  C   UNL     1       4.258   3.618  19.003  0.00  0.00    +0.000 A 
ATOM      2  C   UNL     1       3.232   3.612  19.958  0.00  0.00    +0.000 A 
ATOM      3  C   UNL     1       1.923   3.302  19.605  0.00  0.00    +0.000 A 
ATOM      4  C   UNL     1       1.614   2.987  18.288  0.00  0.00    +0.000 A 
ATOM      5  C   UNL     1       2.621   2.995  17.321  0.00  0.00    +0.000 A 
ATOM      6  C   UNL     1       3.953   3.307  17.654  0.00  0.00    +0.000 A 
ENDROOT
BRANCH   6   7
ATOM      7  C   UNL     1       4.899   3.429  16.521  0.00  0.00    +0.000 C 
ATOM      8  C   UNL     1       4.875   4.388  15.583  0.00  0.00    +0.000 C 
BRANCH   8   9
ATOM      9  C   UNL     1       5.665   4.357  14.336  0.00  0.00    +0.000 A 
ATOM     10  C   UNL     1       5.178   3.566  13.284  0.00  0.00    +0.000 A 
ATOM     11  C   UNL     1       5.919   3.387  12.114  0.00  0.00    +0.000 A 
ATOM     12  C   UNL     1       7.154   4.012  11.971  0.00  0.00    +0.000 A 
ATOM     13  C   UNL     1       7.634   4.836  12.987  0.00  0.00    +0.000 A 
ATOM     14  C   UNL     1       6.890   5.016  14.160  0.00  0.00    +0.000 A 
ENDBRANCH   8   9
ENDBRANCH   6   7
BRANCH   1  15
ATOM     15  O   UNL     1       5.559   3.960  19.314  0.00  0.00    +0.000 OA
BRANCH  15  16
ATOM     16  C   UNL     1       5.825   5.361  19.457  0.00  0.00    +0.000 C 
BRANCH  16  17
ATOM     17  C   UNL     1       7.295   5.635  19.153  0.00  0.00    +0.000 C 
BRANCH  17  18
ATOM     18  C   UNL     1       7.561   5.766  17.645  0.00  0.00    +0.000 C 
BRANCH  18  20
ATOM     19  C   UNL     1       5.970   7.467  16.926  0.00  0.00    +0.000 C 
ATOM     20  N   UNL     1       7.383   7.124  17.094  0.00  0.00    +0.000 NA
ATOM     21  C   UNL     1       8.030   8.111  17.965  0.00  0.00    +0.000 C 
ENDBRANCH  18  20
ENDBRANCH  17  18
ENDBRANCH  16  17
ENDBRANCH  15  16
ENDBRANCH   1  15
TORSDOF 7
ENDMDL
MODEL 5
REMARK VINA RESULT:      -6.8      2.213      4.387
REMARK  Name = 
REMARK  9 active torsions:
REMARK  status: ('A' for Active; 'I' for Inactive)
REMARK    1  A    between atoms: C_1  and  N_2
REMARK    2  A    between atoms: N_2  and  C_3
REMARK    3  A    between atoms: N_2  and  C_4
REMARK    4  A    between atoms: C_4  and  C_5
REMARK    5  A    between atoms: C_5  and  C_6
REMARK    6  A    between atoms: C_6  and  O_7
REMARK    7  A    between atoms: O_7  and  C_8
REMARK    8  A    between atoms: C_13  and  C_14
REMARK    9  A    between atoms: C_15  and  C_16
REMARK                            x       y       z     vdW  Elec       q    Type
REMARK                         _______ _______ _______ _____ _____    ______ ____
ROOT
ATOM      1  C   UNL     1       3.636   3.734  17.906  0.00  0.00    +0.000 A 
ATOM      2  C   UNL     1       3.749   2.352  18.112  0.00  0.00    +0.000 A 
ATOM      3  C   UNL     1       2.647   1.587  18.481  0.00  0.00    +0.000 A 
ATOM      4  C   UNL     1       1.407   2.189  18.647  0.00  0.00    +0.000 A 
ATOM      5  C   UNL     1       1.275   3.565  18.453  0.00  0.00    +0.000 A 
ATOM      6  C   UNL     1       2.377   4.361  18.082  0.00  0.00    +0.000 A 
ENDROOT
BRANCH   6   7
ATOM      7  C   UNL     1       2.146   5.823  18.054  0.00  0.00    +0.000 C 
ATOM      8  C   UNL     1       2.477   6.686  19.026  0.00  0.00    +0.000 C 
BRANCH   8   9
ATOM      9  C   UNL     1       2.025   8.090  19.087  0.00  0.00    +0.000 A 
ATOM     10  C   UNL     1       1.334   8.496  20.239  0.00  0.00    +0.000 A 
ATOM     11  C   UNL     1       0.770   9.770  20.330  0.00  0.00    +0.000 A 
ATOM     12  C   UNL     1       0.906  10.667  19.275  0.00  0.00    +0.000 A 
ATOM     13  C   UNL     1       1.626  10.297  18.141  0.00  0.00    +0.000 A 
ATOM     14  C   UNL     1       2.192   9.020  18.051  0.00  0.00    +0.000 A 
ENDBRANCH   8   9
ENDBRANCH   6   7
BRANCH   1  15
ATOM     15  O   UNL     1       4.717   4.526  17.580  0.00  0.00    +0.000 OA
BRANCH  15  16
ATOM     16  C   UNL     1       5.233   4.374  16.251  0.00  0.00    +0.000 C 
BRANCH  16  17
ATOM     17  C   UNL     1       5.845   5.691  15.787  0.00  0.00    +0.000 C 
BRANCH  17  18
ATOM     18  C   UNL     1       6.032   6.684  16.946  0.00  0.00    +0.000 C 
BRANCH  18  20
ATOM     19  C   UNL     1       7.752   8.294  17.573  0.00  0.00    +0.000 C 
ATOM     20  N   UNL     1       7.428   6.878  17.383  0.00  0.00    +0.000 NA
ATOM     21  C   UNL     1       7.674   6.145  18.630  0.00  0.00    +0.000 C 
ENDBRANCH  18  20
ENDBRANCH  17  18
ENDBRANCH  16  17
ENDBRANCH  15  16
ENDBRANCH   1  15
TORSDOF 7
ENDMDL
MODEL 6
REMARK VINA RESULT:      -6.6      1.277      1.671
REMARK  Name = 
REMARK  9 active torsions:
REMARK  status: ('A' for Active; 'I' for Inactive)
REMARK    1  A    between atoms: C_1  and  N_2
REMARK    2  A    between atoms: N_2  and  C_3
REMARK    3  A    between atoms: N_2  and  C_4
REMARK    4  A    between atoms: C_4  and  C_5
REMARK    5  A    between atoms: C_5  and  C_6
REMARK    6  A    between atoms: C_6  and  O_7
REMARK    7  A    between atoms: O_7  and  C_8
REMARK    8  A    between atoms: C_13  and  C_14
REMARK    9  A    between atoms: C_15  and  C_16
REMARK                            x       y       z     vdW  Elec       q    Type
REMARK                         _______ _______ _______ _____ _____    ______ ____
ROOT
ATOM      1  C   UNL     1       5.138   4.511  17.217  0.00  0.00    +0.000 A 
ATOM      2  C   UNL     1       5.669   3.615  16.278  0.00  0.00    +0.000 A 
ATOM      3  C   UNL     1       5.978   4.027  14.986  0.00  0.00    +0.000 A 
ATOM      4  C   UNL     1       5.767   5.346  14.608  0.00  0.00    +0.000 A 
ATOM      5  C   UNL     1       5.233   6.251  15.526  0.00  0.00    +0.000 A 
ATOM      6  C   UNL     1       4.909   5.858  16.839  0.00  0.00    +0.000 A 
ENDROOT
BRANCH   6   7
ATOM      7  C   UNL     1       4.212   6.866  17.671  0.00  0.00    +0.000 C 
ATOM      8  C   UNL     1       2.905   6.860  17.973  0.00  0.00    +0.000 C 
BRANCH   8   9
ATOM      9  C   UNL     1       2.187   7.991  18.593  0.00  0.00    +0.000 A 
ATOM     10  C   UNL     1       1.886   7.893  19.960  0.00  0.00    +0.000 A 
ATOM     11  C   UNL     1       1.109   8.862  20.599  0.00  0.00    +0.000 A 
ATOM     12  C   UNL     1       0.637   9.957  19.883  0.00  0.00    +0.000 A 
ATOM     13  C   UNL     1       0.962  10.094  18.535  0.00  0.00    +0.000 A 
ATOM     14  C   UNL     1       1.742   9.123  17.895  0.00  0.00    +0.000 A 
ENDBRANCH   8   9
ENDBRANCH   6   7
BRANCH   1  15
ATOM     15  O   UNL     1       4.783   4.123  18.493  0.00  0.00    +0.000 OA
BRANCH  15  16
ATOM     16  C   UNL     1       4.228   2.808  18.622  0.00  0.00    +0.000 C 
BRANCH  16  17
ATOM     17  C   UNL     1       4.074   2.461  20.099  0.00  0.00    +0.000 C 
BRANCH  17  18
ATOM     18  C   UNL     1       2.614   2.565  20.570  0.00  0.00    +0.000 C 
BRANCH  18  20
ATOM     19  C   UNL     1       0.729   2.450  19.028  0.00  0.00    +0.000 C 
ATOM     20  N   UNL     1       1.719   3.318  19.669  0.00  0.00    +0.000 NA
ATOM     21  C   UNL     1       1.034   4.382  20.411  0.00  0.00    +0.000 C 
ENDBRANCH  18  20
ENDBRANCH  17  18
ENDBRANCH  16  17
ENDBRANCH  15  16
ENDBRANCH   1  15
TORSDOF 7
ENDMDL
MODEL 7
REMARK VINA RESULT:      -6.6      4.355      6.742
REMARK  Name = 
REMARK  9 active torsions:
REMARK  status: ('A' for Active; 'I' for Inactive)
REMARK    1  A    between atoms: C_1  and  N_2
REMARK    2  A    between atoms: N_2  and  C_3
REMARK    3  A    between atoms: N_2  and  C_4
REMARK    4  A    between atoms: C_4  and  C_5
REMARK    5  A    between atoms: C_5  and  C_6
REMARK    6  A    between atoms: C_6  and  O_7
REMARK    7  A    between atoms: O_7  and  C_8
REMARK    8  A    between atoms: C_13  and  C_14
REMARK    9  A    between atoms: C_15  and  C_16
REMARK                            x       y       z     vdW  Elec       q    Type
REMARK                         _______ _______ _______ _____ _____    ______ ____
ROOT
ATOM      1  C   UNL     1       6.831   5.335  16.124  0.00  0.00    +0.000 A 
ATOM      2  C   UNL     1       7.497   5.373  14.891  0.00  0.00    +0.000 A 
ATOM      3  C   UNL     1       7.026   4.656  13.797  0.00  0.00    +0.000 A 
ATOM      4  C   UNL     1       5.875   3.887  13.912  0.00  0.00    +0.000 A 
ATOM      5  C   UNL     1       5.202   3.830  15.134  0.00  0.00    +0.000 A 
ATOM      6  C   UNL     1       5.661   4.546  16.257  0.00  0.00    +0.000 A 
ENDROOT
BRANCH   6   7
ATOM      7  C   UNL     1       4.951   4.287  17.531  0.00  0.00    +0.000 C 
ATOM      8  C   UNL     1       3.814   3.588  17.664  0.00  0.00    +0.000 C 
BRANCH   8   9
ATOM      9  C   UNL     1       2.998   3.547  18.894  0.00  0.00    +0.000 A 
ATOM     10  C   UNL     1       3.547   2.897  20.010  0.00  0.00    +0.000 A 
ATOM     11  C   UNL     1       2.799   2.710  21.175  0.00  0.00    +0.000 A 
ATOM     12  C   UNL     1       1.495   3.189  21.248  0.00  0.00    +0.000 A 
ATOM     13  C   UNL     1       0.949   3.876  20.166  0.00  0.00    +0.000 A 
ATOM     14  C   UNL     1       1.699   4.064  18.998  0.00  0.00    +0.000 A 
ENDBRANCH   8   9
ENDBRANCH   6   7
BRANCH   1  15
ATOM     15  O   UNL     1       7.296   6.003  17.239  0.00  0.00    +0.000 OA
BRANCH  15  16
ATOM     16  C   UNL     1       7.052   7.415  17.275  0.00  0.00    +0.000 C 
BRANCH  16  17
ATOM     17  C   UNL     1       8.159   8.103  18.068  0.00  0.00    +0.000 C 
BRANCH  17  18
ATOM     18  C   UNL     1       8.071   9.635  17.976  0.00  0.00    +0.000 C 
BRANCH  18  20
ATOM     19  C   UNL     1       9.338  11.714  17.864  0.00  0.00    +0.000 C 
ATOM     20  N   UNL     1       9.282  10.358  18.413  0.00  0.00    +0.000 NA
ATOM     21  C   UNL     1       9.336  10.416  19.877  0.00  0.00    +0.000 C 
ENDBRANCH  18  20
ENDBRANCH  17  18
ENDBRANCH  16  17
ENDBRANCH  15  16
ENDBRANCH   1  15
TORSDOF 7
ENDMDL
MODEL 8
REMARK VINA RESULT:      -6.5      1.224      1.935
REMARK  Name = 
REMARK  9 active torsions:
REMARK  status: ('A' for Active; 'I' for Inactive)
REMARK    1  A    between atoms: C_1  and  N_2
REMARK    2  A    between atoms: N_2  and  C_3
REMARK    3  A    between atoms: N_2  and  C_4
REMARK    4  A    between atoms: C_4  and  C_5
REMARK    5  A    between atoms: C_5  and  C_6
REMARK    6  A    between atoms: C_6  and  O_7
REMARK    7  A    between atoms: O_7  and  C_8
REMARK    8  A    between atoms: C_13  and  C_14
REMARK    9  A    between atoms: C_15  and  C_16
REMARK                            x       y       z     vdW  Elec       q    Type
REMARK                         _______ _______ _______ _____ _____    ______ ____
ROOT
ATOM      1  C   UNL     1       4.787   4.140  17.077  0.00  0.00    +0.000 A 
ATOM      2  C   UNL     1       5.747   3.611  16.203  0.00  0.00    +0.000 A 
ATOM      3  C   UNL     1       6.349   4.403  15.230  0.00  0.00    +0.000 A 
ATOM      4  C   UNL     1       6.005   5.744  15.116  0.00  0.00    +0.000 A 
ATOM      5  C   UNL     1       5.047   6.287  15.972  0.00  0.00    +0.000 A 
ATOM      6  C   UNL     1       4.422   5.505  16.963  0.00  0.00    +0.000 A 
ENDROOT
BRANCH   6   7
ATOM      7  C   UNL     1       3.318   6.153  17.708  0.00  0.00    +0.000 C 
ATOM      8  C   UNL     1       3.121   7.475  17.819  0.00  0.00    +0.000 C 
BRANCH   8   9
ATOM      9  C   UNL     1       2.168   8.101  18.756  0.00  0.00    +0.000 A 
ATOM     10  C   UNL     1       1.458   9.224  18.302  0.00  0.00    +0.000 A 
ATOM     11  C   UNL     1       0.625   9.946  19.159  0.00  0.00    +0.000 A 
ATOM     12  C   UNL     1       0.474   9.544  20.482  0.00  0.00    +0.000 A 
ATOM     13  C   UNL     1       1.136   8.407  20.940  0.00  0.00    +0.000 A 
ATOM     14  C   UNL     1       1.970   7.682  20.080  0.00  0.00    +0.000 A 
ENDBRANCH   8   9
ENDBRANCH   6   7
BRANCH   1  15
ATOM     15  O   UNL     1       4.143   3.371  18.025  0.00  0.00    +0.000 OA
BRANCH  15  16
ATOM     16  C   UNL     1       4.763   3.310  19.316  0.00  0.00    +0.000 C 
BRANCH  16  17
ATOM     17  C   UNL     1       3.764   2.779  20.338  0.00  0.00    +0.000 C 
BRANCH  17  18
ATOM     18  C   UNL     1       2.576   2.066  19.671  0.00  0.00    +0.000 C 
BRANCH  18  20
ATOM     19  C   UNL     1       1.356   3.962  20.599  0.00  0.00    +0.000 C 
ATOM     20  N   UNL     1       1.251   2.641  19.975  0.00  0.00    +0.000 NA
ATOM     21  C   UNL     1       0.448   2.736  18.752  0.00  0.00    +0.000 C 
ENDBRANCH  18  20
ENDBRANCH  17  18
ENDBRANCH  16  17
ENDBRANCH  15  16
ENDBRANCH   1  15
TORSDOF 7
ENDMDL
MODEL 9
REMARK VINA RESULT:      -6.5      1.289      1.969
REMARK  Name = 
REMARK  9 active torsions:
REMARK  status: ('A' for Active; 'I' for Inactive)
REMARK    1  A    between atoms: C_1  and  N_2
REMARK    2  A    between atoms: N_2  and  C_3
REMARK    3  A    between atoms: N_2  and  C_4
REMARK    4  A    between atoms: C_4  and  C_5
REMARK    5  A    between atoms: C_5  and  C_6
REMARK    6  A    between atoms: C_6  and  O_7
REMARK    7  A    between atoms: O_7  and  C_8
REMARK    8  A    between atoms: C_13  and  C_14
REMARK    9  A    between atoms: C_15  and  C_16
REMARK                            x       y       z     vdW  Elec       q    Type
REMARK                         _______ _______ _______ _____ _____    ______ ____
ROOT
ATOM      1  C   UNL     1       5.143   4.474  17.324  0.00  0.00    +0.000 A 
ATOM      2  C   UNL     1       5.700   3.598  16.381  0.00  0.00    +0.000 A 
ATOM      3  C   UNL     1       6.002   4.025  15.092  0.00  0.00    +0.000 A 
ATOM      4  C   UNL     1       5.758   5.340  14.721  0.00  0.00    +0.000 A 
ATOM      5  C   UNL     1       5.197   6.226  15.642  0.00  0.00    +0.000 A 
ATOM      6  C   UNL     1       4.880   5.816  16.952  0.00  0.00    +0.000 A 
ENDROOT
BRANCH   6   7
ATOM      7  C   UNL     1       4.155   6.801  17.787  0.00  0.00    +0.000 C 
ATOM      8  C   UNL     1       2.848   6.758  18.089  0.00  0.00    +0.000 C 
BRANCH   8   9
ATOM      9  C   UNL     1       2.099   7.866  18.712  0.00  0.00    +0.000 A 
ATOM     10  C   UNL     1       1.791   8.972  17.905  0.00  0.00    +0.000 A 
ATOM     11  C   UNL     1       1.188  10.112  18.442  0.00  0.00    +0.000 A 
ATOM     12  C   UNL     1       0.866  10.156  19.795  0.00  0.00    +0.000 A 
ATOM     13  C   UNL     1       1.124   9.050  20.603  0.00  0.00    +0.000 A 
ATOM     14  C   UNL     1       1.727   7.907  20.064  0.00  0.00    +0.000 A 
ENDBRANCH   8   9
ENDBRANCH   6   7
BRANCH   1  15
ATOM     15  O   UNL     1       4.795   4.071  18.597  0.00  0.00    +0.000 OA
BRANCH  15  16
ATOM     16  C   UNL     1       4.252   2.749  18.713  0.00  0.00    +0.000 C 
BRANCH  16  17
ATOM     17  C   UNL     1       4.045   2.411  20.186  0.00  0.00    +0.000 C 
BRANCH  17  18
ATOM     18  C   UNL     1       2.568   2.505  20.600  0.00  0.00    +0.000 C 
BRANCH  18  20
ATOM     19  C   UNL     1       0.754   2.423  18.974  0.00  0.00    +0.000 C 
ATOM     20  N   UNL     1       1.709   3.278  19.682  0.00  0.00    +0.000 NA
ATOM     21  C   UNL     1       0.985   4.318  20.421  0.00  0.00    +0.000 C 
ENDBRANCH  18  20
ENDBRANCH  17  18
ENDBRANCH  16  17
ENDBRANCH  15  16
ENDBRANCH   1  15
TORSDOF 7
ENDMDL
