MODEL 1
REMARK VINA RESULT:      -8.0      0.000      0.000
REMARK  Name = 
REMARK  5 active torsions:
REMARK  status: ('A' for Active; 'I' for Inactive)
REMARK    1  A    between atoms: N_3  and  C_4
REMARK    2  A    between atoms: N_11  and  C_12
REMARK    3  A    between atoms: C_14  and  S_15
REMARK    4  A    between atoms: S_15  and  N_18
REMARK    5  A    between atoms: C_26  and  N_27
REMARK                            x       y       z     vdW  Elec       q    Type
REMARK                         _______ _______ _______ _____ _____    ______ ____
ROOT
ATOM      1  C   UNL     1       1.032  10.309  19.602  0.00  0.00    +0.000 A 
ATOM      2  C   UNL     1       1.646   9.305  18.833  0.00  0.00    +0.000 A 
ATOM      3  C   UNL     1       1.908   8.063  19.404  0.00  0.00    +0.000 A 
ATOM      4  C   UNL     1       1.612   7.838  20.745  0.00  0.00    +0.000 A 
ATOM      5  C   UNL     1       0.946   8.824  21.484  0.00  0.00    +0.000 A 
ATOM      6  C   UNL     1       0.582  10.062  20.923  0.00  0.00    +0.000 A 
ENDROOT
BRANCH   1  10
ATOM      7  O   UNL     1      -0.464  13.142  18.007  0.00  0.00    +0.000 OA
ATOM      8  C   UNL     1      -0.454  12.034  18.546  0.00  0.00    +0.000 C 
ATOM      9  N   UNL     1      -1.524  11.183  18.651  0.00  0.00    +0.000 N 
ATOM     10  N   UNL     1       0.751  11.552  19.001  0.00  0.00    +0.000 N 
ATOM     11  H   UNL     1      -1.315  10.252  18.980  0.00  0.00    +0.000 HD
ATOM     12  H   UNL     1       1.542  12.015  18.570  0.00  0.00    +0.000 HD
BRANCH   9  13
ATOM     13  C   UNL     1      -2.851  11.376  18.220  0.00  0.00    +0.000 A 
ATOM     14  C   UNL     1      -3.316  11.040  16.945  0.00  0.00    +0.000 A 
ATOM     15  C   UNL     1      -4.654  11.251  16.604  0.00  0.00    +0.000 A 
ATOM     16  C   UNL     1      -5.525  11.805  17.533  0.00  0.00    +0.000 A 
ATOM     17  F   UNL     1      -6.806  12.006  17.201  0.00  0.00    +0.000 F 
ATOM     18  C   UNL     1      -5.083  12.152  18.802  0.00  0.00    +0.000 A 
ATOM     19  C   UNL     1      -3.747  11.938  19.143  0.00  0.00    +0.000 A 
ENDBRANCH   9  13
ENDBRANCH   1  10
BRANCH   6  20
ATOM     20  N   UNL     1      -0.222  10.960  21.614  0.00  0.00    +0.000 N 
ATOM     21  C   UNL     1      -0.948  10.535  22.811  0.00  0.00    +0.000 C 
ATOM     22  C   UNL     1      -1.862  11.726  23.046  0.00  0.00    +0.000 C 
ATOM     23  C   UNL     1      -0.983  12.925  22.698  0.00  0.00    +0.000 C 
ATOM     24  C   UNL     1       0.145  12.370  21.806  0.00  0.00    +0.000 C 
ENDBRANCH   6  20
BRANCH   3  25
ATOM     25  S   UNL     1       2.664   6.782  18.431  0.00  0.00    +0.000 S 
ATOM     26  O   UNL     1       1.582   5.998  17.875  0.00  0.00    +0.000 OA
ATOM     27  O   UNL     1       3.651   7.399  17.573  0.00  0.00    +0.000 OA
BRANCH  25  28
ATOM     28  N   UNL     1       3.494   5.813  19.561  0.00  0.00    +0.000 NA
ATOM     29  C   UNL     1       4.925   5.475  19.283  0.00  0.00    +0.000 C 
ATOM     30  C   UNL     1       5.070   4.297  18.312  0.00  0.00    +0.000 C 
ATOM     31  O   UNL     1       4.363   3.140  18.778  0.00  0.00    +0.000 OA
ATOM     32  C   UNL     1       2.969   3.426  18.961  0.00  0.00    +0.000 C 
ATOM     33  C   UNL     1       2.762   4.563  19.970  0.00  0.00    +0.000 C 
ENDBRANCH  25  28
ENDBRANCH   3  25
TORSDOF 5
ENDMDL
MODEL 2
REMARK VINA RESULT:      -7.7      2.041      2.957
REMARK  Name = 
REMARK  5 active torsions:
REMARK  status: ('A' for Active; 'I' for Inactive)
REMARK    1  A    between atoms: N_3  and  C_4
REMARK    2  A    between atoms: N_11  and  C_12
REMARK    3  A    between atoms: C_14  and  S_15
REMARK    4  A    between atoms: S_15  and  N_18
REMARK    5  A    between atoms: C_26  and  N_27
REMARK                            x       y       z     vdW  Elec       q    Type
REMARK                         _______ _______ _______ _____ _____    ______ ____
ROOT
ATOM      1  C   UNL     1       2.339   8.018  19.271  0.00  0.00    +0.000 A 
ATOM      2  C   UNL     1       2.911   7.079  18.394  0.00  0.00    +0.000 A 
ATOM      3  C   UNL     1       2.901   5.729  18.728  0.00  0.00    +0.000 A 
ATOM      4  C   UNL     1       2.377   5.319  19.950  0.00  0.00    +0.000 A 
ATOM      5  C   UNL     1       1.757   6.254  20.789  0.00  0.00    +0.000 A 
ATOM      6  C   UNL     1       1.664   7.616  20.451  0.00  0.00    +0.000 A 
ENDROOT
BRANCH   1  10
ATOM      7  O   UNL     1       1.510  11.319  18.162  0.00  0.00    +0.000 OA
ATOM      8  C   UNL     1       1.280  10.150  18.477  0.00  0.00    +0.000 C 
ATOM      9  N   UNL     1       0.075   9.508  18.346  0.00  0.00    +0.000 N 
ATOM     10  N   UNL     1       2.334   9.379  18.906  0.00  0.00    +0.000 N 
ATOM     11  H   UNL     1       0.088   8.511  18.502  0.00  0.00    +0.000 HD
ATOM     12  H   UNL     1       3.231   9.756  18.623  0.00  0.00    +0.000 HD
BRANCH   9  13
ATOM     13  C   UNL     1      -1.152  10.018  17.878  0.00  0.00    +0.000 A 
ATOM     14  C   UNL     1      -1.735   9.655  16.660  0.00  0.00    +0.000 A 
ATOM     15  C   UNL     1      -2.964  10.199  16.278  0.00  0.00    +0.000 A 
ATOM     16  C   UNL     1      -3.606  11.110  17.106  0.00  0.00    +0.000 A 
ATOM     17  F   UNL     1      -4.782  11.628  16.736  0.00  0.00    +0.000 F 
ATOM     18  C   UNL     1      -3.041  11.488  18.317  0.00  0.00    +0.000 A 
ATOM     19  C   UNL     1      -1.815  10.943  18.700  0.00  0.00    +0.000 A 
ENDBRANCH   9  13
ENDBRANCH   1  10
BRANCH   6  20
ATOM     20  N   UNL     1       0.903   8.498  21.209  0.00  0.00    +0.000 N 
ATOM     21  C   UNL     1      -0.513   8.229  21.459  0.00  0.00    +0.000 C 
ATOM     22  C   UNL     1      -0.965   9.546  22.068  0.00  0.00    +0.000 C 
ATOM     23  C   UNL     1       0.216   9.959  22.943  0.00  0.00    +0.000 C 
ATOM     24  C   UNL     1       1.432   9.186  22.395  0.00  0.00    +0.000 C 
ENDBRANCH   6  20
BRANCH   3  25
ATOM     25  S   UNL     1       3.602   4.535  17.614  0.00  0.00    +0.000 S 
ATOM     26  O   UNL     1       4.383   3.626  18.426  0.00  0.00    +0.000 OA
ATOM     27  O   UNL     1       2.543   4.045  16.761  0.00  0.00    +0.000 OA
BRANCH  25  28
ATOM     28  N   UNL     1       4.677   5.431  16.640  0.00  0.00    +0.000 NA
ATOM     29  C   UNL     1       5.120   4.831  15.342  0.00  0.00    +0.000 C 
ATOM     30  C   UNL     1       6.268   3.831  15.522  0.00  0.00    +0.000 C 
ATOM     31  O   UNL     1       7.381   4.423  16.205  0.00  0.00    +0.000 OA
ATOM     32  C   UNL     1       6.990   4.922  17.493  0.00  0.00    +0.000 C 
ATOM     33  C   UNL     1       5.878   5.972  17.370  0.00  0.00    +0.000 C 
ENDBRANCH  25  28
ENDBRANCH   3  25
TORSDOF 5
ENDMDL
MODEL 3
REMARK VINA RESULT:      -7.7      4.322      9.116
REMARK  Name = 
REMARK  5 active torsions:
REMARK  status: ('A' for Active; 'I' for Inactive)
REMARK    1  A    between atoms: N_3  and  C_4
REMARK    2  A    between atoms: N_11  and  C_12
REMARK    3  A    between atoms: C_14  and  S_15
REMARK    4  A    between atoms: S_15  and  N_18
REMARK    5  A    between atoms: C_26  and  N_27
REMARK                            x       y       z     vdW  Elec       q    Type
REMARK                         _______ _______ _______ _____ _____    ______ ____
ROOT
ATOM      1  C   UNL     1      -2.740  12.573  19.264  0.00  0.00    +0.000 A 
ATOM      2  C   UNL     1      -2.976  13.026  20.574  0.00  0.00    +0.000 A 
ATOM      3  C   UNL     1      -4.222  12.822  21.160  0.00  0.00    +0.000 A 
ATOM      4  C   UNL     1      -5.243  12.223  20.430  0.00  0.00    +0.000 A 
ATOM      5  C   UNL     1      -4.979  11.722  19.148  0.00  0.00    +0.000 A 
ATOM      6  C   UNL     1      -3.710  11.826  18.551  0.00  0.00    +0.000 A 
ENDROOT
BRANCH   1  10
ATOM      7  O   UNL     1       0.652  12.293  18.155  0.00  0.00    +0.000 OA
ATOM      8  C   UNL     1      -0.396  11.900  18.672  0.00  0.00    +0.000 C 
ATOM      9  N   UNL     1      -0.570  10.705  19.321  0.00  0.00    +0.000 N 
ATOM     10  N   UNL     1      -1.465  12.764  18.695  0.00  0.00    +0.000 N 
ATOM     11  H   UNL     1      -1.439  10.599  19.824  0.00  0.00    +0.000 HD
ATOM     12  H   UNL     1      -1.187  13.730  18.567  0.00  0.00    +0.000 HD
BRANCH   9  13
ATOM     13  C   UNL     1       0.356   9.661  19.513  0.00  0.00    +0.000 A 
ATOM     14  C   UNL     1       0.585   9.035  20.742  0.00  0.00    +0.000 A 
ATOM     15  C   UNL     1       1.512   7.995  20.842  0.00  0.00    +0.000 A 
ATOM     16  C   UNL     1       2.216   7.586  19.717  0.00  0.00    +0.000 A 
ATOM     17  F   UNL     1       3.103   6.589  19.817  0.00  0.00    +0.000 F 
ATOM     18  C   UNL     1       2.008   8.197  18.488  0.00  0.00    +0.000 A 
ATOM     19  C   UNL     1       1.080   9.234  18.388  0.00  0.00    +0.000 A 
ENDBRANCH   9  13
ENDBRANCH   1  10
BRANCH   6  20
ATOM     20  N   UNL     1      -3.420  11.179  17.355  0.00  0.00    +0.000 N 
ATOM     21  C   UNL     1      -3.100   9.752  17.343  0.00  0.00    +0.000 C 
ATOM     22  C   UNL     1      -2.608   9.567  15.917  0.00  0.00    +0.000 C 
ATOM     23  C   UNL     1      -3.537  10.461  15.100  0.00  0.00    +0.000 C 
ATOM     24  C   UNL     1      -4.122  11.478  16.100  0.00  0.00    +0.000 C 
ENDBRANCH   6  20
BRANCH   3  25
ATOM     25  S   UNL     1      -4.519  13.374  22.822  0.00  0.00    +0.000 S 
ATOM     26  O   UNL     1      -5.881  13.864  22.854  0.00  0.00    +0.000 OA
ATOM     27  O   UNL     1      -4.087  12.328  23.722  0.00  0.00    +0.000 OA
BRANCH  25  28
ATOM     28  N   UNL     1      -3.473  14.703  23.032  0.00  0.00    +0.000 NA
ATOM     29  C   UNL     1      -2.413  14.606  24.085  0.00  0.00    +0.000 C 
ATOM     30  C   UNL     1      -2.948  14.930  25.485  0.00  0.00    +0.000 C 
ATOM     31  O   UNL     1      -3.577  16.217  25.524  0.00  0.00    +0.000 OA
ATOM     32  C   UNL     1      -4.657  16.294  24.581  0.00  0.00    +0.000 C 
ATOM     33  C   UNL     1      -4.167  16.033  23.151  0.00  0.00    +0.000 C 
ENDBRANCH  25  28
ENDBRANCH   3  25
TORSDOF 5
ENDMDL
MODEL 4
REMARK VINA RESULT:      -7.7      4.394      8.463
REMARK  Name = 
REMARK  5 active torsions:
REMARK  status: ('A' for Active; 'I' for Inactive)
REMARK    1  A    between atoms: N_3  and  C_4
REMARK    2  A    between atoms: N_11  and  C_12
REMARK    3  A    between atoms: C_14  and  S_15
REMARK    4  A    between atoms: S_15  and  N_18
REMARK    5  A    between atoms: C_26  and  N_27
REMARK                            x       y       z     vdW  Elec       q    Type
REMARK                         _______ _______ _______ _____ _____    ______ ____
ROOT
ATOM      1  C   UNL     1      -0.013  11.558  20.265  0.00  0.00    +0.000 A 
ATOM      2  C   UNL     1       0.922  12.418  20.870  0.00  0.00    +0.000 A 
ATOM      3  C   UNL     1       1.282  13.601  20.233  0.00  0.00    +0.000 A 
ATOM      4  C   UNL     1       0.761  13.903  18.978  0.00  0.00    +0.000 A 
ATOM      5  C   UNL     1      -0.213  13.070  18.413  0.00  0.00    +0.000 A 
ATOM      6  C   UNL     1      -0.674  11.910  19.061  0.00  0.00    +0.000 A 
ENDROOT
BRANCH   1  10
ATOM      7  O   UNL     1      -0.353   8.211  21.485  0.00  0.00    +0.000 OA
ATOM      8  C   UNL     1       0.165   9.121  20.835  0.00  0.00    +0.000 C 
ATOM      9  N   UNL     1       1.191   8.981  19.936  0.00  0.00    +0.000 N 
ATOM     10  N   UNL     1      -0.386  10.377  20.935  0.00  0.00    +0.000 N 
ATOM     11  H   UNL     1       1.397   9.793  19.373  0.00  0.00    +0.000 HD
ATOM     12  H   UNL     1      -1.338  10.357  21.283  0.00  0.00    +0.000 HD
BRANCH   9  13
ATOM     13  C   UNL     1       1.901   7.817  19.580  0.00  0.00    +0.000 A 
ATOM     14  C   UNL     1       1.979   6.674  20.381  0.00  0.00    +0.000 A 
ATOM     15  C   UNL     1       2.692   5.555  19.945  0.00  0.00    +0.000 A 
ATOM     16  C   UNL     1       3.335   5.581  18.714  0.00  0.00    +0.000 A 
ATOM     17  F   UNL     1       4.017   4.507  18.300  0.00  0.00    +0.000 F 
ATOM     18  C   UNL     1       3.275   6.709  17.906  0.00  0.00    +0.000 A 
ATOM     19  C   UNL     1       2.559   7.825  18.341  0.00  0.00    +0.000 A 
ENDBRANCH   9  13
ENDBRANCH   1  10
BRANCH   6  20
ATOM     20  N   UNL     1      -1.755  11.188  18.570  0.00  0.00    +0.000 N 
ATOM     21  C   UNL     1      -3.036  11.849  18.321  0.00  0.00    +0.000 C 
ATOM     22  C   UNL     1      -3.944  10.658  18.065  0.00  0.00    +0.000 C 
ATOM     23  C   UNL     1      -3.061   9.702  17.266  0.00  0.00    +0.000 C 
ATOM     24  C   UNL     1      -1.610  10.129  17.562  0.00  0.00    +0.000 C 
ENDBRANCH   6  20
BRANCH   3  25
ATOM     25  S   UNL     1       2.446  14.702  21.002  0.00  0.00    +0.000 S 
ATOM     26  O   UNL     1       1.972  14.922  22.352  0.00  0.00    +0.000 OA
ATOM     27  O   UNL     1       3.775  14.187  20.758  0.00  0.00    +0.000 OA
BRANCH  25  28
ATOM     28  N   UNL     1       2.292  16.165  20.141  0.00  0.00    +0.000 NA
ATOM     29  C   UNL     1       3.332  16.492  19.115  0.00  0.00    +0.000 C 
ATOM     30  C   UNL     1       4.594  17.102  19.735  0.00  0.00    +0.000 C 
ATOM     31  O   UNL     1       4.289  18.259  20.524  0.00  0.00    +0.000 OA
ATOM     32  C   UNL     1       3.361  17.939  21.572  0.00  0.00    +0.000 C 
ATOM     33  C   UNL     1       2.052  17.375  21.004  0.00  0.00    +0.000 C 
ENDBRANCH  25  28
ENDBRANCH   3  25
TORSDOF 5
ENDMDL
MODEL 5
REMARK VINA RESULT:      -7.7      3.310      4.567
REMARK  Name = 
REMARK  5 active torsions:
REMARK  status: ('A' for Active; 'I' for Inactive)
REMARK    1  A    between atoms: N_3  and  C_4
REMARK    2  A    between atoms: N_11  and  C_12
REMARK    3  A    between atoms: C_14  and  S_15
REMARK    4  A    between atoms: S_15  and  N_18
REMARK    5  A    between atoms: C_26  and  N_27
REMARK                            x       y       z     vdW  Elec       q    Type
REMARK                         _______ _______ _______ _____ _____    ______ ____
ROOT
ATOM      1  C   UNL     1       0.724  10.075  19.589  0.00  0.00    +0.000 A 
ATOM      2  C   UNL     1       1.377   9.098  18.816  0.00  0.00    +0.000 A 
ATOM      3  C   UNL     1       1.930   7.983  19.438  0.00  0.00    +0.000 A 
ATOM      4  C   UNL     1       1.885   7.866  20.824  0.00  0.00    +0.000 A 
ATOM      5  C   UNL     1       1.180   8.813  21.578  0.00  0.00    +0.000 A 
ATOM      6  C   UNL     1       0.529   9.909  20.983  0.00  0.00    +0.000 A 
ENDROOT
BRANCH   1  10
ATOM      7  O   UNL     1       0.009  13.255  18.114  0.00  0.00    +0.000 OA
ATOM      8  C   UNL     1       0.716  12.402  18.651  0.00  0.00    +0.000 C 
ATOM      9  N   UNL     1       2.006  12.584  19.081  0.00  0.00    +0.000 N 
ATOM     10  N   UNL     1       0.147  11.184  18.941  0.00  0.00    +0.000 N 
ATOM     11  H   UNL     1       2.393  11.838  19.640  0.00  0.00    +0.000 HD
ATOM     12  H   UNL     1      -0.865  11.225  18.967  0.00  0.00    +0.000 HD
BRANCH   9  13
ATOM     13  C   UNL     1       2.816  13.733  18.982  0.00  0.00    +0.000 A 
ATOM     14  C   UNL     1       3.232  14.293  17.770  0.00  0.00    +0.000 A 
ATOM     15  C   UNL     1       4.024  15.444  17.761  0.00  0.00    +0.000 A 
ATOM     16  C   UNL     1       4.405  16.031  18.960  0.00  0.00    +0.000 A 
ATOM     17  F   UNL     1       5.163  17.133  18.946  0.00  0.00    +0.000 F 
ATOM     18  C   UNL     1       4.007  15.487  20.174  0.00  0.00    +0.000 A 
ATOM     19  C   UNL     1       3.214  14.339  20.183  0.00  0.00    +0.000 A 
ENDBRANCH   9  13
ENDBRANCH   1  10
BRANCH   6  20
ATOM     20  N   UNL     1      -0.302  10.743  21.722  0.00  0.00    +0.000 N 
ATOM     21  C   UNL     1      -0.911  10.271  22.965  0.00  0.00    +0.000 C 
ATOM     22  C   UNL     1      -1.905  11.383  23.253  0.00  0.00    +0.000 C 
ATOM     23  C   UNL     1      -1.155  12.648  22.843  0.00  0.00    +0.000 C 
ATOM     24  C   UNL     1      -0.044  12.181  21.882  0.00  0.00    +0.000 C 
ENDBRANCH   6  20
BRANCH   3  25
ATOM     25  S   UNL     1       2.738   6.735  18.465  0.00  0.00    +0.000 S 
ATOM     26  O   UNL     1       1.687   5.921  17.889  0.00  0.00    +0.000 OA
ATOM     27  O   UNL     1       3.714   7.389  17.623  0.00  0.00    +0.000 OA
BRANCH  25  28
ATOM     28  N   UNL     1       3.585   5.783  19.597  0.00  0.00    +0.000 NA
ATOM     29  C   UNL     1       5.008   5.429  19.295  0.00  0.00    +0.000 C 
ATOM     30  C   UNL     1       5.123   4.230  18.346  0.00  0.00    +0.000 C 
ATOM     31  O   UNL     1       4.419   3.088  18.850  0.00  0.00    +0.000 OA
ATOM     32  C   UNL     1       3.030   3.388  19.058  0.00  0.00    +0.000 C 
ATOM     33  C   UNL     1       2.853   4.547  20.046  0.00  0.00    +0.000 C 
ENDBRANCH  25  28
ENDBRANCH   3  25
TORSDOF 5
ENDMDL
MODEL 6
REMARK VINA RESULT:      -7.7      3.512      6.417
REMARK  Name = 
REMARK  5 active torsions:
REMARK  status: ('A' for Active; 'I' for Inactive)
REMARK    1  A    between atoms: N_3  and  C_4
REMARK    2  A    between atoms: N_11  and  C_12
REMARK    3  A    between atoms: C_14  and  S_15
REMARK    4  A    between atoms: S_15  and  N_18
REMARK    5  A    between atoms: C_26  and  N_27
REMARK                            x       y       z     vdW  Elec       q    Type
REMARK                         _______ _______ _______ _____ _____    ______ ____
ROOT
ATOM      1  C   UNL     1       3.730   6.002  17.757  0.00  0.00    +0.000 A 
ATOM      2  C   UNL     1       2.603   5.183  17.950  0.00  0.00    +0.000 A 
ATOM      3  C   UNL     1       2.773   3.860  18.346  0.00  0.00    +0.000 A 
ATOM      4  C   UNL     1       4.054   3.337  18.494  0.00  0.00    +0.000 A 
ATOM      5  C   UNL     1       5.166   4.177  18.358  0.00  0.00    +0.000 A 
ATOM      6  C   UNL     1       5.039   5.543  18.047  0.00  0.00    +0.000 A 
ENDROOT
BRANCH   1  10
ATOM      7  O   UNL     1       2.749   9.434  17.493  0.00  0.00    +0.000 OA
ATOM      8  C   UNL     1       2.822   8.326  18.027  0.00  0.00    +0.000 C 
ATOM      9  N   UNL     1       2.167   7.942  19.169  0.00  0.00    +0.000 N 
ATOM     10  N   UNL     1       3.540   7.347  17.382  0.00  0.00    +0.000 N 
ATOM     11  H   UNL     1       2.207   6.958  19.390  0.00  0.00    +0.000 HD
ATOM     12  H   UNL     1       3.670   7.545  16.397  0.00  0.00    +0.000 HD
BRANCH   9  13
ATOM     13  C   UNL     1       1.318   8.701  19.998  0.00  0.00    +0.000 A 
ATOM     14  C   UNL     1       0.485   9.725  19.535  0.00  0.00    +0.000 A 
ATOM     15  C   UNL     1      -0.339  10.419  20.424  0.00  0.00    +0.000 A 
ATOM     16  C   UNL     1      -0.325  10.098  21.775  0.00  0.00    +0.000 A 
ATOM     17  F   UNL     1      -1.116  10.766  22.623  0.00  0.00    +0.000 F 
ATOM     18  C   UNL     1       0.499   9.089  22.256  0.00  0.00    +0.000 A 
ATOM     19  C   UNL     1       1.319   8.393  21.367  0.00  0.00    +0.000 A 
ENDBRANCH   9  13
ENDBRANCH   1  10
BRANCH   6  20
ATOM     20  N   UNL     1       6.136   6.396  18.080  0.00  0.00    +0.000 N 
ATOM     21  C   UNL     1       7.403   5.953  18.659  0.00  0.00    +0.000 C 
ATOM     22  C   UNL     1       8.180   7.257  18.717  0.00  0.00    +0.000 C 
ATOM     23  C   UNL     1       7.785   7.965  17.423  0.00  0.00    +0.000 C 
ATOM     24  C   UNL     1       6.458   7.317  16.981  0.00  0.00    +0.000 C 
ENDBRANCH   6  20
BRANCH   3  25
ATOM     25  S   UNL     1       1.352   2.826  18.612  0.00  0.00    +0.000 S 
ATOM     26  O   UNL     1       0.363   3.229  17.635  0.00  0.00    +0.000 OA
ATOM     27  O   UNL     1       1.806   1.455  18.686  0.00  0.00    +0.000 OA
BRANCH  25  28
ATOM     28  N   UNL     1       0.780   3.266  20.157  0.00  0.00    +0.000 NA
ATOM     29  C   UNL     1       1.035   4.662  20.632  0.00  0.00    +0.000 C 
ATOM     30  C   UNL     1       2.444   4.834  21.211  0.00  0.00    +0.000 C 
ATOM     31  O   UNL     1       2.702   3.893  22.261  0.00  0.00    +0.000 OA
ATOM     32  C   UNL     1       2.550   2.544  21.794  0.00  0.00    +0.000 C 
ATOM     33  C   UNL     1       1.136   2.298  21.253  0.00  0.00    +0.000 C 
ENDBRANCH  25  28
ENDBRANCH   3  25
TORSDOF 5
ENDMDL
MODEL 7
REMARK VINA RESULT:      -7.7      4.320      8.075
REMARK  Name = 
REMARK  5 active torsions:
REMARK  status: ('A' for Active; 'I' for Inactive)
REMARK    1  A    between atoms: N_3  and  C_4
REMARK    2  A    between atoms: N_11  and  C_12
REMARK    3  A    between atoms: C_14  and  S_15
REMARK    4  A    between atoms: S_15  and  N_18
REMARK    5  A    between atoms: C_26  and  N_27
REMARK                            x       y       z     vdW  Elec       q    Type
REMARK                         _______ _______ _______ _____ _____    ______ ____
ROOT
ATOM      1  C   UNL     1      -0.106  11.682  20.210  0.00  0.00    +0.000 A 
ATOM      2  C   UNL     1       0.783  12.591  20.812  0.00  0.00    +0.000 A 
ATOM      3  C   UNL     1       1.108  13.774  20.155  0.00  0.00    +0.000 A 
ATOM      4  C   UNL     1       0.598  14.027  18.885  0.00  0.00    +0.000 A 
ATOM      5  C   UNL     1      -0.332  13.143  18.321  0.00  0.00    +0.000 A 
ATOM      6  C   UNL     1      -0.758  11.980  18.988  0.00  0.00    +0.000 A 
ENDROOT
BRANCH   1  10
ATOM      7  O   UNL     1      -0.359   8.343  21.474  0.00  0.00    +0.000 OA
ATOM      8  C   UNL     1       0.130   9.256  20.805  0.00  0.00    +0.000 C 
ATOM      9  N   UNL     1       1.144   9.125  19.891  0.00  0.00    +0.000 N 
ATOM     10  N   UNL     1      -0.445  10.501  20.900  0.00  0.00    +0.000 N 
ATOM     11  H   UNL     1       1.324   9.934  19.315  0.00  0.00    +0.000 HD
ATOM     12  H   UNL     1      -1.390  10.466  21.264  0.00  0.00    +0.000 HD
BRANCH   9  13
ATOM     13  C   UNL     1       1.870   7.971  19.536  0.00  0.00    +0.000 A 
ATOM     14  C   UNL     1       1.990   6.842  20.352  0.00  0.00    +0.000 A 
ATOM     15  C   UNL     1       2.718   5.732  19.916  0.00  0.00    +0.000 A 
ATOM     16  C   UNL     1       3.333   5.753  18.671  0.00  0.00    +0.000 A 
ATOM     17  F   UNL     1       4.029   4.688  18.258  0.00  0.00    +0.000 F 
ATOM     18  C   UNL     1       3.231   6.867  17.848  0.00  0.00    +0.000 A 
ATOM     19  C   UNL     1       2.501   7.974  18.283  0.00  0.00    +0.000 A 
ENDBRANCH   9  13
ENDBRANCH   1  10
BRANCH   6  20
ATOM     20  N   UNL     1      -1.800  11.205  18.493  0.00  0.00    +0.000 N 
ATOM     21  C   UNL     1      -3.123  11.792  18.279  0.00  0.00    +0.000 C 
ATOM     22  C   UNL     1      -3.960  10.554  18.006  0.00  0.00    +0.000 C 
ATOM     23  C   UNL     1      -3.033   9.674  17.171  0.00  0.00    +0.000 C 
ATOM     24  C   UNL     1      -1.606  10.181  17.457  0.00  0.00    +0.000 C 
ENDBRANCH   6  20
BRANCH   3  25
ATOM     25  S   UNL     1       2.213  14.937  20.919  0.00  0.00    +0.000 S 
ATOM     26  O   UNL     1       1.873  16.238  20.383  0.00  0.00    +0.000 OA
ATOM     27  O   UNL     1       2.197  14.695  22.345  0.00  0.00    +0.000 OA
BRANCH  25  28
ATOM     28  N   UNL     1       3.758  14.512  20.339  0.00  0.00    +0.000 NA
ATOM     29  C   UNL     1       4.948  14.871  21.174  0.00  0.00    +0.000 C 
ATOM     30  C   UNL     1       5.381  16.329  20.977  0.00  0.00    +0.000 C 
ATOM     31  O   UNL     1       5.630  16.624  19.597  0.00  0.00    +0.000 OA
ATOM     32  C   UNL     1       4.466  16.370  18.796  0.00  0.00    +0.000 C 
ATOM     33  C   UNL     1       4.019  14.907  18.910  0.00  0.00    +0.000 C 
ENDBRANCH  25  28
ENDBRANCH   3  25
TORSDOF 5
ENDMDL
MODEL 8
REMARK VINA RESULT:      -7.6      4.428      7.882
REMARK  Name = 
REMARK  5 active torsions:
REMARK  status: ('A' for Active; 'I' for Inactive)
REMARK    1  A    between atoms: N_3  and  C_4
REMARK    2  A    between atoms: N_11  and  C_12
REMARK    3  A    between atoms: C_14  and  S_15
REMARK    4  A    between atoms: S_15  and  N_18
REMARK    5  A    between atoms: C_26  and  N_27
REMARK                            x       y       z     vdW  Elec       q    Type
REMARK                         _______ _______ _______ _____ _____    ______ ____
ROOT
ATOM      1  C   UNL     1      -0.491  12.347  21.884  0.00  0.00    +0.000 A 
ATOM      2  C   UNL     1      -1.678  12.289  22.636  0.00  0.00    +0.000 A 
ATOM      3  C   UNL     1      -2.147  13.434  23.273  0.00  0.00    +0.000 A 
ATOM      4  C   UNL     1      -1.414  14.615  23.209  0.00  0.00    +0.000 A 
ATOM      5  C   UNL     1      -0.266  14.677  22.408  0.00  0.00    +0.000 A 
ATOM      6  C   UNL     1       0.196  13.569  21.675  0.00  0.00    +0.000 A 
ENDROOT
BRANCH   1  10
ATOM      7  O   UNL     1       0.035   9.598  19.653  0.00  0.00    +0.000 OA
ATOM      8  C   UNL     1      -0.464  10.661  20.025  0.00  0.00    +0.000 C 
ATOM      9  N   UNL     1      -1.483  11.331  19.397  0.00  0.00    +0.000 N 
ATOM     10  N   UNL     1      -0.044  11.185  21.225  0.00  0.00    +0.000 N 
ATOM     11  H   UNL     1      -1.885  12.103  19.909  0.00  0.00    +0.000 HD
ATOM     12  H   UNL     1       0.397  10.492  21.818  0.00  0.00    +0.000 HD
BRANCH   9  13
ATOM     13  C   UNL     1      -2.151  11.002  18.201  0.00  0.00    +0.000 A 
ATOM     14  C   UNL     1      -1.641  10.129  17.236  0.00  0.00    +0.000 A 
ATOM     15  C   UNL     1      -2.378   9.844  16.083  0.00  0.00    +0.000 A 
ATOM     16  C   UNL     1      -3.619  10.438  15.892  0.00  0.00    +0.000 A 
ATOM     17  F   UNL     1      -4.320  10.162  14.786  0.00  0.00    +0.000 F 
ATOM     18  C   UNL     1      -4.141  11.312  16.835  0.00  0.00    +0.000 A 
ATOM     19  C   UNL     1      -3.406  11.594  17.987  0.00  0.00    +0.000 A 
ENDBRANCH   9  13
ENDBRANCH   1  10
BRANCH   6  20
ATOM     20  N   UNL     1       1.234  13.690  20.759  0.00  0.00    +0.000 N 
ATOM     21  C   UNL     1       0.968  14.149  19.395  0.00  0.00    +0.000 C 
ATOM     22  C   UNL     1       2.300  13.869  18.720  0.00  0.00    +0.000 C 
ATOM     23  C   UNL     1       3.326  14.234  19.790  0.00  0.00    +0.000 C 
ATOM     24  C   UNL     1       2.568  14.181  21.130  0.00  0.00    +0.000 C 
ENDBRANCH   6  20
BRANCH   3  25
ATOM     25  S   UNL     1      -3.657  13.373  24.207  0.00  0.00    +0.000 S 
ATOM     26  O   UNL     1      -4.033  11.977  24.287  0.00  0.00    +0.000 OA
ATOM     27  O   UNL     1      -3.473  14.161  25.405  0.00  0.00    +0.000 OA
BRANCH  25  28
ATOM     28  N   UNL     1      -4.803  14.174  23.232  0.00  0.00    +0.000 NA
ATOM     29  C   UNL     1      -6.241  14.120  23.644  0.00  0.00    +0.000 C 
ATOM     30  C   UNL     1      -6.925  12.818  23.210  0.00  0.00    +0.000 C 
ATOM     31  O   UNL     1      -6.800  12.603  21.798  0.00  0.00    +0.000 OA
ATOM     32  C   UNL     1      -5.421  12.561  21.402  0.00  0.00    +0.000 C 
ATOM     33  C   UNL     1      -4.698  13.865  21.762  0.00  0.00    +0.000 C 
ENDBRANCH  25  28
ENDBRANCH   3  25
TORSDOF 5
ENDMDL
MODEL 9
REMARK VINA RESULT:      -7.5      4.508      9.669
REMARK  Name = 
REMARK  5 active torsions:
REMARK  status: ('A' for Active; 'I' for Inactive)
REMARK    1  A    between atoms: N_3  and  C_4
REMARK    2  A    between atoms: N_11  and  C_12
REMARK    3  A    between atoms: C_14  and  S_15
REMARK    4  A    between atoms: S_15  and  N_18
REMARK    5  A    between atoms: C_26  and  N_27
REMARK                            x       y       z     vdW  Elec       q    Type
REMARK                         _______ _______ _______ _____ _____    ______ ____
ROOT
ATOM      1  C   UNL     1       4.045   6.160  18.120  0.00  0.00    +0.000 A 
ATOM      2  C   UNL     1       3.588   7.489  18.070  0.00  0.00    +0.000 A 
ATOM      3  C   UNL     1       2.221   7.750  18.108  0.00  0.00    +0.000 A 
ATOM      4  C   UNL     1       1.313   6.696  18.139  0.00  0.00    +0.000 A 
ATOM      5  C   UNL     1       1.780   5.380  18.249  0.00  0.00    +0.000 A 
ATOM      6  C   UNL     1       3.152   5.075  18.304  0.00  0.00    +0.000 A 
ENDROOT
BRANCH   1  10
ATOM      7  O   UNL     1       7.422   5.334  17.272  0.00  0.00    +0.000 OA
ATOM      8  C   UNL     1       6.229   5.543  17.049  0.00  0.00    +0.000 C 
ATOM      9  N   UNL     1       5.590   5.342  15.852  0.00  0.00    +0.000 N 
ATOM     10  N   UNL     1       5.432   5.914  18.106  0.00  0.00    +0.000 N 
ATOM     11  H   UNL     1       4.583   5.410  15.873  0.00  0.00    +0.000 HD
ATOM     12  H   UNL     1       5.840   5.677  19.002  0.00  0.00    +0.000 HD
BRANCH   9  13
ATOM     13  C   UNL     1       6.129   4.906  14.625  0.00  0.00    +0.000 A 
ATOM     14  C   UNL     1       7.319   5.393  14.077  0.00  0.00    +0.000 A 
ATOM     15  C   UNL     1       7.792   4.893  12.861  0.00  0.00    +0.000 A 
ATOM     16  C   UNL     1       7.071   3.914  12.189  0.00  0.00    +0.000 A 
ATOM     17  F   UNL     1       7.527   3.439  11.025  0.00  0.00    +0.000 F 
ATOM     18  C   UNL     1       5.884   3.422  12.713  0.00  0.00    +0.000 A 
ATOM     19  C   UNL     1       5.414   3.919  13.929  0.00  0.00    +0.000 A 
ENDBRANCH   9  13
ENDBRANCH   1  10
BRANCH   6  20
ATOM     20  N   UNL     1       3.595   3.787  18.580  0.00  0.00    +0.000 N 
ATOM     21  C   UNL     1       3.625   3.293  19.956  0.00  0.00    +0.000 C 
ATOM     22  C   UNL     1       4.405   1.999  19.793  0.00  0.00    +0.000 C 
ATOM     23  C   UNL     1       3.895   1.439  18.468  0.00  0.00    +0.000 C 
ATOM     24  C   UNL     1       3.292   2.640  17.713  0.00  0.00    +0.000 C 
ENDBRANCH   6  20
BRANCH   3  25
ATOM     25  S   UNL     1       1.639   9.428  18.068  0.00  0.00    +0.000 S 
ATOM     26  O   UNL     1       2.613  10.182  17.308  0.00  0.00    +0.000 OA
ATOM     27  O   UNL     1       0.247   9.407  17.676  0.00  0.00    +0.000 OA
BRANCH  25  28
ATOM     28  N   UNL     1       1.712   9.951  19.689  0.00  0.00    +0.000 NA
ATOM     29  C   UNL     1       1.170   9.043  20.748  0.00  0.00    +0.000 C 
ATOM     30  C   UNL     1      -0.354   9.147  20.884  0.00  0.00    +0.000 C 
ATOM     31  O   UNL     1      -0.771  10.498  21.121  0.00  0.00    +0.000 OA
ATOM     32  C   UNL     1      -0.335  11.366  20.064  0.00  0.00    +0.000 C 
ATOM     33  C   UNL     1       1.192  11.345  19.919  0.00  0.00    +0.000 C 
ENDBRANCH  25  28
ENDBRANCH   3  25
TORSDOF 5
ENDMDL
