MODEL 1
REMARK VINA RESULT:      -8.2      0.000      0.000
REMARK  Name = 
REMARK  15 active torsions:
REMARK  status: ('A' for Active; 'I' for Inactive)
REMARK    1  A    between atoms: C_1  and  C_2
REMARK    2  A    between atoms: C_2  and  C_3
REMARK    3  A    between atoms: C_3  and  C_4
REMARK    4  A    between atoms: C_4  and  C_5
REMARK    5  A    between atoms: C_5  and  C_6
REMARK    6  A    between atoms: N_8  and  C_9
REMARK    7  A    between atoms: C_9  and  C_10
REMARK    8  A    between atoms: C_9  and  C_22
REMARK    9  A    between atoms: N_12  and  C_13
REMARK   10  A    between atoms: C_13  and  C_14
REMARK   11  A    between atoms: C_17  and  C_18
REMARK   12  A    between atoms: C_18  and  N_19
REMARK   13  A    between atoms: C_25  and  O_26
REMARK   14  A    between atoms: O_26  and  C_27
REMARK   15  A    between atoms: C_27  and  C_28
REMARK                            x       y       z     vdW  Elec       q    Type
REMARK                         _______ _______ _______ _____ _____    ______ ____
ROOT
ATOM      1  C   UNL     1       5.258   4.405  18.122  0.00  0.00    +0.000 C 
ENDROOT
BRANCH   1   2
ATOM      2  C   UNL     1       4.241   5.437  18.574  0.00  0.00    +0.000 A 
ATOM      3  C   UNL     1       3.821   6.398  17.655  0.00  0.00    +0.000 A 
ATOM      4  C   UNL     1       2.918   7.387  18.031  0.00  0.00    +0.000 A 
ATOM      5  C   UNL     1       2.394   7.400  19.317  0.00  0.00    +0.000 A 
ATOM      6  C   UNL     1       2.799   6.444  20.247  0.00  0.00    +0.000 A 
ATOM      7  C   UNL     1       3.714   5.455  19.876  0.00  0.00    +0.000 A 
BRANCH   5   8
ATOM      8  O   UNL     1       1.475   8.315  19.763  0.00  0.00    +0.000 OA
BRANCH   8   9
ATOM      9  C   UNL     1       1.131   8.180  21.145  0.00  0.00    +0.000 C 
BRANCH   9  10
ATOM     10  C   UNL     1       0.432   9.430  21.599  0.00  0.00    +0.000 A 
ATOM     11  C   UNL     1      -0.407   9.414  22.722  0.00  0.00    +0.000 A 
ATOM     12  C   UNL     1      -1.031  10.587  23.142  0.00  0.00    +0.000 A 
ATOM     13  C   UNL     1      -0.815  11.779  22.459  0.00  0.00    +0.000 A 
ATOM     14  C   UNL     1       0.033  11.809  21.353  0.00  0.00    +0.000 A 
ATOM     15  C   UNL     1       0.657  10.639  20.928  0.00  0.00    +0.000 A 
ENDBRANCH   9  10
ENDBRANCH   8   9
ENDBRANCH   5   8
ENDBRANCH   1   2
BRANCH   1  18
ATOM     16  C   UNL     1       4.288   2.216  18.973  0.00  0.00    +0.000 C 
ATOM     17  O   UNL     1       4.466   1.249  19.709  0.00  0.00    +0.000 OA
ATOM     18  N   UNL     1       5.176   3.255  19.020  0.00  0.00    +0.000 N 
ATOM     19  H   UNL     1       5.916   3.130  19.703  0.00  0.00    +0.000 HD
BRANCH  16  20
ATOM     20  C   UNL     1       3.190   2.276  17.926  0.00  0.00    +0.000 C 
BRANCH  20  21
ATOM     21  C   UNL     1       1.802   2.053  18.524  0.00  0.00    +0.000 C 
BRANCH  21  22
ATOM     22  C   UNL     1       1.054   3.379  18.646  0.00  0.00    +0.000 C 
BRANCH  22  24
ATOM     23  C   UNL     1       1.359   2.722  21.052  0.00  0.00    +0.000 C 
ATOM     24  C   UNL     1       0.660   3.671  20.092  0.00  0.00    +0.000 C 
ENDBRANCH  22  24
ENDBRANCH  21  22
ENDBRANCH  20  21
ENDBRANCH  16  20
ENDBRANCH   1  18
BRANCH   1  25
ATOM     25  C   UNL     1       6.632   5.118  17.832  0.00  0.00    +0.000 C 
ATOM     26  O   UNL     1       7.518   5.159  18.693  0.00  0.00    +0.000 OA
ATOM     27  N   UNL     1       6.912   5.670  16.612  0.00  0.00    +0.000 N 
ATOM     28  H   UNL     1       7.794   6.167  16.569  0.00  0.00    +0.000 HD
BRANCH  27  29
ATOM     29  C   UNL     1       5.968   5.829  15.548  0.00  0.00    +0.000 C 
BRANCH  29  30
ATOM     30  C   UNL     1       6.218   5.032  14.323  0.00  0.00    +0.000 A 
ATOM     31  C   UNL     1       7.405   5.161  13.607  0.00  0.00    +0.000 A 
ATOM     32  C   UNL     1       7.654   4.301  12.543  0.00  0.00    +0.000 A 
ATOM     33  C   UNL     1       6.731   3.302  12.193  0.00  0.00    +0.000 A 
ATOM     34  C   UNL     1       5.530   3.202  12.900  0.00  0.00    +0.000 A 
ATOM     35  C   UNL     1       5.279   4.051  13.967  0.00  0.00    +0.000 A 
BRANCH  33  36
ATOM     36  C   UNL     1       7.026   2.397  11.028  0.00  0.00    +0.000 C 
BRANCH  36  37
ATOM     37  N   UNL     1       6.473   1.058  11.197  0.00  0.00    +0.000 NA
ATOM     38  H   UNL     1       5.784   1.083  11.948  0.00  0.00    +0.000 HD
ATOM     39  H   UNL     1       7.213   0.431  11.502  0.00  0.00    +0.000 HD
ENDBRANCH  36  37
ENDBRANCH  33  36
ENDBRANCH  29  30
ENDBRANCH  27  29
ENDBRANCH   1  25
TORSDOF 14
ENDMDL
MODEL 2
REMARK VINA RESULT:      -8.2      1.502      1.744
REMARK  Name = 
REMARK  15 active torsions:
REMARK  status: ('A' for Active; 'I' for Inactive)
REMARK    1  A    between atoms: C_1  and  C_2
REMARK    2  A    between atoms: C_2  and  C_3
REMARK    3  A    between atoms: C_3  and  C_4
REMARK    4  A    between atoms: C_4  and  C_5
REMARK    5  A    between atoms: C_5  and  C_6
REMARK    6  A    between atoms: N_8  and  C_9
REMARK    7  A    between atoms: C_9  and  C_10
REMARK    8  A    between atoms: C_9  and  C_22
REMARK    9  A    between atoms: N_12  and  C_13
REMARK   10  A    between atoms: C_13  and  C_14
REMARK   11  A    between atoms: C_17  and  C_18
REMARK   12  A    between atoms: C_18  and  N_19
REMARK   13  A    between atoms: C_25  and  O_26
REMARK   14  A    between atoms: O_26  and  C_27
REMARK   15  A    between atoms: C_27  and  C_28
REMARK                            x       y       z     vdW  Elec       q    Type
REMARK                         _______ _______ _______ _____ _____    ______ ____
ROOT
ATOM      1  C   UNL     1       4.884   5.073  18.085  0.00  0.00    +0.000 C 
ENDROOT
BRANCH   1   2
ATOM      2  C   UNL     1       3.859   6.133  18.445  0.00  0.00    +0.000 A 
ATOM      3  C   UNL     1       3.667   7.193  17.560  0.00  0.00    +0.000 A 
ATOM      4  C   UNL     1       2.766   8.209  17.860  0.00  0.00    +0.000 A 
ATOM      5  C   UNL     1       2.016   8.153  19.029  0.00  0.00    +0.000 A 
ATOM      6  C   UNL     1       2.193   7.099  19.923  0.00  0.00    +0.000 A 
ATOM      7  C   UNL     1       3.105   6.081  19.629  0.00  0.00    +0.000 A 
BRANCH   5   8
ATOM      8  O   UNL     1       1.083   9.092  19.389  0.00  0.00    +0.000 OA
BRANCH   8   9
ATOM      9  C   UNL     1       0.703   9.980  18.335  0.00  0.00    +0.000 C 
BRANCH   9  10
ATOM     10  C   UNL     1      -0.551  10.705  18.735  0.00  0.00    +0.000 A 
ATOM     11  C   UNL     1      -0.618  11.404  19.948  0.00  0.00    +0.000 A 
ATOM     12  C   UNL     1      -1.782  12.088  20.294  0.00  0.00    +0.000 A 
ATOM     13  C   UNL     1      -2.874  12.092  19.434  0.00  0.00    +0.000 A 
ATOM     14  C   UNL     1      -2.810  11.416  18.216  0.00  0.00    +0.000 A 
ATOM     15  C   UNL     1      -1.651  10.729  17.866  0.00  0.00    +0.000 A 
ENDBRANCH   9  10
ENDBRANCH   8   9
ENDBRANCH   5   8
ENDBRANCH   1   2
BRANCH   1  18
ATOM     16  C   UNL     1       4.424   2.820  19.168  0.00  0.00    +0.000 C 
ATOM     17  O   UNL     1       4.694   2.075  20.105  0.00  0.00    +0.000 OA
ATOM     18  N   UNL     1       4.928   4.091  19.168  0.00  0.00    +0.000 N 
ATOM     19  H   UNL     1       5.484   4.311  19.988  0.00  0.00    +0.000 HD
BRANCH  16  20
ATOM     20  C   UNL     1       3.645   2.372  17.944  0.00  0.00    +0.000 C 
BRANCH  20  21
ATOM     21  C   UNL     1       2.200   2.866  17.961  0.00  0.00    +0.000 C 
BRANCH  21  22
ATOM     22  C   UNL     1       1.411   2.172  19.069  0.00  0.00    +0.000 C 
BRANCH  22  24
ATOM     23  C   UNL     1       1.504   2.921  21.466  0.00  0.00    +0.000 C 
ATOM     24  C   UNL     1       0.889   3.172  20.098  0.00  0.00    +0.000 C 
ENDBRANCH  22  24
ENDBRANCH  21  22
ENDBRANCH  20  21
ENDBRANCH  16  20
ENDBRANCH   1  18
BRANCH   1  25
ATOM     25  C   UNL     1       6.195   5.770  17.561  0.00  0.00    +0.000 C 
ATOM     26  O   UNL     1       7.083   6.120  18.347  0.00  0.00    +0.000 OA
ATOM     27  N   UNL     1       6.419   5.969  16.226  0.00  0.00    +0.000 N 
ATOM     28  H   UNL     1       7.259   6.495  16.017  0.00  0.00    +0.000 HD
BRANCH  27  29
ATOM     29  C   UNL     1       5.455   5.749  15.192  0.00  0.00    +0.000 C 
BRANCH  29  30
ATOM     30  C   UNL     1       5.900   4.921  14.045  0.00  0.00    +0.000 A 
ATOM     31  C   UNL     1       7.188   5.031  13.531  0.00  0.00    +0.000 A 
ATOM     32  C   UNL     1       7.606   4.143  12.545  0.00  0.00    +0.000 A 
ATOM     33  C   UNL     1       6.748   3.136  12.073  0.00  0.00    +0.000 A 
ATOM     34  C   UNL     1       5.447   3.055  12.575  0.00  0.00    +0.000 A 
ATOM     35  C   UNL     1       5.028   3.931  13.564  0.00  0.00    +0.000 A 
BRANCH  33  36
ATOM     36  C   UNL     1       7.226   2.202  10.995  0.00  0.00    +0.000 C 
BRANCH  36  37
ATOM     37  N   UNL     1       6.634   0.873  11.094  0.00  0.00    +0.000 NA
ATOM     38  H   UNL     1       7.263   0.276  11.631  0.00  0.00    +0.000 HD
ATOM     39  H   UNL     1       6.572   0.468  10.164  0.00  0.00    +0.000 HD
ENDBRANCH  36  37
ENDBRANCH  33  36
ENDBRANCH  29  30
ENDBRANCH  27  29
ENDBRANCH   1  25
TORSDOF 14
ENDMDL
MODEL 3
REMARK VINA RESULT:      -8.1      0.944      1.293
REMARK  Name = 
REMARK  15 active torsions:
REMARK  status: ('A' for Active; 'I' for Inactive)
REMARK    1  A    between atoms: C_1  and  C_2
REMARK    2  A    between atoms: C_2  and  C_3
REMARK    3  A    between atoms: C_3  and  C_4
REMARK    4  A    between atoms: C_4  and  C_5
REMARK    5  A    between atoms: C_5  and  C_6
REMARK    6  A    between atoms: N_8  and  C_9
REMARK    7  A    between atoms: C_9  and  C_10
REMARK    8  A    between atoms: C_9  and  C_22
REMARK    9  A    between atoms: N_12  and  C_13
REMARK   10  A    between atoms: C_13  and  C_14
REMARK   11  A    between atoms: C_17  and  C_18
REMARK   12  A    between atoms: C_18  and  N_19
REMARK   13  A    between atoms: C_25  and  O_26
REMARK   14  A    between atoms: O_26  and  C_27
REMARK   15  A    between atoms: C_27  and  C_28
REMARK                            x       y       z     vdW  Elec       q    Type
REMARK                         _______ _______ _______ _____ _____    ______ ____
ROOT
ATOM      1  C   UNL     1       4.770   5.337  17.988  0.00  0.00    +0.000 C 
ENDROOT
BRANCH   1   2
ATOM      2  C   UNL     1       3.749   6.373  18.424  0.00  0.00    +0.000 A 
ATOM      3  C   UNL     1       3.471   7.431  17.560  0.00  0.00    +0.000 A 
ATOM      4  C   UNL     1       2.571   8.426  17.927  0.00  0.00    +0.000 A 
ATOM      5  C   UNL     1       1.908   8.349  19.146  0.00  0.00    +0.000 A 
ATOM      6  C   UNL     1       2.171   7.296  20.020  0.00  0.00    +0.000 A 
ATOM      7  C   UNL     1       3.082   6.301  19.658  0.00  0.00    +0.000 A 
BRANCH   5   8
ATOM      8  O   UNL     1       0.981   9.265  19.575  0.00  0.00    +0.000 OA
BRANCH   8   9
ATOM      9  C   UNL     1       0.409   8.971  20.853  0.00  0.00    +0.000 C 
BRANCH   9  10
ATOM     10  C   UNL     1      -0.406  10.149  21.306  0.00  0.00    +0.000 A 
ATOM     11  C   UNL     1      -0.627  10.384  22.671  0.00  0.00    +0.000 A 
ATOM     12  C   UNL     1      -1.369  11.493  23.074  0.00  0.00    +0.000 A 
ATOM     13  C   UNL     1      -1.880  12.376  22.129  0.00  0.00    +0.000 A 
ATOM     14  C   UNL     1      -1.649  12.161  20.772  0.00  0.00    +0.000 A 
ATOM     15  C   UNL     1      -0.911  11.053  20.362  0.00  0.00    +0.000 A 
ENDBRANCH   9  10
ENDBRANCH   8   9
ENDBRANCH   5   8
ENDBRANCH   1   2
BRANCH   1  18
ATOM     16  C   UNL     1       4.355   3.155  19.222  0.00  0.00    +0.000 C 
ATOM     17  O   UNL     1       4.743   2.411  20.118  0.00  0.00    +0.000 OA
ATOM     18  N   UNL     1       4.946   4.380  19.078  0.00  0.00    +0.000 N 
ATOM     19  H   UNL     1       5.665   4.571  19.769  0.00  0.00    +0.000 HD
BRANCH  16  20
ATOM     20  C   UNL     1       3.323   2.746  18.186  0.00  0.00    +0.000 C 
BRANCH  20  21
ATOM     21  C   UNL     1       2.232   1.852  18.773  0.00  0.00    +0.000 C 
BRANCH  21  22
ATOM     22  C   UNL     1       0.936   2.639  18.951  0.00  0.00    +0.000 C 
BRANCH  22  24
ATOM     23  C   UNL     1       1.412   2.686  21.417  0.00  0.00    +0.000 C 
ATOM     24  C   UNL     1       0.969   3.499  20.212  0.00  0.00    +0.000 C 
ENDBRANCH  22  24
ENDBRANCH  21  22
ENDBRANCH  20  21
ENDBRANCH  16  20
ENDBRANCH   1  18
BRANCH   1  25
ATOM     25  C   UNL     1       6.004   6.064  17.331  0.00  0.00    +0.000 C 
ATOM     26  O   UNL     1       6.861   6.613  18.032  0.00  0.00    +0.000 OA
ATOM     27  N   UNL     1       6.195   6.072  15.977  0.00  0.00    +0.000 N 
ATOM     28  H   UNL     1       6.979   6.635  15.669  0.00  0.00    +0.000 HD
BRANCH  27  29
ATOM     29  C   UNL     1       5.248   5.604  15.012  0.00  0.00    +0.000 C 
BRANCH  29  30
ATOM     30  C   UNL     1       5.753   4.632  14.013  0.00  0.00    +0.000 A 
ATOM     31  C   UNL     1       4.892   3.757  13.356  0.00  0.00    +0.000 A 
ATOM     32  C   UNL     1       5.386   2.956  12.332  0.00  0.00    +0.000 A 
ATOM     33  C   UNL     1       6.735   3.030  11.948  0.00  0.00    +0.000 A 
ATOM     34  C   UNL     1       7.596   3.890  12.634  0.00  0.00    +0.000 A 
ATOM     35  C   UNL     1       7.108   4.697  13.650  0.00  0.00    +0.000 A 
BRANCH  33  36
ATOM     36  C   UNL     1       7.240   2.139  10.846  0.00  0.00    +0.000 C 
BRANCH  36  37
ATOM     37  N   UNL     1       6.700   0.787  10.919  0.00  0.00    +0.000 NA
ATOM     38  H   UNL     1       6.587   0.534  11.901  0.00  0.00    +0.000 HD
ATOM     39  H   UNL     1       7.377   0.138  10.528  0.00  0.00    +0.000 HD
ENDBRANCH  36  37
ENDBRANCH  33  36
ENDBRANCH  29  30
ENDBRANCH  27  29
ENDBRANCH   1  25
TORSDOF 14
ENDMDL
MODEL 4
REMARK VINA RESULT:      -7.9      1.071      1.543
REMARK  Name = 
REMARK  15 active torsions:
REMARK  status: ('A' for Active; 'I' for Inactive)
REMARK    1  A    between atoms: C_1  and  C_2
REMARK    2  A    between atoms: C_2  and  C_3
REMARK    3  A    between atoms: C_3  and  C_4
REMARK    4  A    between atoms: C_4  and  C_5
REMARK    5  A    between atoms: C_5  and  C_6
REMARK    6  A    between atoms: N_8  and  C_9
REMARK    7  A    between atoms: C_9  and  C_10
REMARK    8  A    between atoms: C_9  and  C_22
REMARK    9  A    between atoms: N_12  and  C_13
REMARK   10  A    between atoms: C_13  and  C_14
REMARK   11  A    between atoms: C_17  and  C_18
REMARK   12  A    between atoms: C_18  and  N_19
REMARK   13  A    between atoms: C_25  and  O_26
REMARK   14  A    between atoms: O_26  and  C_27
REMARK   15  A    between atoms: C_27  and  C_28
REMARK                            x       y       z     vdW  Elec       q    Type
REMARK                         _______ _______ _______ _____ _____    ______ ____
ROOT
ATOM      1  C   UNL     1       5.178   4.175  17.703  0.00  0.00    +0.000 C 
ENDROOT
BRANCH   1   2
ATOM      2  C   UNL     1       4.266   5.274  18.219  0.00  0.00    +0.000 A 
ATOM      3  C   UNL     1       4.064   5.373  19.595  0.00  0.00    +0.000 A 
ATOM      4  C   UNL     1       3.210   6.339  20.116  0.00  0.00    +0.000 A 
ATOM      5  C   UNL     1       2.582   7.244  19.268  0.00  0.00    +0.000 A 
ATOM      6  C   UNL     1       2.776   7.162  17.890  0.00  0.00    +0.000 A 
ATOM      7  C   UNL     1       3.626   6.185  17.363  0.00  0.00    +0.000 A 
BRANCH   5   8
ATOM      8  O   UNL     1       1.751   8.248  19.696  0.00  0.00    +0.000 OA
BRANCH   8   9
ATOM      9  C   UNL     1       1.404   9.197  18.684  0.00  0.00    +0.000 C 
BRANCH   9  10
ATOM     10  C   UNL     1       0.348  10.120  19.221  0.00  0.00    +0.000 A 
ATOM     11  C   UNL     1       0.426  10.613  20.532  0.00  0.00    +0.000 A 
ATOM     12  C   UNL     1      -0.553  11.484  21.007  0.00  0.00    +0.000 A 
ATOM     13  C   UNL     1      -1.600  11.879  20.182  0.00  0.00    +0.000 A 
ATOM     14  C   UNL     1      -1.676  11.410  18.871  0.00  0.00    +0.000 A 
ATOM     15  C   UNL     1      -0.703  10.537  18.392  0.00  0.00    +0.000 A 
ENDBRANCH   9  10
ENDBRANCH   8   9
ENDBRANCH   5   8
ENDBRANCH   1   2
BRANCH   1  18
ATOM     16  C   UNL     1       3.682   2.223  18.343  0.00  0.00    +0.000 C 
ATOM     17  O   UNL     1       3.635   1.116  18.873  0.00  0.00    +0.000 OA
ATOM     18  N   UNL     1       4.847   2.936  18.406  0.00  0.00    +0.000 N 
ATOM     19  H   UNL     1       5.585   2.471  18.924  0.00  0.00    +0.000 HD
BRANCH  16  20
ATOM     20  C   UNL     1       2.545   2.803  17.520  0.00  0.00    +0.000 C 
BRANCH  20  21
ATOM     21  C   UNL     1       1.195   2.681  18.224  0.00  0.00    +0.000 C 
BRANCH  21  22
ATOM     22  C   UNL     1       1.142   3.605  19.439  0.00  0.00    +0.000 C 
BRANCH  22  24
ATOM     23  C   UNL     1       2.185   3.072  21.663  0.00  0.00    +0.000 C 
ATOM     24  C   UNL     1       1.005   2.815  20.739  0.00  0.00    +0.000 C 
ENDBRANCH  22  24
ENDBRANCH  21  22
ENDBRANCH  20  21
ENDBRANCH  16  20
ENDBRANCH   1  18
BRANCH   1  25
ATOM     25  C   UNL     1       6.658   4.710  17.644  0.00  0.00    +0.000 C 
ATOM     26  O   UNL     1       7.455   4.468  18.557  0.00  0.00    +0.000 OA
ATOM     27  N   UNL     1       7.125   5.413  16.568  0.00  0.00    +0.000 N 
ATOM     28  H   UNL     1       8.067   5.770  16.678  0.00  0.00    +0.000 HD
BRANCH  27  29
ATOM     29  C   UNL     1       6.317   5.894  15.489  0.00  0.00    +0.000 C 
BRANCH  29  30
ATOM     30  C   UNL     1       6.268   5.043  14.275  0.00  0.00    +0.000 A 
ATOM     31  C   UNL     1       7.342   4.981  13.393  0.00  0.00    +0.000 A 
ATOM     32  C   UNL     1       7.307   4.071  12.341  0.00  0.00    +0.000 A 
ATOM     33  C   UNL     1       6.209   3.212  12.170  0.00  0.00    +0.000 A 
ATOM     34  C   UNL     1       5.124   3.305  13.044  0.00  0.00    +0.000 A 
ATOM     35  C   UNL     1       5.157   4.203  14.100  0.00  0.00    +0.000 A 
BRANCH  33  36
ATOM     36  C   UNL     1       6.197   2.249  11.013  0.00  0.00    +0.000 C 
BRANCH  36  37
ATOM     37  N   UNL     1       6.896   1.003  11.307  0.00  0.00    +0.000 NA
ATOM     38  H   UNL     1       7.883   1.211  11.459  0.00  0.00    +0.000 HD
ATOM     39  H   UNL     1       6.848   0.397  10.493  0.00  0.00    +0.000 HD
ENDBRANCH  36  37
ENDBRANCH  33  36
ENDBRANCH  29  30
ENDBRANCH  27  29
ENDBRANCH   1  25
TORSDOF 14
ENDMDL
MODEL 5
REMARK VINA RESULT:      -7.9      5.374     11.762
REMARK  Name = 
REMARK  15 active torsions:
REMARK  status: ('A' for Active; 'I' for Inactive)
REMARK    1  A    between atoms: C_1  and  C_2
REMARK    2  A    between atoms: C_2  and  C_3
REMARK    3  A    between atoms: C_3  and  C_4
REMARK    4  A    between atoms: C_4  and  C_5
REMARK    5  A    between atoms: C_5  and  C_6
REMARK    6  A    between atoms: N_8  and  C_9
REMARK    7  A    between atoms: C_9  and  C_10
REMARK    8  A    between atoms: C_9  and  C_22
REMARK    9  A    between atoms: N_12  and  C_13
REMARK   10  A    between atoms: C_13  and  C_14
REMARK   11  A    between atoms: C_17  and  C_18
REMARK   12  A    between atoms: C_18  and  N_19
REMARK   13  A    between atoms: C_25  and  O_26
REMARK   14  A    between atoms: O_26  and  C_27
REMARK   15  A    between atoms: C_27  and  C_28
REMARK                            x       y       z     vdW  Elec       q    Type
REMARK                         _______ _______ _______ _____ _____    ______ ____
ROOT
ATOM      1  C   UNL     1      -0.916  11.106  18.702  0.00  0.00    +0.000 C 
ENDROOT
BRANCH   1   2
ATOM      2  C   UNL     1       0.138  10.026  18.862  0.00  0.00    +0.000 A 
ATOM      3  C   UNL     1       0.314   9.457  20.123  0.00  0.00    +0.000 A 
ATOM      4  C   UNL     1       1.291   8.490  20.331  0.00  0.00    +0.000 A 
ATOM      5  C   UNL     1       2.074   8.051  19.270  0.00  0.00    +0.000 A 
ATOM      6  C   UNL     1       1.909   8.606  18.002  0.00  0.00    +0.000 A 
ATOM      7  C   UNL     1       0.934   9.586  17.792  0.00  0.00    +0.000 A 
BRANCH   5   8
ATOM      8  O   UNL     1       3.037   7.079  19.376  0.00  0.00    +0.000 OA
BRANCH   8   9
ATOM      9  C   UNL     1       2.953   6.056  18.381  0.00  0.00    +0.000 C 
BRANCH   9  10
ATOM     10  C   UNL     1       2.190   4.889  18.942  0.00  0.00    +0.000 A 
ATOM     11  C   UNL     1       1.639   3.919  18.093  0.00  0.00    +0.000 A 
ATOM     12  C   UNL     1       0.951   2.833  18.632  0.00  0.00    +0.000 A 
ATOM     13  C   UNL     1       0.821   2.700  20.010  0.00  0.00    +0.000 A 
ATOM     14  C   UNL     1       1.383   3.649  20.862  0.00  0.00    +0.000 A 
ATOM     15  C   UNL     1       2.068   4.737  20.330  0.00  0.00    +0.000 A 
ENDBRANCH   9  10
ENDBRANCH   8   9
ENDBRANCH   5   8
ENDBRANCH   1   2
BRANCH   1  18
ATOM     16  C   UNL     1      -2.583  10.925  16.792  0.00  0.00    +0.000 C 
ATOM     17  O   UNL     1      -2.787  11.151  15.602  0.00  0.00    +0.000 OA
ATOM     18  N   UNL     1      -1.332  11.138  17.300  0.00  0.00    +0.000 N 
ATOM     19  H   UNL     1      -0.658  11.456  16.611  0.00  0.00    +0.000 HD
BRANCH  16  20
ATOM     20  C   UNL     1      -3.678  10.523  17.764  0.00  0.00    +0.000 C 
BRANCH  20  21
ATOM     21  C   UNL     1      -4.601  11.687  18.115  0.00  0.00    +0.000 C 
BRANCH  21  22
ATOM     22  C   UNL     1      -6.059  11.309  17.858  0.00  0.00    +0.000 C 
BRANCH  22  24
ATOM     23  C   UNL     1      -7.221  11.017  20.066  0.00  0.00    +0.000 C 
ATOM     24  C   UNL     1      -6.570  10.307  18.890  0.00  0.00    +0.000 C 
ENDBRANCH  22  24
ENDBRANCH  21  22
ENDBRANCH  20  21
ENDBRANCH  16  20
ENDBRANCH   1  18
BRANCH   1  25
ATOM     25  C   UNL     1      -0.442  12.413  19.443  0.00  0.00    +0.000 C 
ATOM     26  O   UNL     1       0.399  13.160  18.931  0.00  0.00    +0.000 OA
ATOM     27  N   UNL     1      -0.976  12.791  20.644  0.00  0.00    +0.000 N 
ATOM     28  H   UNL     1      -0.538  13.606  21.058  0.00  0.00    +0.000 HD
BRANCH  27  29
ATOM     29  C   UNL     1      -1.857  11.991  21.438  0.00  0.00    +0.000 C 
BRANCH  29  30
ATOM     30  C   UNL     1      -2.950  12.711  22.135  0.00  0.00    +0.000 A 
ATOM     31  C   UNL     1      -2.707  13.452  23.287  0.00  0.00    +0.000 A 
ATOM     32  C   UNL     1      -3.732  14.219  23.831  0.00  0.00    +0.000 A 
ATOM     33  C   UNL     1      -4.999  14.261  23.226  0.00  0.00    +0.000 A 
ATOM     34  C   UNL     1      -5.239  13.489  22.087  0.00  0.00    +0.000 A 
ATOM     35  C   UNL     1      -4.219  12.730  21.534  0.00  0.00    +0.000 A 
BRANCH  33  36
ATOM     36  C   UNL     1      -6.089  15.090  23.849  0.00  0.00    +0.000 C 
BRANCH  36  37
ATOM     37  N   UNL     1      -7.183  14.281  24.377  0.00  0.00    +0.000 NA
ATOM     38  H   UNL     1      -7.892  14.905  24.762  0.00  0.00    +0.000 HD
ATOM     39  H   UNL     1      -6.837  13.722  25.152  0.00  0.00    +0.000 HD
ENDBRANCH  36  37
ENDBRANCH  33  36
ENDBRANCH  29  30
ENDBRANCH  27  29
ENDBRANCH   1  25
TORSDOF 14
ENDMDL
MODEL 6
REMARK VINA RESULT:      -7.8      5.044     11.475
REMARK  Name = 
REMARK  15 active torsions:
REMARK  status: ('A' for Active; 'I' for Inactive)
REMARK    1  A    between atoms: C_1  and  C_2
REMARK    2  A    between atoms: C_2  and  C_3
REMARK    3  A    between atoms: C_3  and  C_4
REMARK    4  A    between atoms: C_4  and  C_5
REMARK    5  A    between atoms: C_5  and  C_6
REMARK    6  A    between atoms: N_8  and  C_9
REMARK    7  A    between atoms: C_9  and  C_10
REMARK    8  A    between atoms: C_9  and  C_22
REMARK    9  A    between atoms: N_12  and  C_13
REMARK   10  A    between atoms: C_13  and  C_14
REMARK   11  A    between atoms: C_17  and  C_18
REMARK   12  A    between atoms: C_18  and  N_19
REMARK   13  A    between atoms: C_25  and  O_26
REMARK   14  A    between atoms: O_26  and  C_27
REMARK   15  A    between atoms: C_27  and  C_28
REMARK                            x       y       z     vdW  Elec       q    Type
REMARK                         _______ _______ _______ _____ _____    ______ ____
ROOT
ATOM      1  C   UNL     1      -0.477  11.162  18.990  0.00  0.00    +0.000 C 
ENDROOT
BRANCH   1   2
ATOM      2  C   UNL     1       0.488   9.991  18.978  0.00  0.00    +0.000 A 
ATOM      3  C   UNL     1       0.716   9.311  20.174  0.00  0.00    +0.000 A 
ATOM      4  C   UNL     1       1.619   8.254  20.224  0.00  0.00    +0.000 A 
ATOM      5  C   UNL     1       2.270   7.838  19.069  0.00  0.00    +0.000 A 
ATOM      6  C   UNL     1       2.051   8.504  17.865  0.00  0.00    +0.000 A 
ATOM      7  C   UNL     1       1.152   9.573  17.813  0.00  0.00    +0.000 A 
BRANCH   5   8
ATOM      8  O   UNL     1       3.149   6.786  19.019  0.00  0.00    +0.000 OA
BRANCH   8   9
ATOM      9  C   UNL     1       2.765   5.739  18.125  0.00  0.00    +0.000 C 
BRANCH   9  10
ATOM     10  C   UNL     1       2.140   4.625  18.917  0.00  0.00    +0.000 A 
ATOM     11  C   UNL     1       1.434   3.598  18.274  0.00  0.00    +0.000 A 
ATOM     12  C   UNL     1       0.878   2.562  19.023  0.00  0.00    +0.000 A 
ATOM     13  C   UNL     1       1.032   2.535  20.405  0.00  0.00    +0.000 A 
ATOM     14  C   UNL     1       1.749   3.542  21.050  0.00  0.00    +0.000 A 
ATOM     15  C   UNL     1       2.304   4.580  20.308  0.00  0.00    +0.000 A 
ENDBRANCH   9  10
ENDBRANCH   8   9
ENDBRANCH   5   8
ENDBRANCH   1   2
BRANCH   1  18
ATOM     16  C   UNL     1      -2.671  11.407  17.732  0.00  0.00    +0.000 C 
ATOM     17  O   UNL     1      -3.213  11.389  16.630  0.00  0.00    +0.000 OA
ATOM     18  N   UNL     1      -1.357  11.044  17.828  0.00  0.00    +0.000 N 
ATOM     19  H   UNL     1      -0.944  10.762  16.945  0.00  0.00    +0.000 HD
BRANCH  16  20
ATOM     20  C   UNL     1      -3.353  11.921  18.988  0.00  0.00    +0.000 C 
BRANCH  20  21
ATOM     21  C   UNL     1      -4.876  11.911  18.869  0.00  0.00    +0.000 C 
BRANCH  21  22
ATOM     22  C   UNL     1      -5.500  12.808  19.935  0.00  0.00    +0.000 C 
BRANCH  22  24
ATOM     23  C   UNL     1      -7.122  10.899  20.131  0.00  0.00    +0.000 C 
ATOM     24  C   UNL     1      -6.409  12.018  20.873  0.00  0.00    +0.000 C 
ENDBRANCH  22  24
ENDBRANCH  21  22
ENDBRANCH  20  21
ENDBRANCH  16  20
ENDBRANCH   1  18
BRANCH   1  25
ATOM     25  C   UNL     1       0.318  12.491  19.281  0.00  0.00    +0.000 C 
ATOM     26  O   UNL     1       0.890  13.098  18.369  0.00  0.00    +0.000 OA
ATOM     27  N   UNL     1       0.362  13.042  20.532  0.00  0.00    +0.000 N 
ATOM     28  H   UNL     1       0.966  13.851  20.611  0.00  0.00    +0.000 HD
BRANCH  27  29
ATOM     29  C   UNL     1      -0.127  12.415  21.722  0.00  0.00    +0.000 C 
BRANCH  29  30
ATOM     30  C   UNL     1      -1.493  12.799  22.153  0.00  0.00    +0.000 A 
ATOM     31  C   UNL     1      -2.254  11.967  22.970  0.00  0.00    +0.000 A 
ATOM     32  C   UNL     1      -3.473  12.424  23.459  0.00  0.00    +0.000 A 
ATOM     33  C   UNL     1      -3.937  13.713  23.147  0.00  0.00    +0.000 A 
ATOM     34  C   UNL     1      -3.179  14.527  22.302  0.00  0.00    +0.000 A 
ATOM     35  C   UNL     1      -1.958  14.081  21.818  0.00  0.00    +0.000 A 
BRANCH  33  36
ATOM     36  C   UNL     1      -5.267  14.169  23.682  0.00  0.00    +0.000 C 
BRANCH  36  37
ATOM     37  N   UNL     1      -5.906  15.167  22.831  0.00  0.00    +0.000 NA
ATOM     38  H   UNL     1      -6.917  15.071  22.920  0.00  0.00    +0.000 HD
ATOM     39  H   UNL     1      -5.679  14.968  21.860  0.00  0.00    +0.000 HD
ENDBRANCH  36  37
ENDBRANCH  33  36
ENDBRANCH  29  30
ENDBRANCH  27  29
ENDBRANCH   1  25
TORSDOF 14
ENDMDL
MODEL 7
REMARK VINA RESULT:      -7.8      0.808      1.205
REMARK  Name = 
REMARK  15 active torsions:
REMARK  status: ('A' for Active; 'I' for Inactive)
REMARK    1  A    between atoms: C_1  and  C_2
REMARK    2  A    between atoms: C_2  and  C_3
REMARK    3  A    between atoms: C_3  and  C_4
REMARK    4  A    between atoms: C_4  and  C_5
REMARK    5  A    between atoms: C_5  and  C_6
REMARK    6  A    between atoms: N_8  and  C_9
REMARK    7  A    between atoms: C_9  and  C_10
REMARK    8  A    between atoms: C_9  and  C_22
REMARK    9  A    between atoms: N_12  and  C_13
REMARK   10  A    between atoms: C_13  and  C_14
REMARK   11  A    between atoms: C_17  and  C_18
REMARK   12  A    between atoms: C_18  and  N_19
REMARK   13  A    between atoms: C_25  and  O_26
REMARK   14  A    between atoms: O_26  and  C_27
REMARK   15  A    between atoms: C_27  and  C_28
REMARK                            x       y       z     vdW  Elec       q    Type
REMARK                         _______ _______ _______ _____ _____    ______ ____
ROOT
ATOM      1  C   UNL     1       5.371   4.570  18.289  0.00  0.00    +0.000 C 
ENDROOT
BRANCH   1   2
ATOM      2  C   UNL     1       4.322   5.644  18.511  0.00  0.00    +0.000 A 
ATOM      3  C   UNL     1       4.034   6.514  17.460  0.00  0.00    +0.000 A 
ATOM      4  C   UNL     1       3.107   7.538  17.624  0.00  0.00    +0.000 A 
ATOM      5  C   UNL     1       2.426   7.675  18.828  0.00  0.00    +0.000 A 
ATOM      6  C   UNL     1       2.698   6.811  19.887  0.00  0.00    +0.000 A 
ATOM      7  C   UNL     1       3.637   5.788  19.729  0.00  0.00    +0.000 A 
BRANCH   5   8
ATOM      8  O   UNL     1       1.473   8.632  19.066  0.00  0.00    +0.000 OA
BRANCH   8   9
ATOM      9  C   UNL     1       0.936   8.611  20.392  0.00  0.00    +0.000 C 
BRANCH   9  10
ATOM     10  C   UNL     1       0.114   9.851  20.605  0.00  0.00    +0.000 A 
ATOM     11  C   UNL     1       0.200  10.569  21.807  0.00  0.00    +0.000 A 
ATOM     12  C   UNL     1      -0.554  11.728  21.980  0.00  0.00    +0.000 A 
ATOM     13  C   UNL     1      -1.382  12.185  20.961  0.00  0.00    +0.000 A 
ATOM     14  C   UNL     1      -1.459  11.489  19.756  0.00  0.00    +0.000 A 
ATOM     15  C   UNL     1      -0.710  10.329  19.577  0.00  0.00    +0.000 A 
ENDBRANCH   9  10
ENDBRANCH   8   9
ENDBRANCH   5   8
ENDBRANCH   1   2
BRANCH   1  18
ATOM     16  C   UNL     1       4.303   2.361  18.949  0.00  0.00    +0.000 C 
ATOM     17  O   UNL     1       4.304   1.440  19.761  0.00  0.00    +0.000 OA
ATOM     18  N   UNL     1       5.086   3.456  19.191  0.00  0.00    +0.000 N 
ATOM     19  H   UNL     1       5.599   3.408  20.066  0.00  0.00    +0.000 HD
BRANCH  16  20
ATOM     20  C   UNL     1       3.559   2.307  17.627  0.00  0.00    +0.000 C 
BRANCH  20  21
ATOM     21  C   UNL     1       2.050   2.159  17.813  0.00  0.00    +0.000 C 
BRANCH  21  22
ATOM     22  C   UNL     1       1.498   3.318  18.640  0.00  0.00    +0.000 C 
BRANCH  22  24
ATOM     23  C   UNL     1       1.432   3.413  21.150  0.00  0.00    +0.000 C 
ATOM     24  C   UNL     1       0.795   2.824  19.902  0.00  0.00    +0.000 C 
ENDBRANCH  22  24
ENDBRANCH  21  22
ENDBRANCH  20  21
ENDBRANCH  16  20
ENDBRANCH   1  18
BRANCH   1  25
ATOM     25  C   UNL     1       6.798   5.237  18.240  0.00  0.00    +0.000 C 
ATOM     26  O   UNL     1       7.573   5.142  19.198  0.00  0.00    +0.000 OA
ATOM     27  N   UNL     1       7.245   5.896  17.128  0.00  0.00    +0.000 N 
ATOM     28  H   UNL     1       8.144   6.348  17.243  0.00  0.00    +0.000 HD
BRANCH  27  29
ATOM     29  C   UNL     1       6.443   6.213  15.986  0.00  0.00    +0.000 C 
BRANCH  29  30
ATOM     30  C   UNL     1       6.487   5.245  14.863  0.00  0.00    +0.000 A 
ATOM     31  C   UNL     1       5.459   4.328  14.659  0.00  0.00    +0.000 A 
ATOM     32  C   UNL     1       5.475   3.531  13.519  0.00  0.00    +0.000 A 
ATOM     33  C   UNL     1       6.505   3.650  12.572  0.00  0.00    +0.000 A 
ATOM     34  C   UNL     1       7.546   4.552  12.802  0.00  0.00    +0.000 A 
ATOM     35  C   UNL     1       7.532   5.356  13.932  0.00  0.00    +0.000 A 
BRANCH  33  36
ATOM     36  C   UNL     1       6.499   2.762  11.358  0.00  0.00    +0.000 C 
BRANCH  36  37
ATOM     37  N   UNL     1       6.034   1.410  11.648  0.00  0.00    +0.000 NA
ATOM     38  H   UNL     1       6.647   0.747  11.173  0.00  0.00    +0.000 HD
ATOM     39  H   UNL     1       5.107   1.286  11.250  0.00  0.00    +0.000 HD
ENDBRANCH  36  37
ENDBRANCH  33  36
ENDBRANCH  29  30
ENDBRANCH  27  29
ENDBRANCH   1  25
TORSDOF 14
ENDMDL
MODEL 8
REMARK VINA RESULT:      -7.7      1.623      1.739
REMARK  Name = 
REMARK  15 active torsions:
REMARK  status: ('A' for Active; 'I' for Inactive)
REMARK    1  A    between atoms: C_1  and  C_2
REMARK    2  A    between atoms: C_2  and  C_3
REMARK    3  A    between atoms: C_3  and  C_4
REMARK    4  A    between atoms: C_4  and  C_5
REMARK    5  A    between atoms: C_5  and  C_6
REMARK    6  A    between atoms: N_8  and  C_9
REMARK    7  A    between atoms: C_9  and  C_10
REMARK    8  A    between atoms: C_9  and  C_22
REMARK    9  A    between atoms: N_12  and  C_13
REMARK   10  A    between atoms: C_13  and  C_14
REMARK   11  A    between atoms: C_17  and  C_18
REMARK   12  A    between atoms: C_18  and  N_19
REMARK   13  A    between atoms: C_25  and  O_26
REMARK   14  A    between atoms: O_26  and  C_27
REMARK   15  A    between atoms: C_27  and  C_28
REMARK                            x       y       z     vdW  Elec       q    Type
REMARK                         _______ _______ _______ _____ _____    ______ ____
ROOT
ATOM      1  C   UNL     1       5.478   4.438  18.095  0.00  0.00    +0.000 C 
ENDROOT
BRANCH   1   2
ATOM      2  C   UNL     1       4.457   5.526  18.374  0.00  0.00    +0.000 A 
ATOM      3  C   UNL     1       4.131   6.406  17.342  0.00  0.00    +0.000 A 
ATOM      4  C   UNL     1       3.228   7.442  17.557  0.00  0.00    +0.000 A 
ATOM      5  C   UNL     1       2.610   7.583  18.794  0.00  0.00    +0.000 A 
ATOM      6  C   UNL     1       2.921   6.709  19.834  0.00  0.00    +0.000 A 
ATOM      7  C   UNL     1       3.835   5.673  19.625  0.00  0.00    +0.000 A 
BRANCH   5   8
ATOM      8  O   UNL     1       1.684   8.553  19.084  0.00  0.00    +0.000 OA
BRANCH   8   9
ATOM      9  C   UNL     1       1.760   9.709  18.246  0.00  0.00    +0.000 C 
BRANCH   9  10
ATOM     10  C   UNL     1       0.476  10.482  18.362  0.00  0.00    +0.000 A 
ATOM     11  C   UNL     1      -0.750   9.888  18.029  0.00  0.00    +0.000 A 
ATOM     12  C   UNL     1      -1.933  10.613  18.162  0.00  0.00    +0.000 A 
ATOM     13  C   UNL     1      -1.904  11.920  18.639  0.00  0.00    +0.000 A 
ATOM     14  C   UNL     1      -0.692  12.511  18.991  0.00  0.00    +0.000 A 
ATOM     15  C   UNL     1       0.493  11.793  18.858  0.00  0.00    +0.000 A 
ENDBRANCH   9  10
ENDBRANCH   8   9
ENDBRANCH   5   8
ENDBRANCH   1   2
BRANCH   1  18
ATOM     16  C   UNL     1       4.386   2.328  18.997  0.00  0.00    +0.000 C 
ATOM     17  O   UNL     1       4.466   1.421  19.821  0.00  0.00    +0.000 OA
ATOM     18  N   UNL     1       5.279   3.362  19.064  0.00  0.00    +0.000 N 
ATOM     19  H   UNL     1       5.936   3.287  19.834  0.00  0.00    +0.000 HD
BRANCH  16  20
ATOM     20  C   UNL     1       3.413   2.313  17.831  0.00  0.00    +0.000 C 
BRANCH  20  21
ATOM     21  C   UNL     1       1.961   2.191  18.286  0.00  0.00    +0.000 C 
BRANCH  21  22
ATOM     22  C   UNL     1       1.330   3.574  18.434  0.00  0.00    +0.000 C 
BRANCH  22  24
ATOM     23  C   UNL     1       1.337   2.834  20.835  0.00  0.00    +0.000 C 
ATOM     24  C   UNL     1       0.699   3.760  19.812  0.00  0.00    +0.000 C 
ENDBRANCH  22  24
ENDBRANCH  21  22
ENDBRANCH  20  21
ENDBRANCH  16  20
ENDBRANCH   1  18
BRANCH   1  25
ATOM     25  C   UNL     1       6.894   5.094  17.882  0.00  0.00    +0.000 C 
ATOM     26  O   UNL     1       7.780   4.976  18.736  0.00  0.00    +0.000 OA
ATOM     27  N   UNL     1       7.208   5.768  16.734  0.00  0.00    +0.000 N 
ATOM     28  H   UNL     1       8.120   6.211  16.745  0.00  0.00    +0.000 HD
BRANCH  27  29
ATOM     29  C   UNL     1       6.276   6.112  15.704  0.00  0.00    +0.000 C 
BRANCH  29  30
ATOM     30  C   UNL     1       6.214   5.193  14.542  0.00  0.00    +0.000 A 
ATOM     31  C   UNL     1       7.329   4.965  13.740  0.00  0.00    +0.000 A 
ATOM     32  C   UNL     1       7.264   3.997  12.744  0.00  0.00    +0.000 A 
ATOM     33  C   UNL     1       6.094   3.243  12.547  0.00  0.00    +0.000 A 
ATOM     34  C   UNL     1       4.973   3.502  13.338  0.00  0.00    +0.000 A 
ATOM     35  C   UNL     1       5.034   4.460  14.339  0.00  0.00    +0.000 A 
BRANCH  33  36
ATOM     36  C   UNL     1       6.054   2.214  11.451  0.00  0.00    +0.000 C 
BRANCH  36  37
ATOM     37  N   UNL     1       7.337   1.550  11.251  0.00  0.00    +0.000 NA
ATOM     38  H   UNL     1       7.966   1.823  12.006  0.00  0.00    +0.000 HD
ATOM     39  H   UNL     1       7.754   1.888  10.388  0.00  0.00    +0.000 HD
ENDBRANCH  36  37
ENDBRANCH  33  36
ENDBRANCH  29  30
ENDBRANCH  27  29
ENDBRANCH   1  25
TORSDOF 14
ENDMDL
MODEL 9
REMARK VINA RESULT:      -7.7      4.857     11.533
REMARK  Name = 
REMARK  15 active torsions:
REMARK  status: ('A' for Active; 'I' for Inactive)
REMARK    1  A    between atoms: C_1  and  C_2
REMARK    2  A    between atoms: C_2  and  C_3
REMARK    3  A    between atoms: C_3  and  C_4
REMARK    4  A    between atoms: C_4  and  C_5
REMARK    5  A    between atoms: C_5  and  C_6
REMARK    6  A    between atoms: N_8  and  C_9
REMARK    7  A    between atoms: C_9  and  C_10
REMARK    8  A    between atoms: C_9  and  C_22
REMARK    9  A    between atoms: N_12  and  C_13
REMARK   10  A    between atoms: C_13  and  C_14
REMARK   11  A    between atoms: C_17  and  C_18
REMARK   12  A    between atoms: C_18  and  N_19
REMARK   13  A    between atoms: C_25  and  O_26
REMARK   14  A    between atoms: O_26  and  C_27
REMARK   15  A    between atoms: C_27  and  C_28
REMARK                            x       y       z     vdW  Elec       q    Type
REMARK                         _______ _______ _______ _____ _____    ______ ____
ROOT
ATOM      1  C   UNL     1      -0.216  10.715  18.849  0.00  0.00    +0.000 C 
ENDROOT
BRANCH   1   2
ATOM      2  C   UNL     1       0.768   9.559  18.872  0.00  0.00    +0.000 A 
ATOM      3  C   UNL     1       0.934   8.856  20.065  0.00  0.00    +0.000 A 
ATOM      4  C   UNL     1       1.849   7.812  20.148  0.00  0.00    +0.000 A 
ATOM      5  C   UNL     1       2.577   7.433  19.027  0.00  0.00    +0.000 A 
ATOM      6  C   UNL     1       2.421   8.122  17.826  0.00  0.00    +0.000 A 
ATOM      7  C   UNL     1       1.510   9.178  17.741  0.00  0.00    +0.000 A 
BRANCH   5   8
ATOM      8  O   UNL     1       3.475   6.396  19.009  0.00  0.00    +0.000 OA
BRANCH   8   9
ATOM      9  C   UNL     1       3.264   5.452  17.956  0.00  0.00    +0.000 C 
BRANCH   9  10
ATOM     10  C   UNL     1       4.557   5.241  17.221  0.00  0.00    +0.000 A 
ATOM     11  C   UNL     1       5.629   6.130  17.388  0.00  0.00    +0.000 A 
ATOM     12  C   UNL     1       6.829   5.907  16.714  0.00  0.00    +0.000 A 
ATOM     13  C   UNL     1       6.973   4.799  15.887  0.00  0.00    +0.000 A 
ATOM     14  C   UNL     1       5.919   3.900  15.730  0.00  0.00    +0.000 A 
ATOM     15  C   UNL     1       4.718   4.118  16.398  0.00  0.00    +0.000 A 
ENDBRANCH   9  10
ENDBRANCH   8   9
ENDBRANCH   5   8
ENDBRANCH   1   2
BRANCH   1  18
ATOM     16  C   UNL     1      -2.173  10.993  17.253  0.00  0.00    +0.000 C 
ATOM     17  O   UNL     1      -2.509  11.140  16.081  0.00  0.00    +0.000 OA
ATOM     18  N   UNL     1      -0.859  10.745  17.536  0.00  0.00    +0.000 N 
ATOM     19  H   UNL     1      -0.267  10.683  16.714  0.00  0.00    +0.000 HD
BRANCH  16  20
ATOM     20  C   UNL     1      -3.122  11.182  18.423  0.00  0.00    +0.000 C 
BRANCH  20  21
ATOM     21  C   UNL     1      -4.428  11.858  18.011  0.00  0.00    +0.000 C 
BRANCH  21  22
ATOM     22  C   UNL     1      -5.626  11.089  18.564  0.00  0.00    +0.000 C 
BRANCH  22  24
ATOM     23  C   UNL     1      -7.286  10.902  20.441  0.00  0.00    +0.000 C 
ATOM     24  C   UNL     1      -6.179  11.744  19.827  0.00  0.00    +0.000 C 
ENDBRANCH  22  24
ENDBRANCH  21  22
ENDBRANCH  20  21
ENDBRANCH  16  20
ENDBRANCH   1  18
BRANCH   1  25
ATOM     25  C   UNL     1       0.472  11.998  19.450  0.00  0.00    +0.000 C 
ATOM     26  O   UNL     1       1.219  12.699  18.758  0.00  0.00    +0.000 OA
ATOM     27  N   UNL     1       0.233  12.407  20.733  0.00  0.00    +0.000 N 
ATOM     28  H   UNL     1       0.791  13.199  21.031  0.00  0.00    +0.000 HD
BRANCH  27  29
ATOM     29  C   UNL     1      -0.493  11.656  21.711  0.00  0.00    +0.000 C 
BRANCH  29  30
ATOM     30  C   UNL     1      -1.821  12.190  22.098  0.00  0.00    +0.000 A 
ATOM     31  C   UNL     1      -2.406  11.859  23.317  0.00  0.00    +0.000 A 
ATOM     32  C   UNL     1      -3.588  12.487  23.697  0.00  0.00    +0.000 A 
ATOM     33  C   UNL     1      -4.187  13.453  22.873  0.00  0.00    +0.000 A 
ATOM     34  C   UNL     1      -3.607  13.755  21.639  0.00  0.00    +0.000 A 
ATOM     35  C   UNL     1      -2.424  13.140  21.258  0.00  0.00    +0.000 A 
BRANCH  33  36
ATOM     36  C   UNL     1      -5.472  14.102  23.308  0.00  0.00    +0.000 C 
BRANCH  36  37
ATOM     37  N   UNL     1      -6.206  13.305  24.285  0.00  0.00    +0.000 NA
ATOM     38  H   UNL     1      -6.705  12.564  23.792  0.00  0.00    +0.000 HD
ATOM     39  H   UNL     1      -6.912  13.888  24.726  0.00  0.00    +0.000 HD
ENDBRANCH  36  37
ENDBRANCH  33  36
ENDBRANCH  29  30
ENDBRANCH  27  29
ENDBRANCH   1  25
TORSDOF 14
ENDMDL
