MODEL 1
REMARK VINA RESULT:      -6.3      0.000      0.000
REMARK  Name = 
REMARK  10 active torsions:
REMARK  status: ('A' for Active; 'I' for Inactive)
REMARK    1  A    between atoms: C_1  and  C_2
REMARK    2  A    between atoms: C_2  and  C_3
REMARK    3  A    between atoms: C_3  and  C_4
REMARK    4  A    between atoms: C_3  and  C_5
REMARK    5  A    between atoms: C_5  and  N_6
REMARK    6  A    between atoms: C_5  and  C_7
REMARK    7  A    between atoms: C_14  and  C_15
REMARK    8  A    between atoms: C_23  and  C_24
REMARK    9  A    between atoms: C_24  and  C_25
REMARK   10  A    between atoms: C_24  and  C_26
REMARK                            x       y       z     vdW  Elec       q    Type
REMARK                         _______ _______ _______ _____ _____    ______ ____
ROOT
ATOM      1  C   UNL     1      -4.206  12.532  20.348  0.00  0.00    +0.000 C 
ATOM      2  O   UNL     1      -4.395  12.898  21.520  0.00  0.00    +0.000 OA
ATOM      3  N   UNL     1      -2.936  12.638  19.784  0.00  0.00    +0.000 N 
ATOM      4  C   UNL     1      -1.928  13.271  20.663  0.00  0.00    +0.000 C 
ATOM      5  C   UNL     1      -1.128  12.196  21.396  0.00  0.00    +0.000 C 
ATOM      6  N   UNL     1      -0.646  11.219  20.437  0.00  0.00    +0.000 N 
ATOM      7  C   UNL     1       0.358  10.313  20.619  0.00  0.00    +0.000 A 
ATOM      8  C   UNL     1       0.507   9.704  19.389  0.00  0.00    +0.000 A 
ATOM      9  N   UNL     1      -0.401  10.223  18.490  0.00  0.00    +0.000 NA
ATOM     10  C   UNL     1      -1.123  11.090  19.160  0.00  0.00    +0.000 A 
ATOM     11  C   UNL     1      -2.289  11.912  18.624  0.00  0.00    +0.000 C 
ENDROOT
BRANCH   8  12
ATOM     12  C   UNL     1       1.498   8.711  19.039  0.00  0.00    +0.000 A 
ATOM     13  C   UNL     1       2.175   8.753  17.812  0.00  0.00    +0.000 A 
ATOM     14  C   UNL     1       3.091   7.757  17.478  0.00  0.00    +0.000 A 
ATOM     15  C   UNL     1       3.342   6.711  18.366  0.00  0.00    +0.000 A 
ATOM     16  C   UNL     1       2.696   6.673  19.600  0.00  0.00    +0.000 A 
ATOM     17  C   UNL     1       1.784   7.673  19.938  0.00  0.00    +0.000 A 
ENDBRANCH   8  12
BRANCH  11  18
ATOM     18  C   UNL     1      -3.153  11.089  17.635  0.00  0.00    +0.000 C 
ATOM     19  C   UNL     1      -3.239   9.590  17.991  0.00  0.00    +0.000 C 
ATOM     20  C   UNL     1      -2.710  11.183  16.169  0.00  0.00    +0.000 C 
ENDBRANCH  11  18
BRANCH   1  21
ATOM     21  C   UNL     1      -5.433  11.996  19.571  0.00  0.00    +0.000 C 
BRANCH  21  22
ATOM     22  N   UNL     1      -6.373  11.333  20.506  0.00  0.00    +0.000 NA
ATOM     23  H   UNL     1      -6.422  11.910  21.348  0.00  0.00    +0.000 HD
ATOM     24  H   UNL     1      -5.944  10.460  20.821  0.00  0.00    +0.000 HD
ENDBRANCH  21  22
BRANCH  21  25
ATOM     25  C   UNL     1      -6.089  13.025  18.623  0.00  0.00    +0.000 C 
ATOM     26  C   UNL     1      -6.861  12.259  17.528  0.00  0.00    +0.000 C 
BRANCH  25  28
ATOM     27  C   UNL     1      -6.459  15.424  19.453  0.00  0.00    +0.000 C 
ATOM     28  C   UNL     1      -6.999  14.003  19.387  0.00  0.00    +0.000 C 
ENDBRANCH  25  28
ENDBRANCH  21  25
ENDBRANCH   1  21
TORSDOF 6
ENDMDL
MODEL 2
REMARK VINA RESULT:      -6.1      1.600      2.432
REMARK  Name = 
REMARK  10 active torsions:
REMARK  status: ('A' for Active; 'I' for Inactive)
REMARK    1  A    between atoms: C_1  and  C_2
REMARK    2  A    between atoms: C_2  and  C_3
REMARK    3  A    between atoms: C_3  and  C_4
REMARK    4  A    between atoms: C_3  and  C_5
REMARK    5  A    between atoms: C_5  and  N_6
REMARK    6  A    between atoms: C_5  and  C_7
REMARK    7  A    between atoms: C_14  and  C_15
REMARK    8  A    between atoms: C_23  and  C_24
REMARK    9  A    between atoms: C_24  and  C_25
REMARK   10  A    between atoms: C_24  and  C_26
REMARK                            x       y       z     vdW  Elec       q    Type
REMARK                         _______ _______ _______ _____ _____    ______ ____
ROOT
ATOM      1  C   UNL     1      -3.243  12.596  21.927  0.00  0.00    +0.000 C 
ATOM      2  O   UNL     1      -3.845  12.267  22.963  0.00  0.00    +0.000 OA
ATOM      3  N   UNL     1      -1.857  12.463  21.860  0.00  0.00    +0.000 N 
ATOM      4  C   UNL     1      -1.226  11.994  23.113  0.00  0.00    +0.000 C 
ATOM      5  C   UNL     1      -1.020  10.482  23.056  0.00  0.00    +0.000 C 
ATOM      6  N   UNL     1      -0.357  10.134  21.813  0.00  0.00    +0.000 N 
ATOM      7  C   UNL     1       0.296   8.969  21.527  0.00  0.00    +0.000 A 
ATOM      8  C   UNL     1       0.845   9.175  20.277  0.00  0.00    +0.000 A 
ATOM      9  N   UNL     1       0.516  10.432  19.816  0.00  0.00    +0.000 NA
ATOM     10  C   UNL     1      -0.257  10.966  20.732  0.00  0.00    +0.000 A 
ATOM     11  C   UNL     1      -0.916  12.340  20.680  0.00  0.00    +0.000 C 
ENDROOT
BRANCH   8  12
ATOM     12  C   UNL     1       1.698   8.258  19.554  0.00  0.00    +0.000 A 
ATOM     13  C   UNL     1       2.082   7.027  20.103  0.00  0.00    +0.000 A 
ATOM     14  C   UNL     1       2.944   6.183  19.405  0.00  0.00    +0.000 A 
ATOM     15  C   UNL     1       3.428   6.557  18.152  0.00  0.00    +0.000 A 
ATOM     16  C   UNL     1       3.031   7.765  17.583  0.00  0.00    +0.000 A 
ATOM     17  C   UNL     1       2.164   8.609  18.278  0.00  0.00    +0.000 A 
ENDBRANCH   8  12
BRANCH  11  18
ATOM     18  C   UNL     1      -1.406  12.678  19.249  0.00  0.00    +0.000 C 
ATOM     19  C   UNL     1      -1.912  11.450  18.464  0.00  0.00    +0.000 C 
ATOM     20  C   UNL     1      -0.366  13.382  18.368  0.00  0.00    +0.000 C 
ENDBRANCH  11  18
BRANCH   1  21
ATOM     21  C   UNL     1      -4.093  13.168  20.767  0.00  0.00    +0.000 C 
BRANCH  21  22
ATOM     22  N   UNL     1      -5.127  12.183  20.366  0.00  0.00    +0.000 NA
ATOM     23  H   UNL     1      -5.470  12.462  19.445  0.00  0.00    +0.000 HD
ATOM     24  H   UNL     1      -5.933  12.300  20.983  0.00  0.00    +0.000 HD
ENDBRANCH  21  22
BRANCH  21  25
ATOM     25  C   UNL     1      -4.628  14.597  21.010  0.00  0.00    +0.000 C 
ATOM     26  C   UNL     1      -3.452  15.588  20.883  0.00  0.00    +0.000 C 
BRANCH  25  28
ATOM     27  C   UNL     1      -7.114  15.167  20.736  0.00  0.00    +0.000 C 
ATOM     28  C   UNL     1      -5.776  14.946  20.047  0.00  0.00    +0.000 C 
ENDBRANCH  25  28
ENDBRANCH  21  25
ENDBRANCH   1  21
TORSDOF 6
ENDMDL
MODEL 3
REMARK VINA RESULT:      -6.0      3.620      5.564
REMARK  Name = 
REMARK  10 active torsions:
REMARK  status: ('A' for Active; 'I' for Inactive)
REMARK    1  A    between atoms: C_1  and  C_2
REMARK    2  A    between atoms: C_2  and  C_3
REMARK    3  A    between atoms: C_3  and  C_4
REMARK    4  A    between atoms: C_3  and  C_5
REMARK    5  A    between atoms: C_5  and  N_6
REMARK    6  A    between atoms: C_5  and  C_7
REMARK    7  A    between atoms: C_14  and  C_15
REMARK    8  A    between atoms: C_23  and  C_24
REMARK    9  A    between atoms: C_24  and  C_25
REMARK   10  A    between atoms: C_24  and  C_26
REMARK                            x       y       z     vdW  Elec       q    Type
REMARK                         _______ _______ _______ _____ _____    ______ ____
ROOT
ATOM      1  C   UNL     1       1.235  12.055  19.775  0.00  0.00    +0.000 C 
ATOM      2  O   UNL     1       1.698  12.699  18.819  0.00  0.00    +0.000 OA
ATOM      3  N   UNL     1       0.655  10.807  19.553  0.00  0.00    +0.000 N 
ATOM      4  C   UNL     1       0.589  10.407  18.130  0.00  0.00    +0.000 C 
ATOM      5  C   UNL     1       1.784   9.522  17.783  0.00  0.00    +0.000 C 
ATOM      6  N   UNL     1       1.893   8.457  18.762  0.00  0.00    +0.000 N 
ATOM      7  C   UNL     1       2.592   7.291  18.636  0.00  0.00    +0.000 A 
ATOM      8  C   UNL     1       2.286   6.575  19.776  0.00  0.00    +0.000 A 
ATOM      9  N   UNL     1       1.433   7.303  20.579  0.00  0.00    +0.000 NA
ATOM     10  C   UNL     1       1.259   8.455  19.975  0.00  0.00    +0.000 A 
ATOM     11  C   UNL     1       0.425   9.629  20.476  0.00  0.00    +0.000 C 
ENDROOT
BRANCH   8  12
ATOM     12  C   UNL     1       2.725   5.233  20.089  0.00  0.00    +0.000 A 
ATOM     13  C   UNL     1       3.818   4.648  19.435  0.00  0.00    +0.000 A 
ATOM     14  C   UNL     1       4.190   3.336  19.721  0.00  0.00    +0.000 A 
ATOM     15  C   UNL     1       3.477   2.595  20.663  0.00  0.00    +0.000 A 
ATOM     16  C   UNL     1       2.405   3.174  21.339  0.00  0.00    +0.000 A 
ATOM     17  C   UNL     1       2.035   4.490  21.058  0.00  0.00    +0.000 A 
ENDBRANCH   8  12
BRANCH  11  18
ATOM     18  C   UNL     1       0.554   9.799  22.011  0.00  0.00    +0.000 C 
ATOM     19  C   UNL     1       1.878   9.252  22.584  0.00  0.00    +0.000 C 
ATOM     20  C   UNL     1      -0.586   9.169  22.821  0.00  0.00    +0.000 C 
ENDBRANCH  11  18
BRANCH   1  21
ATOM     21  C   UNL     1       1.314  12.713  21.174  0.00  0.00    +0.000 C 
BRANCH  21  22
ATOM     22  N   UNL     1       2.620  13.395  21.338  0.00  0.00    +0.000 NA
ATOM     23  H   UNL     1       2.426  14.369  21.579  0.00  0.00    +0.000 HD
ATOM     24  H   UNL     1       3.070  13.445  20.421  0.00  0.00    +0.000 HD
ENDBRANCH  21  22
BRANCH  21  25
ATOM     25  C   UNL     1       0.087  13.576  21.545  0.00  0.00    +0.000 C 
ATOM     26  C   UNL     1       0.352  15.026  21.088  0.00  0.00    +0.000 C 
BRANCH  25  28
ATOM     27  C   UNL     1      -2.177  12.449  21.968  0.00  0.00    +0.000 C 
ATOM     28  C   UNL     1      -1.210  13.012  20.939  0.00  0.00    +0.000 C 
ENDBRANCH  25  28
ENDBRANCH  21  25
ENDBRANCH   1  21
TORSDOF 6
ENDMDL
MODEL 4
REMARK VINA RESULT:      -6.0      1.787      2.432
REMARK  Name = 
REMARK  10 active torsions:
REMARK  status: ('A' for Active; 'I' for Inactive)
REMARK    1  A    between atoms: C_1  and  C_2
REMARK    2  A    between atoms: C_2  and  C_3
REMARK    3  A    between atoms: C_3  and  C_4
REMARK    4  A    between atoms: C_3  and  C_5
REMARK    5  A    between atoms: C_5  and  N_6
REMARK    6  A    between atoms: C_5  and  C_7
REMARK    7  A    between atoms: C_14  and  C_15
REMARK    8  A    between atoms: C_23  and  C_24
REMARK    9  A    between atoms: C_24  and  C_25
REMARK   10  A    between atoms: C_24  and  C_26
REMARK                            x       y       z     vdW  Elec       q    Type
REMARK                         _______ _______ _______ _____ _____    ______ ____
ROOT
ATOM      1  C   UNL     1      -3.209  12.708  21.913  0.00  0.00    +0.000 C 
ATOM      2  O   UNL     1      -3.793  12.410  22.967  0.00  0.00    +0.000 OA
ATOM      3  N   UNL     1      -1.824  12.577  21.825  0.00  0.00    +0.000 N 
ATOM      4  C   UNL     1      -1.171  12.147  23.081  0.00  0.00    +0.000 C 
ATOM      5  C   UNL     1      -0.962  10.635  23.067  0.00  0.00    +0.000 C 
ATOM      6  N   UNL     1      -0.318  10.251  21.824  0.00  0.00    +0.000 N 
ATOM      7  C   UNL     1       0.333   9.080  21.562  0.00  0.00    +0.000 A 
ATOM      8  C   UNL     1       0.860   9.249  20.297  0.00  0.00    +0.000 A 
ATOM      9  N   UNL     1       0.519  10.491  19.804  0.00  0.00    +0.000 NA
ATOM     10  C   UNL     1      -0.239  11.050  20.716  0.00  0.00    +0.000 A 
ATOM     11  C   UNL     1      -0.903  12.420  20.634  0.00  0.00    +0.000 C 
ENDROOT
BRANCH   8  12
ATOM     12  C   UNL     1       1.703   8.312  19.588  0.00  0.00    +0.000 A 
ATOM     13  C   UNL     1       2.237   8.616  18.328  0.00  0.00    +0.000 A 
ATOM     14  C   UNL     1       3.007   7.677  17.644  0.00  0.00    +0.000 A 
ATOM     15  C   UNL     1       3.254   6.427  18.211  0.00  0.00    +0.000 A 
ATOM     16  C   UNL     1       2.751   6.123  19.475  0.00  0.00    +0.000 A 
ATOM     17  C   UNL     1       1.985   7.064  20.163  0.00  0.00    +0.000 A 
ENDBRANCH   8  12
BRANCH  11  18
ATOM     18  C   UNL     1      -1.418  12.714  19.202  0.00  0.00    +0.000 C 
ATOM     19  C   UNL     1      -1.995  11.473  18.488  0.00  0.00    +0.000 C 
ATOM     20  C   UNL     1      -0.375  13.334  18.264  0.00  0.00    +0.000 C 
ENDBRANCH  11  18
BRANCH   1  21
ATOM     21  C   UNL     1      -4.081  13.243  20.750  0.00  0.00    +0.000 C 
BRANCH  21  22
ATOM     22  N   UNL     1      -5.213  12.318  20.502  0.00  0.00    +0.000 NA
ATOM     23  H   UNL     1      -5.784  12.730  19.761  0.00  0.00    +0.000 HD
ATOM     24  H   UNL     1      -5.818  12.328  21.325  0.00  0.00    +0.000 HD
ENDBRANCH  21  22
BRANCH  21  25
ATOM     25  C   UNL     1      -4.483  14.729  20.883  0.00  0.00    +0.000 C 
ATOM     26  C   UNL     1      -5.804  14.810  21.676  0.00  0.00    +0.000 C 
BRANCH  25  28
ATOM     27  C   UNL     1      -2.390  16.173  20.547  0.00  0.00    +0.000 C 
ATOM     28  C   UNL     1      -3.369  15.563  21.538  0.00  0.00    +0.000 C 
ENDBRANCH  25  28
ENDBRANCH  21  25
ENDBRANCH   1  21
TORSDOF 6
ENDMDL
MODEL 5
REMARK VINA RESULT:      -6.0      4.106      5.699
REMARK  Name = 
REMARK  10 active torsions:
REMARK  status: ('A' for Active; 'I' for Inactive)
REMARK    1  A    between atoms: C_1  and  C_2
REMARK    2  A    between atoms: C_2  and  C_3
REMARK    3  A    between atoms: C_3  and  C_4
REMARK    4  A    between atoms: C_3  and  C_5
REMARK    5  A    between atoms: C_5  and  N_6
REMARK    6  A    between atoms: C_5  and  C_7
REMARK    7  A    between atoms: C_14  and  C_15
REMARK    8  A    between atoms: C_23  and  C_24
REMARK    9  A    between atoms: C_24  and  C_25
REMARK   10  A    between atoms: C_24  and  C_26
REMARK                            x       y       z     vdW  Elec       q    Type
REMARK                         _______ _______ _______ _____ _____    ______ ____
ROOT
ATOM      1  C   UNL     1       1.234  12.038  19.769  0.00  0.00    +0.000 C 
ATOM      2  O   UNL     1       1.705  12.677  18.814  0.00  0.00    +0.000 OA
ATOM      3  N   UNL     1       0.652  10.790  19.549  0.00  0.00    +0.000 N 
ATOM      4  C   UNL     1       0.594  10.386  18.127  0.00  0.00    +0.000 C 
ATOM      5  C   UNL     1       1.789   9.496  17.790  0.00  0.00    +0.000 C 
ATOM      6  N   UNL     1       1.888   8.434  18.775  0.00  0.00    +0.000 N 
ATOM      7  C   UNL     1       2.585   7.266  18.657  0.00  0.00    +0.000 A 
ATOM      8  C   UNL     1       2.270   6.555  19.798  0.00  0.00    +0.000 A 
ATOM      9  N   UNL     1       1.414   7.288  20.592  0.00  0.00    +0.000 NA
ATOM     10  C   UNL     1       1.247   8.438  19.984  0.00  0.00    +0.000 A 
ATOM     11  C   UNL     1       0.413   9.616  20.474  0.00  0.00    +0.000 C 
ENDROOT
BRANCH   8  12
ATOM     12  C   UNL     1       2.703   5.213  20.119  0.00  0.00    +0.000 A 
ATOM     13  C   UNL     1       3.784   4.614  19.458  0.00  0.00    +0.000 A 
ATOM     14  C   UNL     1       4.150   3.301  19.752  0.00  0.00    +0.000 A 
ATOM     15  C   UNL     1       3.443   2.575  20.710  0.00  0.00    +0.000 A 
ATOM     16  C   UNL     1       2.384   3.169  21.393  0.00  0.00    +0.000 A 
ATOM     17  C   UNL     1       2.020   4.484  21.104  0.00  0.00    +0.000 A 
ENDBRANCH   8  12
BRANCH  11  18
ATOM     18  C   UNL     1       0.532   9.792  22.010  0.00  0.00    +0.000 C 
ATOM     19  C   UNL     1       1.856   9.254  22.591  0.00  0.00    +0.000 C 
ATOM     20  C   UNL     1      -0.609   9.158  22.815  0.00  0.00    +0.000 C 
ENDBRANCH  11  18
BRANCH   1  21
ATOM     21  C   UNL     1       1.306  12.700  21.166  0.00  0.00    +0.000 C 
BRANCH  21  22
ATOM     22  N   UNL     1       2.663  13.256  21.392  0.00  0.00    +0.000 NA
ATOM     23  H   UNL     1       2.546  14.198  21.770  0.00  0.00    +0.000 HD
ATOM     24  H   UNL     1       3.103  13.400  20.482  0.00  0.00    +0.000 HD
ENDBRANCH  21  22
BRANCH  21  25
ATOM     25  C   UNL     1       0.152  13.682  21.469  0.00  0.00    +0.000 C 
ATOM     26  C   UNL     1      -0.791  13.026  22.500  0.00  0.00    +0.000 C 
BRANCH  25  28
ATOM     27  C   UNL     1      -0.232  15.729  22.967  0.00  0.00    +0.000 C 
ATOM     28  C   UNL     1       0.677  15.043  21.958  0.00  0.00    +0.000 C 
ENDBRANCH  25  28
ENDBRANCH  21  25
ENDBRANCH   1  21
TORSDOF 6
ENDMDL
MODEL 6
REMARK VINA RESULT:      -6.0      3.685      5.598
REMARK  Name = 
REMARK  10 active torsions:
REMARK  status: ('A' for Active; 'I' for Inactive)
REMARK    1  A    between atoms: C_1  and  C_2
REMARK    2  A    between atoms: C_2  and  C_3
REMARK    3  A    between atoms: C_3  and  C_4
REMARK    4  A    between atoms: C_3  and  C_5
REMARK    5  A    between atoms: C_5  and  N_6
REMARK    6  A    between atoms: C_5  and  C_7
REMARK    7  A    between atoms: C_14  and  C_15
REMARK    8  A    between atoms: C_23  and  C_24
REMARK    9  A    between atoms: C_24  and  C_25
REMARK   10  A    between atoms: C_24  and  C_26
REMARK                            x       y       z     vdW  Elec       q    Type
REMARK                         _______ _______ _______ _____ _____    ______ ____
ROOT
ATOM      1  C   UNL     1       1.300  11.994  19.726  0.00  0.00    +0.000 C 
ATOM      2  O   UNL     1       1.824  12.630  18.797  0.00  0.00    +0.000 OA
ATOM      3  N   UNL     1       0.712  10.755  19.474  0.00  0.00    +0.000 N 
ATOM      4  C   UNL     1       0.718  10.356  18.050  0.00  0.00    +0.000 C 
ATOM      5  C   UNL     1       1.915   9.451  17.768  0.00  0.00    +0.000 C 
ATOM      6  N   UNL     1       1.953   8.385  18.752  0.00  0.00    +0.000 N 
ATOM      7  C   UNL     1       2.639   7.208  18.664  0.00  0.00    +0.000 A 
ATOM      8  C   UNL     1       2.261   6.498  19.786  0.00  0.00    +0.000 A 
ATOM      9  N   UNL     1       1.377   7.241  20.541  0.00  0.00    +0.000 NA
ATOM     10  C   UNL     1       1.254   8.395  19.929  0.00  0.00    +0.000 A 
ATOM     11  C   UNL     1       0.413   9.582  20.383  0.00  0.00    +0.000 C 
ENDROOT
BRANCH   8  12
ATOM     12  C   UNL     1       2.659   5.149  20.122  0.00  0.00    +0.000 A 
ATOM     13  C   UNL     1       2.004   4.420  21.124  0.00  0.00    +0.000 A 
ATOM     14  C   UNL     1       2.439   3.139  21.461  0.00  0.00    +0.000 A 
ATOM     15  C   UNL     1       3.530   2.574  20.802  0.00  0.00    +0.000 A 
ATOM     16  C   UNL     1       4.172   3.278  19.786  0.00  0.00    +0.000 A 
ATOM     17  C   UNL     1       3.734   4.557  19.443  0.00  0.00    +0.000 A 
ENDBRANCH   8  12
BRANCH  11  18
ATOM     18  C   UNL     1       0.461   9.752  21.923  0.00  0.00    +0.000 C 
ATOM     19  C   UNL     1       1.787   9.280  22.555  0.00  0.00    +0.000 C 
ATOM     20  C   UNL     1      -0.676   9.052  22.677  0.00  0.00    +0.000 C 
ENDBRANCH  11  18
BRANCH   1  21
ATOM     21  C   UNL     1       1.313  12.652  21.128  0.00  0.00    +0.000 C 
BRANCH  21  22
ATOM     22  N   UNL     1       2.603  13.349  21.346  0.00  0.00    +0.000 NA
ATOM     23  H   UNL     1       3.336  12.767  20.934  0.00  0.00    +0.000 HD
ATOM     24  H   UNL     1       2.804  13.338  22.348  0.00  0.00    +0.000 HD
ENDBRANCH  21  22
BRANCH  21  25
ATOM     25  C   UNL     1       0.062  13.501  21.448  0.00  0.00    +0.000 C 
ATOM     26  C   UNL     1      -0.749  13.689  20.148  0.00  0.00    +0.000 C 
BRANCH  25  28
ATOM     27  C   UNL     1      -2.220  12.569  22.157  0.00  0.00    +0.000 C 
ATOM     28  C   UNL     1      -0.785  12.867  22.565  0.00  0.00    +0.000 C 
ENDBRANCH  25  28
ENDBRANCH  21  25
ENDBRANCH   1  21
TORSDOF 6
ENDMDL
MODEL 7
REMARK VINA RESULT:      -5.9      0.617      1.414
REMARK  Name = 
REMARK  10 active torsions:
REMARK  status: ('A' for Active; 'I' for Inactive)
REMARK    1  A    between atoms: C_1  and  C_2
REMARK    2  A    between atoms: C_2  and  C_3
REMARK    3  A    between atoms: C_3  and  C_4
REMARK    4  A    between atoms: C_3  and  C_5
REMARK    5  A    between atoms: C_5  and  N_6
REMARK    6  A    between atoms: C_5  and  C_7
REMARK    7  A    between atoms: C_14  and  C_15
REMARK    8  A    between atoms: C_23  and  C_24
REMARK    9  A    between atoms: C_24  and  C_25
REMARK   10  A    between atoms: C_24  and  C_26
REMARK                            x       y       z     vdW  Elec       q    Type
REMARK                         _______ _______ _______ _____ _____    ______ ____
ROOT
ATOM      1  C   UNL     1      -4.704  12.484  20.346  0.00  0.00    +0.000 C 
ATOM      2  O   UNL     1      -4.900  12.868  21.511  0.00  0.00    +0.000 OA
ATOM      3  N   UNL     1      -3.444  12.636  19.769  0.00  0.00    +0.000 N 
ATOM      4  C   UNL     1      -2.461  13.337  20.624  0.00  0.00    +0.000 C 
ATOM      5  C   UNL     1      -1.605  12.318  21.375  0.00  0.00    +0.000 C 
ATOM      6  N   UNL     1      -1.085  11.342  20.435  0.00  0.00    +0.000 N 
ATOM      7  C   UNL     1      -0.037  10.490  20.630  0.00  0.00    +0.000 A 
ATOM      8  C   UNL     1       0.131   9.859  19.414  0.00  0.00    +0.000 A 
ATOM      9  N   UNL     1      -0.807  10.313  18.510  0.00  0.00    +0.000 NA
ATOM     10  C   UNL     1      -1.564  11.160  19.166  0.00  0.00    +0.000 A 
ATOM     11  C   UNL     1      -2.772  11.914  18.621  0.00  0.00    +0.000 C 
ENDROOT
BRANCH   8  12
ATOM     12  C   UNL     1       1.166   8.906  19.078  0.00  0.00    +0.000 A 
ATOM     13  C   UNL     1       1.556   7.902  19.975  0.00  0.00    +0.000 A 
ATOM     14  C   UNL     1       2.589   7.026  19.646  0.00  0.00    +0.000 A 
ATOM     15  C   UNL     1       3.240   7.141  18.418  0.00  0.00    +0.000 A 
ATOM     16  C   UNL     1       2.843   8.117  17.506  0.00  0.00    +0.000 A 
ATOM     17  C   UNL     1       1.805   8.991  17.832  0.00  0.00    +0.000 A 
ENDBRANCH   8  12
BRANCH  11  18
ATOM     18  C   UNL     1      -3.604  11.027  17.658  0.00  0.00    +0.000 C 
ATOM     19  C   UNL     1      -3.528   9.521  17.987  0.00  0.00    +0.000 C 
ATOM     20  C   UNL     1      -3.247  11.187  16.175  0.00  0.00    +0.000 C 
ENDBRANCH  11  18
BRANCH   1  21
ATOM     21  C   UNL     1      -5.909  11.872  19.592  0.00  0.00    +0.000 C 
BRANCH  21  22
ATOM     22  N   UNL     1      -6.613  10.903  20.467  0.00  0.00    +0.000 NA
ATOM     23  H   UNL     1      -7.505  10.684  20.020  0.00  0.00    +0.000 HD
ATOM     24  H   UNL     1      -6.873  11.385  21.330  0.00  0.00    +0.000 HD
ENDBRANCH  21  22
BRANCH  21  25
ATOM     25  C   UNL     1      -6.830  12.908  18.910  0.00  0.00    +0.000 C 
ATOM     26  C   UNL     1      -6.354  14.322  19.305  0.00  0.00    +0.000 C 
BRANCH  25  28
ATOM     27  C   UNL     1      -6.784  14.022  16.600  0.00  0.00    +0.000 C 
ATOM     28  C   UNL     1      -6.864  12.721  17.383  0.00  0.00    +0.000 C 
ENDBRANCH  25  28
ENDBRANCH  21  25
ENDBRANCH   1  21
TORSDOF 6
ENDMDL
MODEL 8
REMARK VINA RESULT:      -5.9      5.174      9.980
REMARK  Name = 
REMARK  10 active torsions:
REMARK  status: ('A' for Active; 'I' for Inactive)
REMARK    1  A    between atoms: C_1  and  C_2
REMARK    2  A    between atoms: C_2  and  C_3
REMARK    3  A    between atoms: C_3  and  C_4
REMARK    4  A    between atoms: C_3  and  C_5
REMARK    5  A    between atoms: C_5  and  N_6
REMARK    6  A    between atoms: C_5  and  C_7
REMARK    7  A    between atoms: C_14  and  C_15
REMARK    8  A    between atoms: C_23  and  C_24
REMARK    9  A    between atoms: C_24  and  C_25
REMARK   10  A    between atoms: C_24  and  C_26
REMARK                            x       y       z     vdW  Elec       q    Type
REMARK                         _______ _______ _______ _____ _____    ______ ____
ROOT
ATOM      1  C   UNL     1       4.824   4.381  18.831  0.00  0.00    +0.000 C 
ATOM      2  O   UNL     1       5.033   3.389  19.549  0.00  0.00    +0.000 OA
ATOM      3  N   UNL     1       3.524   4.858  18.670  0.00  0.00    +0.000 N 
ATOM      4  C   UNL     1       2.487   4.048  19.347  0.00  0.00    +0.000 C 
ATOM      5  C   UNL     1       2.165   4.652  20.712  0.00  0.00    +0.000 C 
ATOM      6  N   UNL     1       1.897   6.071  20.559  0.00  0.00    +0.000 N 
ATOM      7  C   UNL     1       1.260   6.889  21.446  0.00  0.00    +0.000 A 
ATOM      8  C   UNL     1       1.156   8.100  20.792  0.00  0.00    +0.000 A 
ATOM      9  N   UNL     1       1.734   8.015  19.543  0.00  0.00    +0.000 NA
ATOM     10  C   UNL     1       2.225   6.803  19.450  0.00  0.00    +0.000 A 
ATOM     11  C   UNL     1       2.997   6.220  18.271  0.00  0.00    +0.000 C 
ENDROOT
BRANCH   8  12
ATOM     12  C   UNL     1       0.491   9.286  21.285  0.00  0.00    +0.000 A 
ATOM     13  C   UNL     1       0.500  10.486  20.560  0.00  0.00    +0.000 A 
ATOM     14  C   UNL     1      -0.107  11.628  21.079  0.00  0.00    +0.000 A 
ATOM     15  C   UNL     1      -0.732  11.583  22.325  0.00  0.00    +0.000 A 
ATOM     16  C   UNL     1      -0.772  10.389  23.043  0.00  0.00    +0.000 A 
ATOM     17  C   UNL     1      -0.169   9.244  22.522  0.00  0.00    +0.000 A 
ENDBRANCH   8  12
BRANCH  11  18
ATOM     18  C   UNL     1       3.944   7.273  17.640  0.00  0.00    +0.000 C 
ATOM     19  C   UNL     1       3.352   8.697  17.613  0.00  0.00    +0.000 C 
ATOM     20  C   UNL     1       4.403   6.944  16.214  0.00  0.00    +0.000 C 
ENDBRANCH  11  18
BRANCH   1  21
ATOM     21  C   UNL     1       6.048   5.014  18.126  0.00  0.00    +0.000 C 
BRANCH  21  22
ATOM     22  N   UNL     1       7.094   5.338  19.126  0.00  0.00    +0.000 NA
ATOM     23  H   UNL     1       7.535   4.458  19.401  0.00  0.00    +0.000 HD
ATOM     24  H   UNL     1       6.630   5.665  19.976  0.00  0.00    +0.000 HD
ENDBRANCH  21  22
BRANCH  21  25
ATOM     25  C   UNL     1       6.557   4.227  16.897  0.00  0.00    +0.000 C 
ATOM     26  C   UNL     1       5.346   3.572  16.199  0.00  0.00    +0.000 C 
BRANCH  25  28
ATOM     27  C   UNL     1       7.058   4.876  14.467  0.00  0.00    +0.000 C 
ATOM     28  C   UNL     1       7.355   5.126  15.937  0.00  0.00    +0.000 C 
ENDBRANCH  25  28
ENDBRANCH  21  25
ENDBRANCH   1  21
TORSDOF 6
ENDMDL
MODEL 9
REMARK VINA RESULT:      -5.8      2.960      4.635
REMARK  Name = 
REMARK  10 active torsions:
REMARK  status: ('A' for Active; 'I' for Inactive)
REMARK    1  A    between atoms: C_1  and  C_2
REMARK    2  A    between atoms: C_2  and  C_3
REMARK    3  A    between atoms: C_3  and  C_4
REMARK    4  A    between atoms: C_3  and  C_5
REMARK    5  A    between atoms: C_5  and  N_6
REMARK    6  A    between atoms: C_5  and  C_7
REMARK    7  A    between atoms: C_14  and  C_15
REMARK    8  A    between atoms: C_23  and  C_24
REMARK    9  A    between atoms: C_24  and  C_25
REMARK   10  A    between atoms: C_24  and  C_26
REMARK                            x       y       z     vdW  Elec       q    Type
REMARK                         _______ _______ _______ _____ _____    ______ ____
ROOT
ATOM      1  C   UNL     1      -0.665  12.774  20.654  0.00  0.00    +0.000 C 
ATOM      2  O   UNL     1      -0.826  13.697  19.840  0.00  0.00    +0.000 OA
ATOM      3  N   UNL     1      -0.845  11.452  20.249  0.00  0.00    +0.000 N 
ATOM      4  C   UNL     1      -1.300  11.299  18.850  0.00  0.00    +0.000 C 
ATOM      5  C   UNL     1      -0.102  11.045  17.938  0.00  0.00    +0.000 C 
ATOM      6  N   UNL     1       0.703   9.970  18.491  0.00  0.00    +0.000 N 
ATOM      7  C   UNL     1       1.643   9.227  17.839  0.00  0.00    +0.000 A 
ATOM      8  C   UNL     1       2.033   8.273  18.757  0.00  0.00    +0.000 A 
ATOM      9  N   UNL     1       1.351   8.449  19.943  0.00  0.00    +0.000 NA
ATOM     10  C   UNL     1       0.601   9.513  19.777  0.00  0.00    +0.000 A 
ATOM     11  C   UNL     1      -0.321  10.148  20.812  0.00  0.00    +0.000 C 
ENDROOT
BRANCH   8  12
ATOM     12  C   UNL     1       2.966   7.192  18.527  0.00  0.00    +0.000 A 
ATOM     13  C   UNL     1       3.123   6.150  19.452  0.00  0.00    +0.000 A 
ATOM     14  C   UNL     1       4.065   5.147  19.229  0.00  0.00    +0.000 A 
ATOM     15  C   UNL     1       4.856   5.171  18.081  0.00  0.00    +0.000 A 
ATOM     16  C   UNL     1       4.690   6.186  17.141  0.00  0.00    +0.000 A 
ATOM     17  C   UNL     1       3.744   7.188  17.360  0.00  0.00    +0.000 A 
ENDBRANCH   8  12
BRANCH  11  18
ATOM     18  C   UNL     1       0.305  10.102  22.230  0.00  0.00    +0.000 C 
ATOM     19  C   UNL     1       1.486   9.117  22.351  0.00  0.00    +0.000 C 
ATOM     20  C   UNL     1      -0.685   9.766  23.353  0.00  0.00    +0.000 C 
ENDBRANCH  11  18
BRANCH   1  21
ATOM     21  C   UNL     1      -0.292  13.168  22.104  0.00  0.00    +0.000 C 
BRANCH  21  22
ATOM     22  N   UNL     1       0.904  14.045  22.097  0.00  0.00    +0.000 NA
ATOM     23  H   UNL     1       0.633  14.931  22.528  0.00  0.00    +0.000 HD
ATOM     24  H   UNL     1       1.114  14.288  21.127  0.00  0.00    +0.000 HD
ENDBRANCH  21  22
BRANCH  21  25
ATOM     25  C   UNL     1      -1.473  13.699  22.947  0.00  0.00    +0.000 C 
ATOM     26  C   UNL     1      -1.572  15.225  22.744  0.00  0.00    +0.000 C 
BRANCH  25  28
ATOM     27  C   UNL     1      -3.435  12.265  23.766  0.00  0.00    +0.000 C 
ATOM     28  C   UNL     1      -2.790  12.987  22.593  0.00  0.00    +0.000 C 
ENDBRANCH  25  28
ENDBRANCH  21  25
ENDBRANCH   1  21
TORSDOF 6
ENDMDL
