MODEL 1
REMARK VINA RESULT:      -7.7      0.000      0.000
REMARK  Name = 
REMARK  3 active torsions:
REMARK  status: ('A' for Active; 'I' for Inactive)
REMARK    1  A    between atoms: C_1  and  C_2
REMARK    2  A    between atoms: C_5  and  S_6
REMARK    3  A    between atoms: S_6  and  N_9
REMARK                            x       y       z     vdW  Elec       q    Type
REMARK                         _______ _______ _______ _____ _____    ______ ____
ROOT
ATOM      1  S   UNL     1       3.073   4.418  18.780  0.00  0.00    +0.000 S 
ATOM      2  O   UNL     1       2.929   3.816  20.091  0.00  0.00    +0.000 OA
ATOM      3  O   UNL     1       2.326   3.902  17.646  0.00  0.00    +0.000 OA
ENDROOT
BRANCH   1   4
ATOM      4  N   UNL     1       4.793   4.502  18.342  0.00  0.00    +0.000 N 
ATOM      5  C   UNL     1       5.467   5.287  19.400  0.00  0.00    +0.000 C 
ATOM      6  C   UNL     1       6.956   5.451  19.275  0.00  0.00    +0.000 C 
ATOM      7  C   UNL     1       7.647   5.137  17.979  0.00  0.00    +0.000 C 
ATOM      8  C   UNL     1       6.755   4.859  16.824  0.00  0.00    +0.000 A 
ATOM      9  C   UNL     1       7.452   4.791  15.586  0.00  0.00    +0.000 A 
ATOM     10  C   UNL     1       6.772   4.555  14.411  0.00  0.00    +0.000 A 
ATOM     11  C   UNL     1       5.399   4.383  14.504  0.00  0.00    +0.000 A 
ATOM     12  C   UNL     1       4.694   4.413  15.749  0.00  0.00    +0.000 A 
ATOM     13  C   UNL     1       5.347   4.664  16.964  0.00  0.00    +0.000 A 
ENDBRANCH   1   4
BRANCH   1  18
ATOM     14  C   UNL     1       0.896  10.194  19.595  0.00  0.00    +0.000 C 
ATOM     15  C   UNL     1       1.522   8.832  19.386  0.00  0.00    +0.000 A 
ATOM     16  C   UNL     1       1.566   7.906  20.433  0.00  0.00    +0.000 A 
ATOM     17  C   UNL     1       2.062   6.599  20.245  0.00  0.00    +0.000 A 
ATOM     18  C   UNL     1       2.537   6.188  18.996  0.00  0.00    +0.000 A 
ATOM     19  C   UNL     1       2.552   7.139  17.933  0.00  0.00    +0.000 A 
ATOM     20  C   UNL     1       2.048   8.444  18.143  0.00  0.00    +0.000 A 
ENDBRANCH   1  18
TORSDOF 2
ENDMDL
MODEL 2
REMARK VINA RESULT:      -7.5      0.447      1.167
REMARK  Name = 
REMARK  3 active torsions:
REMARK  status: ('A' for Active; 'I' for Inactive)
REMARK    1  A    between atoms: C_1  and  C_2
REMARK    2  A    between atoms: C_5  and  S_6
REMARK    3  A    between atoms: S_6  and  N_9
REMARK                            x       y       z     vdW  Elec       q    Type
REMARK                         _______ _______ _______ _____ _____    ______ ____
ROOT
ATOM      1  S   UNL     1       3.222   3.952  18.791  0.00  0.00    +0.000 S 
ATOM      2  O   UNL     1       3.178   3.226  20.045  0.00  0.00    +0.000 OA
ATOM      3  O   UNL     1       2.509   3.456  17.627  0.00  0.00    +0.000 OA
ENDROOT
BRANCH   1   4
ATOM      4  N   UNL     1       4.911   4.266  18.336  0.00  0.00    +0.000 N 
ATOM      5  C   UNL     1       5.493   5.109  19.404  0.00  0.00    +0.000 C 
ATOM      6  C   UNL     1       6.947   5.465  19.267  0.00  0.00    +0.000 C 
ATOM      7  C   UNL     1       7.655   5.269  17.956  0.00  0.00    +0.000 C 
ATOM      8  C   UNL     1       6.790   4.903  16.806  0.00  0.00    +0.000 A 
ATOM      9  C   UNL     1       7.473   4.952  15.559  0.00  0.00    +0.000 A 
ATOM     10  C   UNL     1       6.813   4.654  14.386  0.00  0.00    +0.000 A 
ATOM     11  C   UNL     1       5.475   4.305  14.490  0.00  0.00    +0.000 A 
ATOM     12  C   UNL     1       4.789   4.218  15.743  0.00  0.00    +0.000 A 
ATOM     13  C   UNL     1       5.421   4.526  16.957  0.00  0.00    +0.000 A 
ENDBRANCH   1   4
BRANCH   1  18
ATOM     14  C   UNL     1       1.188   9.713  19.991  0.00  0.00    +0.000 C 
ATOM     15  C   UNL     1       1.581   8.279  19.706  0.00  0.00    +0.000 A 
ATOM     16  C   UNL     1       2.064   7.915  18.445  0.00  0.00    +0.000 A 
ATOM     17  C   UNL     1       2.521   6.608  18.177  0.00  0.00    +0.000 A 
ATOM     18  C   UNL     1       2.500   5.625  19.171  0.00  0.00    +0.000 A 
ATOM     19  C   UNL     1       1.958   5.965  20.445  0.00  0.00    +0.000 A 
ATOM     20  C   UNL     1       1.506   7.283  20.694  0.00  0.00    +0.000 A 
ENDBRANCH   1  18
TORSDOF 2
ENDMDL
MODEL 3
REMARK VINA RESULT:      -7.5      2.718      6.418
REMARK  Name = 
REMARK  3 active torsions:
REMARK  status: ('A' for Active; 'I' for Inactive)
REMARK    1  A    between atoms: C_1  and  C_2
REMARK    2  A    between atoms: C_5  and  S_6
REMARK    3  A    between atoms: S_6  and  N_9
REMARK                            x       y       z     vdW  Elec       q    Type
REMARK                         _______ _______ _______ _____ _____    ______ ____
ROOT
ATOM      1  S   UNL     1       6.380   5.696  16.642  0.00  0.00    +0.000 S 
ATOM      2  O   UNL     1       7.043   4.731  17.497  0.00  0.00    +0.000 OA
ATOM      3  O   UNL     1       6.882   7.055  16.538  0.00  0.00    +0.000 OA
ENDROOT
BRANCH   1   4
ATOM      4  N   UNL     1       4.647   5.756  17.032  0.00  0.00    +0.000 N 
ATOM      5  C   UNL     1       4.386   7.088  17.623  0.00  0.00    +0.000 C 
ATOM      6  C   UNL     1       2.961   7.397  17.988  0.00  0.00    +0.000 C 
ATOM      7  C   UNL     1       1.943   6.295  18.071  0.00  0.00    +0.000 C 
ATOM      8  C   UNL     1       2.480   4.914  17.966  0.00  0.00    +0.000 A 
ATOM      9  C   UNL     1       1.512   3.917  18.274  0.00  0.00    +0.000 A 
ATOM     10  C   UNL     1       1.848   2.580  18.239  0.00  0.00    +0.000 A 
ATOM     11  C   UNL     1       3.153   2.271  17.886  0.00  0.00    +0.000 A 
ATOM     12  C   UNL     1       4.122   3.264  17.540  0.00  0.00    +0.000 A 
ATOM     13  C   UNL     1       3.824   4.634  17.577  0.00  0.00    +0.000 A 
ENDBRANCH   1   4
BRANCH   1  18
ATOM     14  C   UNL     1       6.695   2.897  11.090  0.00  0.00    +0.000 C 
ATOM     15  C   UNL     1       6.603   3.669  12.388  0.00  0.00    +0.000 A 
ATOM     16  C   UNL     1       5.521   3.474  13.253  0.00  0.00    +0.000 A 
ATOM     17  C   UNL     1       5.452   4.112  14.508  0.00  0.00    +0.000 A 
ATOM     18  C   UNL     1       6.470   4.973  14.929  0.00  0.00    +0.000 A 
ATOM     19  C   UNL     1       7.552   5.227  14.036  0.00  0.00    +0.000 A 
ATOM     20  C   UNL     1       7.603   4.575  12.781  0.00  0.00    +0.000 A 
ENDBRANCH   1  18
TORSDOF 2
ENDMDL
MODEL 4
REMARK VINA RESULT:      -7.2      2.423      6.008
REMARK  Name = 
REMARK  3 active torsions:
REMARK  status: ('A' for Active; 'I' for Inactive)
REMARK    1  A    between atoms: C_1  and  C_2
REMARK    2  A    between atoms: C_5  and  S_6
REMARK    3  A    between atoms: S_6  and  N_9
REMARK                            x       y       z     vdW  Elec       q    Type
REMARK                         _______ _______ _______ _____ _____    ______ ____
ROOT
ATOM      1  S   UNL     1       7.116   5.345  17.709  0.00  0.00    +0.000 S 
ATOM      2  O   UNL     1       7.991   4.298  18.199  0.00  0.00    +0.000 OA
ATOM      3  O   UNL     1       7.586   6.717  17.623  0.00  0.00    +0.000 OA
ENDROOT
BRANCH   1   4
ATOM      4  N   UNL     1       5.585   5.321  18.611  0.00  0.00    +0.000 N 
ATOM      5  C   UNL     1       5.340   3.915  19.002  0.00  0.00    +0.000 C 
ATOM      6  C   UNL     1       4.114   3.648  19.831  0.00  0.00    +0.000 C 
ATOM      7  C   UNL     1       3.037   4.688  19.947  0.00  0.00    +0.000 C 
ATOM      8  C   UNL     1       3.180   5.866  19.054  0.00  0.00    +0.000 A 
ATOM      9  C   UNL     1       2.027   6.700  19.045  0.00  0.00    +0.000 A 
ATOM     10  C   UNL     1       1.986   7.831  18.257  0.00  0.00    +0.000 A 
ATOM     11  C   UNL     1       3.113   8.107  17.498  0.00  0.00    +0.000 A 
ATOM     12  C   UNL     1       4.291   7.295  17.529  0.00  0.00    +0.000 A 
ATOM     13  C   UNL     1       4.367   6.129  18.305  0.00  0.00    +0.000 A 
ENDBRANCH   1   4
BRANCH   1  18
ATOM     14  C   UNL     1       5.665   3.243  12.031  0.00  0.00    +0.000 C 
ATOM     15  C   UNL     1       5.994   3.852  13.378  0.00  0.00    +0.000 A 
ATOM     16  C   UNL     1       5.196   3.576  14.493  0.00  0.00    +0.000 A 
ATOM     17  C   UNL     1       5.527   4.056  15.776  0.00  0.00    +0.000 A 
ATOM     18  C   UNL     1       6.670   4.837  15.975  0.00  0.00    +0.000 A 
ATOM     19  C   UNL     1       7.462   5.175  14.839  0.00  0.00    +0.000 A 
ATOM     20  C   UNL     1       7.113   4.681  13.560  0.00  0.00    +0.000 A 
ENDBRANCH   1  18
TORSDOF 2
ENDMDL
MODEL 5
REMARK VINA RESULT:      -7.1      2.621      5.529
REMARK  Name = 
REMARK  3 active torsions:
REMARK  status: ('A' for Active; 'I' for Inactive)
REMARK    1  A    between atoms: C_1  and  C_2
REMARK    2  A    between atoms: C_5  and  S_6
REMARK    3  A    between atoms: S_6  and  N_9
REMARK                            x       y       z     vdW  Elec       q    Type
REMARK                         _______ _______ _______ _____ _____    ______ ____
ROOT
ATOM      1  S   UNL     1       5.385   4.470  16.610  0.00  0.00    +0.000 S 
ATOM      2  O   UNL     1       4.570   5.103  15.591  0.00  0.00    +0.000 OA
ATOM      3  O   UNL     1       6.323   3.420  16.256  0.00  0.00    +0.000 OA
ENDROOT
BRANCH   1   4
ATOM      4  N   UNL     1       4.351   3.890  17.934  0.00  0.00    +0.000 N 
ATOM      5  C   UNL     1       3.928   2.517  17.578  0.00  0.00    +0.000 C 
ATOM      6  C   UNL     1       3.079   1.789  18.583  0.00  0.00    +0.000 C 
ATOM      7  C   UNL     1       2.420   2.541  19.704  0.00  0.00    +0.000 C 
ATOM      8  C   UNL     1       2.506   4.022  19.625  0.00  0.00    +0.000 A 
ATOM      9  C   UNL     1       1.682   4.679  20.581  0.00  0.00    +0.000 A 
ATOM     10  C   UNL     1       1.632   6.055  20.635  0.00  0.00    +0.000 A 
ATOM     11  C   UNL     1       2.421   6.747  19.729  0.00  0.00    +0.000 A 
ATOM     12  C   UNL     1       3.281   6.096  18.789  0.00  0.00    +0.000 A 
ATOM     13  C   UNL     1       3.350   4.698  18.693  0.00  0.00    +0.000 A 
ENDBRANCH   1   4
BRANCH   1  18
ATOM     14  C   UNL     1       8.931   9.142  18.697  0.00  0.00    +0.000 C 
ATOM     15  C   UNL     1       8.024   8.003  18.286  0.00  0.00    +0.000 A 
ATOM     16  C   UNL     1       7.013   8.209  17.342  0.00  0.00    +0.000 A 
ATOM     17  C   UNL     1       6.210   7.149  16.874  0.00  0.00    +0.000 A 
ATOM     18  C   UNL     1       6.397   5.847  17.349  0.00  0.00    +0.000 A 
ATOM     19  C   UNL     1       7.385   5.630  18.353  0.00  0.00    +0.000 A 
ATOM     20  C   UNL     1       8.181   6.708  18.808  0.00  0.00    +0.000 A 
ENDBRANCH   1  18
TORSDOF 2
ENDMDL
MODEL 6
REMARK VINA RESULT:      -7.1      2.605      6.078
REMARK  Name = 
REMARK  3 active torsions:
REMARK  status: ('A' for Active; 'I' for Inactive)
REMARK    1  A    between atoms: C_1  and  C_2
REMARK    2  A    between atoms: C_5  and  S_6
REMARK    3  A    between atoms: S_6  and  N_9
REMARK                            x       y       z     vdW  Elec       q    Type
REMARK                         _______ _______ _______ _____ _____    ______ ____
ROOT
ATOM      1  S   UNL     1       6.091   5.394  17.860  0.00  0.00    +0.000 S 
ATOM      2  O   UNL     1       6.819   4.362  18.571  0.00  0.00    +0.000 OA
ATOM      3  O   UNL     1       6.514   6.781  17.938  0.00  0.00    +0.000 OA
ENDROOT
BRANCH   1   4
ATOM      4  N   UNL     1       4.363   5.301  18.266  0.00  0.00    +0.000 N 
ATOM      5  C   UNL     1       4.041   6.513  19.052  0.00  0.00    +0.000 C 
ATOM      6  C   UNL     1       2.607   6.686  19.470  0.00  0.00    +0.000 C 
ATOM      7  C   UNL     1       1.650   5.531  19.393  0.00  0.00    +0.000 C 
ATOM      8  C   UNL     1       2.257   4.212  19.079  0.00  0.00    +0.000 A 
ATOM      9  C   UNL     1       1.349   3.129  19.240  0.00  0.00    +0.000 A 
ATOM     10  C   UNL     1       1.754   1.833  19.003  0.00  0.00    +0.000 A 
ATOM     11  C   UNL     1       3.067   1.651  18.598  0.00  0.00    +0.000 A 
ATOM     12  C   UNL     1       3.978   2.736  18.398  0.00  0.00    +0.000 A 
ATOM     13  C   UNL     1       3.609   4.067  18.642  0.00  0.00    +0.000 A 
ENDBRANCH   1   4
BRANCH   1  18
ATOM     14  C   UNL     1       6.384   3.398  11.970  0.00  0.00    +0.000 C 
ATOM     15  C   UNL     1       6.316   3.983  13.365  0.00  0.00    +0.000 A 
ATOM     16  C   UNL     1       5.155   3.847  14.133  0.00  0.00    +0.000 A 
ATOM     17  C   UNL     1       5.092   4.302  15.465  0.00  0.00    +0.000 A 
ATOM     18  C   UNL     1       6.196   4.917  16.064  0.00  0.00    +0.000 A 
ATOM     19  C   UNL     1       7.368   5.115  15.276  0.00  0.00    +0.000 A 
ATOM     20  C   UNL     1       7.411   4.648  13.941  0.00  0.00    +0.000 A 
ENDBRANCH   1  18
TORSDOF 2
ENDMDL
MODEL 7
REMARK VINA RESULT:      -7.1      2.680      6.389
REMARK  Name = 
REMARK  3 active torsions:
REMARK  status: ('A' for Active; 'I' for Inactive)
REMARK    1  A    between atoms: C_1  and  C_2
REMARK    2  A    between atoms: C_5  and  S_6
REMARK    3  A    between atoms: S_6  and  N_9
REMARK                            x       y       z     vdW  Elec       q    Type
REMARK                         _______ _______ _______ _____ _____    ______ ____
ROOT
ATOM      1  S   UNL     1       6.245   5.739  16.880  0.00  0.00    +0.000 S 
ATOM      2  O   UNL     1       6.924   4.839  17.792  0.00  0.00    +0.000 OA
ATOM      3  O   UNL     1       6.669   7.123  16.759  0.00  0.00    +0.000 OA
ENDROOT
BRANCH   1   4
ATOM      4  N   UNL     1       4.496   5.702  17.190  0.00  0.00    +0.000 N 
ATOM      5  C   UNL     1       4.133   7.020  17.758  0.00  0.00    +0.000 C 
ATOM      6  C   UNL     1       2.677   7.250  18.056  0.00  0.00    +0.000 C 
ATOM      7  C   UNL     1       1.720   6.093  18.101  0.00  0.00    +0.000 C 
ATOM      8  C   UNL     1       2.338   4.744  18.031  0.00  0.00    +0.000 A 
ATOM      9  C   UNL     1       1.416   3.695  18.302  0.00  0.00    +0.000 A 
ATOM     10  C   UNL     1       1.828   2.379  18.294  0.00  0.00    +0.000 A 
ATOM     11  C   UNL     1       3.162   2.142  18.003  0.00  0.00    +0.000 A 
ATOM     12  C   UNL     1       4.090   3.187  17.694  0.00  0.00    +0.000 A 
ATOM     13  C   UNL     1       3.713   4.539  17.706  0.00  0.00    +0.000 A 
ENDBRANCH   1   4
BRANCH   1  18
ATOM     14  C   UNL     1       6.931   3.581  11.081  0.00  0.00    +0.000 C 
ATOM     15  C   UNL     1       6.784   4.007  12.526  0.00  0.00    +0.000 A 
ATOM     16  C   UNL     1       7.720   4.868  13.108  0.00  0.00    +0.000 A 
ATOM     17  C   UNL     1       7.562   5.352  14.423  0.00  0.00    +0.000 A 
ATOM     18  C   UNL     1       6.458   4.978  15.195  0.00  0.00    +0.000 A 
ATOM     19  C   UNL     1       5.525   4.056  14.636  0.00  0.00    +0.000 A 
ATOM     20  C   UNL     1       5.702   3.584  13.314  0.00  0.00    +0.000 A 
ENDBRANCH   1  18
TORSDOF 2
ENDMDL
MODEL 8
REMARK VINA RESULT:      -7.0      2.422      6.056
REMARK  Name = 
REMARK  3 active torsions:
REMARK  status: ('A' for Active; 'I' for Inactive)
REMARK    1  A    between atoms: C_1  and  C_2
REMARK    2  A    between atoms: C_5  and  S_6
REMARK    3  A    between atoms: S_6  and  N_9
REMARK                            x       y       z     vdW  Elec       q    Type
REMARK                         _______ _______ _______ _____ _____    ______ ____
ROOT
ATOM      1  S   UNL     1       7.105   5.327  17.705  0.00  0.00    +0.000 S 
ATOM      2  O   UNL     1       8.015   4.351  18.272  0.00  0.00    +0.000 OA
ATOM      3  O   UNL     1       7.534   6.698  17.492  0.00  0.00    +0.000 OA
ENDROOT
BRANCH   1   4
ATOM      4  N   UNL     1       5.586   5.340  18.628  0.00  0.00    +0.000 N 
ATOM      5  C   UNL     1       5.338   3.948  19.065  0.00  0.00    +0.000 C 
ATOM      6  C   UNL     1       4.123   3.714  19.919  0.00  0.00    +0.000 C 
ATOM      7  C   UNL     1       3.053   4.764  20.018  0.00  0.00    +0.000 C 
ATOM      8  C   UNL     1       3.191   5.914  19.087  0.00  0.00    +0.000 A 
ATOM      9  C   UNL     1       2.043   6.754  19.067  0.00  0.00    +0.000 A 
ATOM     10  C   UNL     1       1.998   7.861  18.246  0.00  0.00    +0.000 A 
ATOM     11  C   UNL     1       3.116   8.106  17.464  0.00  0.00    +0.000 A 
ATOM     12  C   UNL     1       4.289   7.288  17.503  0.00  0.00    +0.000 A 
ATOM     13  C   UNL     1       4.369   6.146  18.314  0.00  0.00    +0.000 A 
ENDBRANCH   1   4
BRANCH   1  18
ATOM     14  C   UNL     1       5.545   3.479  11.968  0.00  0.00    +0.000 C 
ATOM     15  C   UNL     1       5.946   3.826  13.386  0.00  0.00    +0.000 A 
ATOM     16  C   UNL     1       7.100   4.577  13.631  0.00  0.00    +0.000 A 
ATOM     17  C   UNL     1       7.451   4.992  14.932  0.00  0.00    +0.000 A 
ATOM     18  C   UNL     1       6.652   4.655  16.029  0.00  0.00    +0.000 A 
ATOM     19  C   UNL     1       5.503   3.842  15.803  0.00  0.00    +0.000 A 
ATOM     20  C   UNL     1       5.168   3.439  14.489  0.00  0.00    +0.000 A 
ENDBRANCH   1  18
TORSDOF 2
ENDMDL
MODEL 9
REMARK VINA RESULT:      -7.0      2.339      6.306
REMARK  Name = 
REMARK  3 active torsions:
REMARK  status: ('A' for Active; 'I' for Inactive)
REMARK    1  A    between atoms: C_1  and  C_2
REMARK    2  A    between atoms: C_5  and  S_6
REMARK    3  A    between atoms: S_6  and  N_9
REMARK                            x       y       z     vdW  Elec       q    Type
REMARK                         _______ _______ _______ _____ _____    ______ ____
ROOT
ATOM      1  S   UNL     1       6.075   5.266  17.997  0.00  0.00    +0.000 S 
ATOM      2  O   UNL     1       6.576   4.097  18.692  0.00  0.00    +0.000 OA
ATOM      3  O   UNL     1       6.729   6.553  18.156  0.00  0.00    +0.000 OA
ENDROOT
BRANCH   1   4
ATOM      4  N   UNL     1       4.339   5.463  18.324  0.00  0.00    +0.000 N 
ATOM      5  C   UNL     1       4.037   6.905  18.182  0.00  0.00    +0.000 C 
ATOM      6  C   UNL     1       2.602   7.316  18.361  0.00  0.00    +0.000 C 
ATOM      7  C   UNL     1       1.616   6.371  18.986  0.00  0.00    +0.000 C 
ATOM      8  C   UNL     1       2.192   5.134  19.573  0.00  0.00    +0.000 A 
ATOM      9  C   UNL     1       1.252   4.393  20.342  0.00  0.00    +0.000 A 
ATOM     10  C   UNL     1       1.626   3.224  20.969  0.00  0.00    +0.000 A 
ATOM     11  C   UNL     1       2.941   2.816  20.802  0.00  0.00    +0.000 A 
ATOM     12  C   UNL     1       3.884   3.534  20.001  0.00  0.00    +0.000 A 
ATOM     13  C   UNL     1       3.546   4.735  19.359  0.00  0.00    +0.000 A 
ENDBRANCH   1   4
BRANCH   1  18
ATOM     14  C   UNL     1       6.435   3.446  12.054  0.00  0.00    +0.000 C 
ATOM     15  C   UNL     1       6.339   3.988  13.464  0.00  0.00    +0.000 A 
ATOM     16  C   UNL     1       5.219   3.710  14.254  0.00  0.00    +0.000 A 
ATOM     17  C   UNL     1       5.141   4.126  15.599  0.00  0.00    +0.000 A 
ATOM     18  C   UNL     1       6.187   4.843  16.187  0.00  0.00    +0.000 A 
ATOM     19  C   UNL     1       7.310   5.184  15.379  0.00  0.00    +0.000 A 
ATOM     20  C   UNL     1       7.370   4.755  14.032  0.00  0.00    +0.000 A 
ENDBRANCH   1  18
TORSDOF 2
ENDMDL
