MODEL 1
REMARK VINA RESULT:      -7.5      0.000      0.000
REMARK  Name = 
REMARK  6 active torsions:
REMARK  status: ('A' for Active; 'I' for Inactive)
REMARK    1  A    between atoms: C_1  and  C_2
REMARK    2  A    between atoms: C_5  and  S_6
REMARK    3  A    between atoms: S_6  and  N_9
REMARK    4  A    between atoms: C_12  and  S_13
REMARK    5  A    between atoms: S_13  and  C_14
REMARK    6  A    between atoms: C_27  and  C_28
REMARK                            x       y       z     vdW  Elec       q    Type
REMARK                         _______ _______ _______ _____ _____    ______ ____
ROOT
ATOM      1  N   UNL     1       3.954   5.951  17.016  0.00  0.00    +0.000 NA
ATOM      2  C   UNL     1       2.987   6.295  17.818  0.00  0.00    +0.000 C 
ATOM      3  C   UNL     1       2.607   7.737  17.797  0.00  0.00    +0.000 C 
ATOM      4  C   UNL     1       2.071   8.345  18.865  0.00  0.00    +0.000 C 
ATOM      5  C   UNL     1       1.850   7.578  20.127  0.00  0.00    +0.000 C 
ATOM      6  O   UNL     1       1.669   8.110  21.216  0.00  0.00    +0.000 OA
ATOM      7  C   UNL     1       1.829   6.102  20.004  0.00  0.00    +0.000 A 
ATOM      8  C   UNL     1       1.329   5.333  21.064  0.00  0.00    +0.000 A 
ATOM      9  C   UNL     1       1.175   3.956  20.913  0.00  0.00    +0.000 A 
ATOM     10  C   UNL     1       1.449   3.362  19.685  0.00  0.00    +0.000 A 
ATOM     11  C   UNL     1       1.959   4.129  18.635  0.00  0.00    +0.000 A 
ATOM     12  C   UNL     1       2.245   5.484  18.820  0.00  0.00    +0.000 A 
ENDROOT
BRANCH   1  13
ATOM     13  S   UNL     1       4.671   4.492  16.996  0.00  0.00    +0.000 S 
ATOM     14  O   UNL     1       3.646   3.491  16.763  0.00  0.00    +0.000 OA
ATOM     15  O   UNL     1       5.581   4.399  18.123  0.00  0.00    +0.000 OA
BRANCH  13  20
ATOM     16  C   UNL     1       7.699   4.798  11.740  0.00  0.00    +0.000 C 
ATOM     17  C   UNL     1       7.062   4.602  13.085  0.00  0.00    +0.000 A 
ATOM     18  C   UNL     1       6.042   3.667  13.267  0.00  0.00    +0.000 A 
ATOM     19  C   UNL     1       5.363   3.592  14.486  0.00  0.00    +0.000 A 
ATOM     20  C   UNL     1       5.717   4.443  15.540  0.00  0.00    +0.000 A 
ATOM     21  C   UNL     1       6.824   5.305  15.418  0.00  0.00    +0.000 A 
ATOM     22  C   UNL     1       7.375   6.166  16.524  0.00  0.00    +0.000 C 
ATOM     23  C   UNL     1       7.483   5.372  14.176  0.00  0.00    +0.000 A 
ENDBRANCH  13  20
ENDBRANCH   1  13
BRANCH   4  24
ATOM     24  S   UNL     1       1.829  10.059  18.881  0.00  0.00    +0.000 S 
BRANCH  24  25
ATOM     25  C   UNL     1       0.103  10.154  18.619  0.00  0.00    +0.000 A 
ATOM     26  N   UNL     1      -0.557   9.727  17.491  0.00  0.00    +0.000 NA
ATOM     27  C   UNL     1      -1.811  10.014  17.758  0.00  0.00    +0.000 A 
ATOM     28  N   UNL     1      -1.893  10.631  18.966  0.00  0.00    +0.000 N 
ATOM     29  N   UNL     1      -0.681  10.747  19.525  0.00  0.00    +0.000 NA
ATOM     30  H   UNL     1      -2.705  10.993  19.453  0.00  0.00    +0.000 HD
ENDBRANCH  24  25
ENDBRANCH   4  24
TORSDOF 4
ENDMDL
MODEL 2
REMARK VINA RESULT:      -7.5      2.687      8.124
REMARK  Name = 
REMARK  6 active torsions:
REMARK  status: ('A' for Active; 'I' for Inactive)
REMARK    1  A    between atoms: C_1  and  C_2
REMARK    2  A    between atoms: C_5  and  S_6
REMARK    3  A    between atoms: S_6  and  N_9
REMARK    4  A    between atoms: C_12  and  S_13
REMARK    5  A    between atoms: S_13  and  C_14
REMARK    6  A    between atoms: C_27  and  C_28
REMARK                            x       y       z     vdW  Elec       q    Type
REMARK                         _______ _______ _______ _____ _____    ______ ____
ROOT
ATOM      1  N   UNL     1       2.268   9.297  17.998  0.00  0.00    +0.000 NA
ATOM      2  C   UNL     1       2.788   8.121  18.214  0.00  0.00    +0.000 C 
ATOM      3  C   UNL     1       3.963   7.765  17.368  0.00  0.00    +0.000 C 
ATOM      4  C   UNL     1       4.260   6.492  17.067  0.00  0.00    +0.000 C 
ATOM      5  C   UNL     1       3.398   5.384  17.574  0.00  0.00    +0.000 C 
ATOM      6  O   UNL     1       3.406   4.253  17.103  0.00  0.00    +0.000 OA
ATOM      7  C   UNL     1       2.521   5.708  18.724  0.00  0.00    +0.000 A 
ATOM      8  C   UNL     1       1.921   4.665  19.443  0.00  0.00    +0.000 A 
ATOM      9  C   UNL     1       1.206   4.942  20.606  0.00  0.00    +0.000 A 
ATOM     10  C   UNL     1       1.155   6.246  21.089  0.00  0.00    +0.000 A 
ATOM     11  C   UNL     1       1.743   7.285  20.365  0.00  0.00    +0.000 A 
ATOM     12  C   UNL     1       2.343   7.035  19.127  0.00  0.00    +0.000 A 
ENDROOT
BRANCH   1  13
ATOM     13  S   UNL     1       0.880   9.833  18.651  0.00  0.00    +0.000 S 
ATOM     14  O   UNL     1       0.790   9.315  20.004  0.00  0.00    +0.000 OA
ATOM     15  O   UNL     1      -0.194   9.645  17.693  0.00  0.00    +0.000 OA
BRANCH  13  20
ATOM     16  C   UNL     1       1.254  15.894  18.532  0.00  0.00    +0.000 C 
ATOM     17  C   UNL     1       1.222  14.405  18.720  0.00  0.00    +0.000 A 
ATOM     18  C   UNL     1       2.324  13.616  18.388  0.00  0.00    +0.000 A 
ATOM     19  C   UNL     1       2.234  12.222  18.435  0.00  0.00    +0.000 A 
ATOM     20  C   UNL     1       1.041  11.609  18.837  0.00  0.00    +0.000 A 
ATOM     21  C   UNL     1      -0.040  12.387  19.296  0.00  0.00    +0.000 A 
ATOM     22  C   UNL     1      -1.317  11.837  19.872  0.00  0.00    +0.000 C 
ATOM     23  C   UNL     1       0.070  13.789  19.225  0.00  0.00    +0.000 A 
ENDBRANCH  13  20
ENDBRANCH   1  13
BRANCH   4  24
ATOM     24  S   UNL     1       5.504   6.120  15.921  0.00  0.00    +0.000 S 
BRANCH  24  25
ATOM     25  C   UNL     1       6.730   5.444  16.969  0.00  0.00    +0.000 A 
ATOM     26  N   UNL     1       7.096   5.947  18.195  0.00  0.00    +0.000 NA
ATOM     27  C   UNL     1       8.042   5.121  18.581  0.00  0.00    +0.000 A 
ATOM     28  N   UNL     1       8.268   4.198  17.610  0.00  0.00    +0.000 N 
ATOM     29  N   UNL     1       7.454   4.396  16.564  0.00  0.00    +0.000 NA
ATOM     30  H   UNL     1       8.937   3.436  17.586  0.00  0.00    +0.000 HD
ENDBRANCH  24  25
ENDBRANCH   4  24
TORSDOF 4
ENDMDL
MODEL 3
REMARK VINA RESULT:      -7.4      6.539     10.520
REMARK  Name = 
REMARK  6 active torsions:
REMARK  status: ('A' for Active; 'I' for Inactive)
REMARK    1  A    between atoms: C_1  and  C_2
REMARK    2  A    between atoms: C_5  and  S_6
REMARK    3  A    between atoms: S_6  and  N_9
REMARK    4  A    between atoms: C_12  and  S_13
REMARK    5  A    between atoms: S_13  and  C_14
REMARK    6  A    between atoms: C_27  and  C_28
REMARK                            x       y       z     vdW  Elec       q    Type
REMARK                         _______ _______ _______ _____ _____    ______ ____
ROOT
ATOM      1  N   UNL     1      -2.816  12.196  21.647  0.00  0.00    +0.000 NA
ATOM      2  C   UNL     1      -3.832  12.860  22.122  0.00  0.00    +0.000 C 
ATOM      3  C   UNL     1      -5.139  12.624  21.444  0.00  0.00    +0.000 C 
ATOM      4  C   UNL     1      -6.103  13.555  21.416  0.00  0.00    +0.000 C 
ATOM      5  C   UNL     1      -5.879  14.880  22.066  0.00  0.00    +0.000 C 
ATOM      6  O   UNL     1      -6.555  15.873  21.825  0.00  0.00    +0.000 OA
ATOM      7  C   UNL     1      -4.790  14.943  23.069  0.00  0.00    +0.000 A 
ATOM      8  C   UNL     1      -4.718  16.045  23.933  0.00  0.00    +0.000 A 
ATOM      9  C   UNL     1      -3.786  16.058  24.969  0.00  0.00    +0.000 A 
ATOM     10  C   UNL     1      -2.982  14.943  25.186  0.00  0.00    +0.000 A 
ATOM     11  C   UNL     1      -3.047  13.853  24.316  0.00  0.00    +0.000 A 
ATOM     12  C   UNL     1      -3.881  13.889  23.195  0.00  0.00    +0.000 A 
ENDROOT
BRANCH   1  13
ATOM     13  S   UNL     1      -1.269  12.424  22.087  0.00  0.00    +0.000 S 
ATOM     14  O   UNL     1      -1.056  11.745  23.353  0.00  0.00    +0.000 OA
ATOM     15  O   UNL     1      -0.931  13.824  21.910  0.00  0.00    +0.000 OA
BRANCH  13  20
ATOM     16  C   UNL     1       1.568   8.960  17.983  0.00  0.00    +0.000 C 
ATOM     17  C   UNL     1       1.017   9.895  19.019  0.00  0.00    +0.000 A 
ATOM     18  C   UNL     1       1.035   9.556  20.374  0.00  0.00    +0.000 A 
ATOM     19  C   UNL     1       0.394  10.368  21.313  0.00  0.00    +0.000 A 
ATOM     20  C   UNL     1      -0.253  11.540  20.903  0.00  0.00    +0.000 A 
ATOM     21  C   UNL     1      -0.175  11.964  19.561  0.00  0.00    +0.000 A 
ATOM     22  C   UNL     1      -0.717  13.266  19.034  0.00  0.00    +0.000 C 
ATOM     23  C   UNL     1       0.464  11.121  18.631  0.00  0.00    +0.000 A 
ENDBRANCH  13  20
ENDBRANCH   1  13
BRANCH   4  24
ATOM     24  S   UNL     1      -7.524  13.332  20.452  0.00  0.00    +0.000 S 
BRANCH  24  25
ATOM     25  C   UNL     1      -7.457  11.609  20.158  0.00  0.00    +0.000 A 
ATOM     26  N   UNL     1      -7.657  10.631  21.102  0.00  0.00    +0.000 NA
ATOM     27  C   UNL     1      -7.496   9.521  20.415  0.00  0.00    +0.000 A 
ATOM     28  N   UNL     1      -7.164   9.822  19.133  0.00  0.00    +0.000 N 
ATOM     29  N   UNL     1      -7.115  11.148  18.950  0.00  0.00    +0.000 NA
ATOM     30  H   UNL     1      -6.956   9.202  18.357  0.00  0.00    +0.000 HD
ENDBRANCH  24  25
ENDBRANCH   4  24
TORSDOF 4
ENDMDL
MODEL 4
REMARK VINA RESULT:      -7.3      2.920      7.564
REMARK  Name = 
REMARK  6 active torsions:
REMARK  status: ('A' for Active; 'I' for Inactive)
REMARK    1  A    between atoms: C_1  and  C_2
REMARK    2  A    between atoms: C_5  and  S_6
REMARK    3  A    between atoms: S_6  and  N_9
REMARK    4  A    between atoms: C_12  and  S_13
REMARK    5  A    between atoms: S_13  and  C_14
REMARK    6  A    between atoms: C_27  and  C_28
REMARK                            x       y       z     vdW  Elec       q    Type
REMARK                         _______ _______ _______ _____ _____    ______ ____
ROOT
ATOM      1  N   UNL     1       2.550   7.653  19.908  0.00  0.00    +0.000 NA
ATOM      2  C   UNL     1       2.997   6.491  19.523  0.00  0.00    +0.000 C 
ATOM      3  C   UNL     1       4.137   6.518  18.563  0.00  0.00    +0.000 C 
ATOM      4  C   UNL     1       4.349   5.526  17.686  0.00  0.00    +0.000 C 
ATOM      5  C   UNL     1       3.423   4.356  17.645  0.00  0.00    +0.000 C 
ATOM      6  O   UNL     1       3.354   3.583  16.696  0.00  0.00    +0.000 OA
ATOM      7  C   UNL     1       2.582   4.141  18.846  0.00  0.00    +0.000 A 
ATOM      8  C   UNL     1       1.925   2.914  19.011  0.00  0.00    +0.000 A 
ATOM      9  C   UNL     1       1.242   2.643  20.195  0.00  0.00    +0.000 A 
ATOM     10  C   UNL     1       1.279   3.564  21.238  0.00  0.00    +0.000 A 
ATOM     11  C   UNL     1       1.924   4.791  21.066  0.00  0.00    +0.000 A 
ATOM     12  C   UNL     1       2.494   5.126  19.834  0.00  0.00    +0.000 A 
ENDROOT
BRANCH   1  13
ATOM     13  S   UNL     1       1.206   7.887  20.792  0.00  0.00    +0.000 S 
ATOM     14  O   UNL     1       1.608   8.127  22.166  0.00  0.00    +0.000 OA
ATOM     15  O   UNL     1       0.236   6.863  20.453  0.00  0.00    +0.000 OA
BRANCH  13  20
ATOM     16  C   UNL     1      -0.656  13.458  19.249  0.00  0.00    +0.000 C 
ATOM     17  C   UNL     1      -0.346  12.025  19.571  0.00  0.00    +0.000 A 
ATOM     18  C   UNL     1      -0.677  11.481  20.814  0.00  0.00    +0.000 A 
ATOM     19  C   UNL     1      -0.259  10.192  21.153  0.00  0.00    +0.000 A 
ATOM     20  C   UNL     1       0.478   9.429  20.239  0.00  0.00    +0.000 A 
ATOM     21  C   UNL     1       0.714   9.912  18.936  0.00  0.00    +0.000 A 
ATOM     22  C   UNL     1       1.377   9.131  17.833  0.00  0.00    +0.000 C 
ATOM     23  C   UNL     1       0.295  11.219  18.623  0.00  0.00    +0.000 A 
ENDBRANCH  13  20
ENDBRANCH   1  13
BRANCH   4  24
ATOM     24  S   UNL     1       5.553   5.677  16.451  0.00  0.00    +0.000 S 
BRANCH  24  25
ATOM     25  C   UNL     1       6.763   6.628  17.282  0.00  0.00    +0.000 A 
ATOM     26  N   UNL     1       7.143   7.905  16.945  0.00  0.00    +0.000 NA
ATOM     27  C   UNL     1       8.069   8.181  17.837  0.00  0.00    +0.000 A 
ATOM     28  N   UNL     1       8.270   7.102  18.637  0.00  0.00    +0.000 N 
ATOM     29  N   UNL     1       7.460   6.092  18.289  0.00  0.00    +0.000 NA
ATOM     30  H   UNL     1       8.921   6.980  19.405  0.00  0.00    +0.000 HD
ENDBRANCH  24  25
ENDBRANCH   4  24
TORSDOF 4
ENDMDL
MODEL 5
REMARK VINA RESULT:      -7.3      7.293     11.181
REMARK  Name = 
REMARK  6 active torsions:
REMARK  status: ('A' for Active; 'I' for Inactive)
REMARK    1  A    between atoms: C_1  and  C_2
REMARK    2  A    between atoms: C_5  and  S_6
REMARK    3  A    between atoms: S_6  and  N_9
REMARK    4  A    between atoms: C_12  and  S_13
REMARK    5  A    between atoms: S_13  and  C_14
REMARK    6  A    between atoms: C_27  and  C_28
REMARK                            x       y       z     vdW  Elec       q    Type
REMARK                         _______ _______ _______ _____ _____    ______ ____
ROOT
ATOM      1  N   UNL     1      -2.745  12.729  22.634  0.00  0.00    +0.000 NA
ATOM      2  C   UNL     1      -3.696  13.293  23.323  0.00  0.00    +0.000 C 
ATOM      3  C   UNL     1      -5.005  12.581  23.329  0.00  0.00    +0.000 C 
ATOM      4  C   UNL     1      -6.166  13.231  23.494  0.00  0.00    +0.000 C 
ATOM      5  C   UNL     1      -6.173  14.714  23.668  0.00  0.00    +0.000 C 
ATOM      6  O   UNL     1      -7.171  15.407  23.511  0.00  0.00    +0.000 OA
ATOM      7  C   UNL     1      -4.890  15.333  24.078  0.00  0.00    +0.000 A 
ATOM      8  C   UNL     1      -4.888  16.651  24.553  0.00  0.00    +0.000 A 
ATOM      9  C   UNL     1      -3.717  17.202  25.070  0.00  0.00    +0.000 A 
ATOM     10  C   UNL     1      -2.574  16.415  25.180  0.00  0.00    +0.000 A 
ATOM     11  C   UNL     1      -2.577  15.107  24.694  0.00  0.00    +0.000 A 
ATOM     12  C   UNL     1      -3.705  14.591  24.050  0.00  0.00    +0.000 A 
ENDROOT
BRANCH   1  13
ATOM     13  S   UNL     1      -1.299  13.403  22.319  0.00  0.00    +0.000 S 
ATOM     14  O   UNL     1      -0.538  13.431  23.555  0.00  0.00    +0.000 OA
ATOM     15  O   UNL     1      -1.501  14.599  21.524  0.00  0.00    +0.000 OA
BRANCH  13  20
ATOM     16  C   UNL     1       1.232   9.807  18.129  0.00  0.00    +0.000 C 
ATOM     17  C   UNL     1       0.702  10.613  19.279  0.00  0.00    +0.000 A 
ATOM     18  C   UNL     1      -0.431  10.200  19.983  0.00  0.00    +0.000 A 
ATOM     19  C   UNL     1      -0.996  11.026  20.958  0.00  0.00    +0.000 A 
ATOM     20  C   UNL     1      -0.416  12.268  21.248  0.00  0.00    +0.000 A 
ATOM     21  C   UNL     1       0.796  12.647  20.639  0.00  0.00    +0.000 A 
ATOM     22  C   UNL     1       1.576  13.892  20.968  0.00  0.00    +0.000 C 
ATOM     23  C   UNL     1       1.338  11.804  19.650  0.00  0.00    +0.000 A 
ENDBRANCH  13  20
ENDBRANCH   1  13
BRANCH   4  24
ATOM     24  S   UNL     1      -7.678  12.411  23.294  0.00  0.00    +0.000 S 
BRANCH  24  25
ATOM     25  C   UNL     1      -7.556  11.892  21.628  0.00  0.00    +0.000 A 
ATOM     26  N   UNL     1      -7.422  12.723  20.542  0.00  0.00    +0.000 NA
ATOM     27  C   UNL     1      -7.383  11.884  19.532  0.00  0.00    +0.000 A 
ATOM     28  N   UNL     1      -7.539  10.613  19.987  0.00  0.00    +0.000 N 
ATOM     29  N   UNL     1      -7.670  10.596  21.320  0.00  0.00    +0.000 NA
ATOM     30  H   UNL     1      -7.574   9.741  19.470  0.00  0.00    +0.000 HD
ENDBRANCH  24  25
ENDBRANCH   4  24
TORSDOF 4
ENDMDL
MODEL 6
REMARK VINA RESULT:      -7.2      4.712      7.852
REMARK  Name = 
REMARK  6 active torsions:
REMARK  status: ('A' for Active; 'I' for Inactive)
REMARK    1  A    between atoms: C_1  and  C_2
REMARK    2  A    between atoms: C_5  and  S_6
REMARK    3  A    between atoms: S_6  and  N_9
REMARK    4  A    between atoms: C_12  and  S_13
REMARK    5  A    between atoms: S_13  and  C_14
REMARK    6  A    between atoms: C_27  and  C_28
REMARK                            x       y       z     vdW  Elec       q    Type
REMARK                         _______ _______ _______ _____ _____    ______ ____
ROOT
ATOM      1  N   UNL     1       1.199  11.255  20.159  0.00  0.00    +0.000 NA
ATOM      2  C   UNL     1       0.817  12.446  20.523  0.00  0.00    +0.000 C 
ATOM      3  C   UNL     1       1.642  13.578  20.011  0.00  0.00    +0.000 C 
ATOM      4  C   UNL     1       1.744  14.738  20.676  0.00  0.00    +0.000 C 
ATOM      5  C   UNL     1       1.030  14.920  21.974  0.00  0.00    +0.000 C 
ATOM      6  O   UNL     1       1.312  15.798  22.782  0.00  0.00    +0.000 OA
ATOM      7  C   UNL     1      -0.087  13.986  22.245  0.00  0.00    +0.000 A 
ATOM      8  C   UNL     1      -0.990  14.279  23.277  0.00  0.00    +0.000 A 
ATOM      9  C   UNL     1      -2.121  13.486  23.458  0.00  0.00    +0.000 A 
ATOM     10  C   UNL     1      -2.389  12.452  22.566  0.00  0.00    +0.000 A 
ATOM     11  C   UNL     1      -1.482  12.155  21.547  0.00  0.00    +0.000 A 
ATOM     12  C   UNL     1      -0.278  12.857  21.442  0.00  0.00    +0.000 A 
ENDROOT
BRANCH   1  13
ATOM     13  S   UNL     1       0.585   9.865  20.736  0.00  0.00    +0.000 S 
ATOM     14  O   UNL     1      -0.772   9.732  20.237  0.00  0.00    +0.000 OA
ATOM     15  O   UNL     1       0.886   9.769  22.152  0.00  0.00    +0.000 OA
BRANCH  13  20
ATOM     16  C   UNL     1       3.004   5.023  17.980  0.00  0.00    +0.000 C 
ATOM     17  C   UNL     1       2.566   6.262  18.704  0.00  0.00    +0.000 A 
ATOM     18  C   UNL     1       2.249   6.225  20.063  0.00  0.00    +0.000 A 
ATOM     19  C   UNL     1       1.709   7.350  20.693  0.00  0.00    +0.000 A 
ATOM     20  C   UNL     1       1.501   8.529  19.967  0.00  0.00    +0.000 A 
ATOM     21  C   UNL     1       1.930   8.626  18.628  0.00  0.00    +0.000 A 
ATOM     22  C   UNL     1       1.878   9.877  17.793  0.00  0.00    +0.000 C 
ATOM     23  C   UNL     1       2.458   7.475  18.012  0.00  0.00    +0.000 A 
ENDBRANCH  13  20
ENDBRANCH   1  13
BRANCH   4  24
ATOM     24  S   UNL     1       2.865  15.955  20.166  0.00  0.00    +0.000 S 
BRANCH  24  25
ATOM     25  C   UNL     1       1.911  16.807  18.974  0.00  0.00    +0.000 A 
ATOM     26  N   UNL     1       0.546  16.965  19.010  0.00  0.00    +0.000 NA
ATOM     27  C   UNL     1       0.300  17.650  17.916  0.00  0.00    +0.000 A 
ATOM     28  N   UNL     1       1.456  17.848  17.230  0.00  0.00    +0.000 N 
ATOM     29  N   UNL     1       2.494  17.302  17.878  0.00  0.00    +0.000 NA
ATOM     30  H   UNL     1       1.610  18.320  16.345  0.00  0.00    +0.000 HD
ENDBRANCH  24  25
ENDBRANCH   4  24
TORSDOF 4
ENDMDL
MODEL 7
REMARK VINA RESULT:      -7.2      5.265      8.687
REMARK  Name = 
REMARK  6 active torsions:
REMARK  status: ('A' for Active; 'I' for Inactive)
REMARK    1  A    between atoms: C_1  and  C_2
REMARK    2  A    between atoms: C_5  and  S_6
REMARK    3  A    between atoms: S_6  and  N_9
REMARK    4  A    between atoms: C_12  and  S_13
REMARK    5  A    between atoms: S_13  and  C_14
REMARK    6  A    between atoms: C_27  and  C_28
REMARK                            x       y       z     vdW  Elec       q    Type
REMARK                         _______ _______ _______ _____ _____    ______ ____
ROOT
ATOM      1  N   UNL     1       0.700  12.338  19.458  0.00  0.00    +0.000 NA
ATOM      2  C   UNL     1       0.514  13.581  19.803  0.00  0.00    +0.000 C 
ATOM      3  C   UNL     1       1.004  14.605  18.837  0.00  0.00    +0.000 C 
ATOM      4  C   UNL     1       1.385  15.828  19.233  0.00  0.00    +0.000 C 
ATOM      5  C   UNL     1       1.338  16.193  20.680  0.00  0.00    +0.000 C 
ATOM      6  O   UNL     1       1.946  17.144  21.156  0.00  0.00    +0.000 OA
ATOM      7  C   UNL     1       0.475  15.351  21.541  0.00  0.00    +0.000 A 
ATOM      8  C   UNL     1       0.138  15.804  22.824  0.00  0.00    +0.000 A 
ATOM      9  C   UNL     1      -0.780  15.092  23.595  0.00  0.00    +0.000 A 
ATOM     10  C   UNL     1      -1.413  13.975  23.057  0.00  0.00    +0.000 A 
ATOM     11  C   UNL     1      -1.065  13.520  21.784  0.00  0.00    +0.000 A 
ATOM     12  C   UNL     1      -0.047  14.147  21.059  0.00  0.00    +0.000 A 
ENDROOT
BRANCH   1  13
ATOM     13  S   UNL     1       0.430  11.055  20.418  0.00  0.00    +0.000 S 
ATOM     14  O   UNL     1      -0.999  10.803  20.439  0.00  0.00    +0.000 OA
ATOM     15  O   UNL     1       1.191  11.216  21.644  0.00  0.00    +0.000 OA
BRANCH  13  20
ATOM     16  C   UNL     1       3.546   6.552  17.791  0.00  0.00    +0.000 C 
ATOM     17  C   UNL     1       2.635   7.589  18.381  0.00  0.00    +0.000 A 
ATOM     18  C   UNL     1       2.278   8.727  17.656  0.00  0.00    +0.000 A 
ATOM     19  C   UNL     1       1.546   9.750  18.264  0.00  0.00    +0.000 A 
ATOM     20  C   UNL     1       1.148   9.630  19.601  0.00  0.00    +0.000 A 
ATOM     21  C   UNL     1       1.390   8.437  20.311  0.00  0.00    +0.000 A 
ATOM     22  C   UNL     1       0.897   8.146  21.704  0.00  0.00    +0.000 C 
ATOM     23  C   UNL     1       2.142   7.427  19.681  0.00  0.00    +0.000 A 
ENDBRANCH  13  20
ENDBRANCH   1  13
BRANCH   4  24
ATOM     24  S   UNL     1       2.139  16.923  18.124  0.00  0.00    +0.000 S 
BRANCH  24  25
ATOM     25  C   UNL     1       3.802  16.386  18.206  0.00  0.00    +0.000 A 
ATOM     26  N   UNL     1       4.277  15.191  17.723  0.00  0.00    +0.000 NA
ATOM     27  C   UNL     1       5.556  15.240  18.024  0.00  0.00    +0.000 A 
ATOM     28  N   UNL     1       5.823  16.387  18.700  0.00  0.00    +0.000 N 
ATOM     29  N   UNL     1       4.714  17.125  18.844  0.00  0.00    +0.000 NA
ATOM     30  H   UNL     1       6.699  16.720  19.088  0.00  0.00    +0.000 HD
ENDBRANCH  24  25
ENDBRANCH   4  24
TORSDOF 4
ENDMDL
MODEL 8
REMARK VINA RESULT:      -7.2      5.258      9.203
REMARK  Name = 
REMARK  6 active torsions:
REMARK  status: ('A' for Active; 'I' for Inactive)
REMARK    1  A    between atoms: C_1  and  C_2
REMARK    2  A    between atoms: C_5  and  S_6
REMARK    3  A    between atoms: S_6  and  N_9
REMARK    4  A    between atoms: C_12  and  S_13
REMARK    5  A    between atoms: S_13  and  C_14
REMARK    6  A    between atoms: C_27  and  C_28
REMARK                            x       y       z     vdW  Elec       q    Type
REMARK                         _______ _______ _______ _____ _____    ______ ____
ROOT
ATOM      1  N   UNL     1      -1.648  11.770  20.504  0.00  0.00    +0.000 NA
ATOM      2  C   UNL     1      -2.520  12.583  21.030  0.00  0.00    +0.000 C 
ATOM      3  C   UNL     1      -3.910  12.479  20.501  0.00  0.00    +0.000 C 
ATOM      4  C   UNL     1      -4.751  13.523  20.506  0.00  0.00    +0.000 C 
ATOM      5  C   UNL     1      -4.301  14.842  21.042  0.00  0.00    +0.000 C 
ATOM      6  O   UNL     1      -4.873  15.898  20.802  0.00  0.00    +0.000 OA
ATOM      7  C   UNL     1      -3.112  14.819  21.927  0.00  0.00    +0.000 A 
ATOM      8  C   UNL     1      -2.816  15.948  22.704  0.00  0.00    +0.000 A 
ATOM      9  C   UNL     1      -1.785  15.897  23.640  0.00  0.00    +0.000 A 
ATOM     10  C   UNL     1      -1.104  14.702  23.851  0.00  0.00    +0.000 A 
ATOM     11  C   UNL     1      -1.392  13.584  23.067  0.00  0.00    +0.000 A 
ATOM     12  C   UNL     1      -2.329  13.666  22.032  0.00  0.00    +0.000 A 
ENDROOT
BRANCH   1  13
ATOM     13  S   UNL     1      -0.047  11.822  20.774  0.00  0.00    +0.000 S 
ATOM     14  O   UNL     1       0.186  11.478  22.165  0.00  0.00    +0.000 OA
ATOM     15  O   UNL     1       0.489  13.038  20.192  0.00  0.00    +0.000 OA
BRANCH  13  20
ATOM     16  C   UNL     1       3.112   7.530  17.859  0.00  0.00    +0.000 C 
ATOM     17  C   UNL     1       2.196   8.538  18.490  0.00  0.00    +0.000 A 
ATOM     18  C   UNL     1       2.022   9.802  17.926  0.00  0.00    +0.000 A 
ATOM     19  C   UNL     1       1.279  10.778  18.595  0.00  0.00    +0.000 A 
ATOM     20  C   UNL     1       0.686  10.485  19.830  0.00  0.00    +0.000 A 
ATOM     21  C   UNL     1       0.745   9.179  20.355  0.00  0.00    +0.000 A 
ATOM     22  C   UNL     1       0.039   8.717  21.602  0.00  0.00    +0.000 C 
ATOM     23  C   UNL     1       1.511   8.217  19.669  0.00  0.00    +0.000 A 
ENDBRANCH  13  20
ENDBRANCH   1  13
BRANCH   4  24
ATOM     24  S   UNL     1      -6.282  13.431  19.703  0.00  0.00    +0.000 S 
BRANCH  24  25
ATOM     25  C   UNL     1      -6.676  11.743  19.932  0.00  0.00    +0.000 A 
ATOM     26  N   UNL     1      -6.647  10.778  18.954  0.00  0.00    +0.000 NA
ATOM     27  C   UNL     1      -7.026   9.696  19.597  0.00  0.00    +0.000 A 
ATOM     28  N   UNL     1      -7.319  10.009  20.886  0.00  0.00    +0.000 N 
ATOM     29  N   UNL     1      -7.121  11.314  21.117  0.00  0.00    +0.000 NA
ATOM     30  H   UNL     1      -7.653   9.413  21.636  0.00  0.00    +0.000 HD
ENDBRANCH  24  25
ENDBRANCH   4  24
TORSDOF 4
ENDMDL
MODEL 9
REMARK VINA RESULT:      -7.2      2.950      7.656
REMARK  Name = 
REMARK  6 active torsions:
REMARK  status: ('A' for Active; 'I' for Inactive)
REMARK    1  A    between atoms: C_1  and  C_2
REMARK    2  A    between atoms: C_5  and  S_6
REMARK    3  A    between atoms: S_6  and  N_9
REMARK    4  A    between atoms: C_12  and  S_13
REMARK    5  A    between atoms: S_13  and  C_14
REMARK    6  A    between atoms: C_27  and  C_28
REMARK                            x       y       z     vdW  Elec       q    Type
REMARK                         _______ _______ _______ _____ _____    ______ ____
ROOT
ATOM      1  N   UNL     1       2.638   7.495  19.950  0.00  0.00    +0.000 NA
ATOM      2  C   UNL     1       3.070   6.324  19.574  0.00  0.00    +0.000 C 
ATOM      3  C   UNL     1       4.207   6.329  18.610  0.00  0.00    +0.000 C 
ATOM      4  C   UNL     1       4.406   5.327  17.742  0.00  0.00    +0.000 C 
ATOM      5  C   UNL     1       3.466   4.167  17.713  0.00  0.00    +0.000 C 
ATOM      6  O   UNL     1       3.386   3.387  16.771  0.00  0.00    +0.000 OA
ATOM      7  C   UNL     1       2.626   3.973  18.918  0.00  0.00    +0.000 A 
ATOM      8  C   UNL     1       1.955   2.755  19.096  0.00  0.00    +0.000 A 
ATOM      9  C   UNL     1       1.272   2.504  20.284  0.00  0.00    +0.000 A 
ATOM     10  C   UNL     1       1.323   3.433  21.319  0.00  0.00    +0.000 A 
ATOM     11  C   UNL     1       1.981   4.651  21.134  0.00  0.00    +0.000 A 
ATOM     12  C   UNL     1       2.551   4.968  19.897  0.00  0.00    +0.000 A 
ENDROOT
BRANCH   1  13
ATOM     13  S   UNL     1       1.299   7.752  20.834  0.00  0.00    +0.000 S 
ATOM     14  O   UNL     1       1.707   7.987  22.208  0.00  0.00    +0.000 OA
ATOM     15  O   UNL     1       0.311   6.744  20.498  0.00  0.00    +0.000 OA
BRANCH  13  20
ATOM     16  C   UNL     1      -1.627  12.590  18.617  0.00  0.00    +0.000 C 
ATOM     17  C   UNL     1      -0.782  11.503  19.214  0.00  0.00    +0.000 A 
ATOM     18  C   UNL     1       0.173  10.834  18.446  0.00  0.00    +0.000 A 
ATOM     19  C   UNL     1       0.855   9.733  18.971  0.00  0.00    +0.000 A 
ATOM     20  C   UNL     1       0.596   9.306  20.280  0.00  0.00    +0.000 A 
ATOM     21  C   UNL     1      -0.270  10.043  21.111  0.00  0.00    +0.000 A 
ATOM     22  C   UNL     1      -0.522   9.756  22.568  0.00  0.00    +0.000 C 
ATOM     23  C   UNL     1      -0.955  11.140  20.555  0.00  0.00    +0.000 A 
ENDBRANCH  13  20
ENDBRANCH   1  13
BRANCH   4  24
ATOM     24  S   UNL     1       5.608   5.453  16.502  0.00  0.00    +0.000 S 
BRANCH  24  25
ATOM     25  C   UNL     1       6.781   6.490  17.282  0.00  0.00    +0.000 A 
ATOM     26  N   UNL     1       7.082   7.777  16.906  0.00  0.00    +0.000 NA
ATOM     27  C   UNL     1       8.010   8.126  17.769  0.00  0.00    +0.000 A 
ATOM     28  N   UNL     1       8.288   7.080  18.590  0.00  0.00    +0.000 N 
ATOM     29  N   UNL     1       7.529   6.019  18.285  0.00  0.00    +0.000 NA
ATOM     30  H   UNL     1       8.961   7.013  19.346  0.00  0.00    +0.000 HD
ENDBRANCH  24  25
ENDBRANCH   4  24
TORSDOF 4
ENDMDL
