MODEL 1
REMARK VINA RESULT:      -7.9      0.000      0.000
REMARK  Name = 
REMARK  5 active torsions:
REMARK  status: ('A' for Active; 'I' for Inactive)
REMARK    1  A    between atoms: C_2  and  C_3
REMARK    2  A    between atoms: C_3  and  N_4
REMARK    3  A    between atoms: C_8  and  C_9
REMARK    4  A    between atoms: N_11  and  C_12
REMARK    5  A    between atoms: N_19  and  C_20
REMARK                            x       y       z     vdW  Elec       q    Type
REMARK                         _______ _______ _______ _____ _____    ______ ____
ROOT
ATOM      1  N   UNL     1       6.770   5.904  17.824  0.00  0.00    +0.000 N 
ATOM      2  C   UNL     1       6.887   5.044  16.785  0.00  0.00    +0.000 A 
ATOM      3  C   UNL     1       5.758   4.566  16.122  0.00  0.00    +0.000 A 
ATOM      4  C   UNL     1       4.489   4.976  16.522  0.00  0.00    +0.000 A 
ATOM      5  C   UNL     1       4.380   5.836  17.611  0.00  0.00    +0.000 A 
ATOM      6  C   UNL     1       5.536   6.274  18.262  0.00  0.00    +0.000 A 
ENDROOT
BRANCH   5   7
ATOM      7  C   UNL     1       3.092   6.403  18.064  0.00  0.00    +0.000 C 
ATOM      8  O   UNL     1       2.149   5.622  18.101  0.00  0.00    +0.000 OA
ATOM      9  N   UNL     1       3.065   7.759  18.334  0.00  0.00    +0.000 N 
ATOM     10  H   UNL     1       3.846   8.333  18.041  0.00  0.00    +0.000 HD
BRANCH   9  11
ATOM     11  C   UNL     1       1.917   8.474  18.751  0.00  0.00    +0.000 A 
ATOM     12  C   UNL     1       1.181   9.298  17.896  0.00  0.00    +0.000 A 
ATOM     13  C   UNL     1       0.121  10.063  18.386  0.00  0.00    +0.000 A 
ATOM     14  C   UNL     1      -0.222  10.000  19.733  0.00  0.00    +0.000 A 
ATOM     15  C   UNL     1       0.468   9.136  20.581  0.00  0.00    +0.000 A 
ATOM     16  C   UNL     1       1.522   8.361  20.089  0.00  0.00    +0.000 A 
ENDBRANCH   9  11
ENDBRANCH   5   7
BRANCH   1  17
ATOM     17  C   UNL     1       7.998   6.464  18.464  0.00  0.00    +0.000 C 
BRANCH  17  19
ATOM     18  O   UNL     1       7.577   8.496  17.291  0.00  0.00    +0.000 OA
ATOM     19  C   UNL     1       8.149   7.962  18.237  0.00  0.00    +0.000 C 
ATOM     20  N   UNL     1       8.954   8.628  19.151  0.00  0.00    +0.000 N 
ATOM     21  H   UNL     1       9.586   8.097  19.742  0.00  0.00    +0.000 HD
BRANCH  20  22
ATOM     22  C   UNL     1       9.162  10.030  19.164  0.00  0.00    +0.000 A 
ATOM     23  C   UNL     1       9.272  10.777  20.343  0.00  0.00    +0.000 A 
ATOM     24  C   UNL     1       9.370  12.171  20.302  0.00  0.00    +0.000 A 
ATOM     25  C   UNL     1       9.380  12.826  19.076  0.00  0.00    +0.000 A 
ATOM     26 CL   UNL     1       9.420  14.543  19.023  0.00  0.00    +0.000 Cl
ATOM     27  C   UNL     1       9.344  12.094  17.891  0.00  0.00    +0.000 A 
ATOM     28  C   UNL     1       9.249  10.694  17.935  0.00  0.00    +0.000 A 
ENDBRANCH  20  22
ENDBRANCH  17  19
ENDBRANCH   1  17
TORSDOF 5
ENDMDL
MODEL 2
REMARK VINA RESULT:      -7.8      4.993      7.648
REMARK  Name = 
REMARK  5 active torsions:
REMARK  status: ('A' for Active; 'I' for Inactive)
REMARK    1  A    between atoms: C_2  and  C_3
REMARK    2  A    between atoms: C_3  and  N_4
REMARK    3  A    between atoms: C_8  and  C_9
REMARK    4  A    between atoms: N_11  and  C_12
REMARK    5  A    between atoms: N_19  and  C_20
REMARK                            x       y       z     vdW  Elec       q    Type
REMARK                         _______ _______ _______ _____ _____    ______ ____
ROOT
ATOM      1  N   UNL     1       3.180   3.580  19.757  0.00  0.00    +0.000 N 
ATOM      2  C   UNL     1       3.055   2.232  19.781  0.00  0.00    +0.000 A 
ATOM      3  C   UNL     1       3.471   1.457  18.700  0.00  0.00    +0.000 A 
ATOM      4  C   UNL     1       4.029   2.067  17.578  0.00  0.00    +0.000 A 
ATOM      5  C   UNL     1       4.123   3.454  17.553  0.00  0.00    +0.000 A 
ATOM      6  C   UNL     1       3.673   4.196  18.649  0.00  0.00    +0.000 A 
ENDROOT
BRANCH   5   7
ATOM      7  C   UNL     1       4.777   4.198  16.456  0.00  0.00    +0.000 C 
ATOM      8  O   UNL     1       4.532   5.398  16.406  0.00  0.00    +0.000 OA
ATOM      9  N   UNL     1       5.538   3.463  15.566  0.00  0.00    +0.000 N 
ATOM     10  H   UNL     1       5.470   2.453  15.581  0.00  0.00    +0.000 HD
BRANCH   9  11
ATOM     11  C   UNL     1       6.212   4.004  14.445  0.00  0.00    +0.000 A 
ATOM     12  C   UNL     1       5.976   3.576  13.136  0.00  0.00    +0.000 A 
ATOM     13  C   UNL     1       6.745   4.068  12.079  0.00  0.00    +0.000 A 
ATOM     14  C   UNL     1       7.747   5.002  12.321  0.00  0.00    +0.000 A 
ATOM     15  C   UNL     1       7.950   5.479  13.614  0.00  0.00    +0.000 A 
ATOM     16  C   UNL     1       7.174   4.996  14.671  0.00  0.00    +0.000 A 
ENDBRANCH   9  11
ENDBRANCH   5   7
BRANCH   1  17
ATOM     17  C   UNL     1       2.802   4.380  20.961  0.00  0.00    +0.000 C 
BRANCH  17  19
ATOM     18  O   UNL     1       0.644   5.275  20.483  0.00  0.00    +0.000 OA
ATOM     19  C   UNL     1       1.839   5.515  20.635  0.00  0.00    +0.000 C 
ATOM     20  N   UNL     1       2.412   6.774  20.532  0.00  0.00    +0.000 N 
ATOM     21  H   UNL     1       3.417   6.860  20.419  0.00  0.00    +0.000 HD
BRANCH  20  22
ATOM     22  C   UNL     1       1.683   7.971  20.313  0.00  0.00    +0.000 A 
ATOM     23  C   UNL     1       0.869   8.560  21.288  0.00  0.00    +0.000 A 
ATOM     24  C   UNL     1       0.089   9.680  20.988  0.00  0.00    +0.000 A 
ATOM     25  C   UNL     1       0.135  10.233  19.714  0.00  0.00    +0.000 A 
ATOM     26 CL   UNL     1      -0.881  11.561  19.319  0.00  0.00    +0.000 Cl
ATOM     27  C   UNL     1       0.993   9.703  18.753  0.00  0.00    +0.000 A 
ATOM     28  C   UNL     1       1.778   8.580  19.057  0.00  0.00    +0.000 A 
ENDBRANCH  20  22
ENDBRANCH  17  19
ENDBRANCH   1  17
TORSDOF 5
ENDMDL
MODEL 3
REMARK VINA RESULT:      -7.8      5.059      7.809
REMARK  Name = 
REMARK  5 active torsions:
REMARK  status: ('A' for Active; 'I' for Inactive)
REMARK    1  A    between atoms: C_2  and  C_3
REMARK    2  A    between atoms: C_3  and  N_4
REMARK    3  A    between atoms: C_8  and  C_9
REMARK    4  A    between atoms: N_11  and  C_12
REMARK    5  A    between atoms: N_19  and  C_20
REMARK                            x       y       z     vdW  Elec       q    Type
REMARK                         _______ _______ _______ _____ _____    ______ ____
ROOT
ATOM      1  N   UNL     1       3.166   3.763  19.656  0.00  0.00    +0.000 N 
ATOM      2  C   UNL     1       2.906   2.434  19.662  0.00  0.00    +0.000 A 
ATOM      3  C   UNL     1       3.248   1.634  18.574  0.00  0.00    +0.000 A 
ATOM      4  C   UNL     1       3.873   2.196  17.464  0.00  0.00    +0.000 A 
ATOM      5  C   UNL     1       4.107   3.568  17.456  0.00  0.00    +0.000 A 
ATOM      6  C   UNL     1       3.726   4.338  18.558  0.00  0.00    +0.000 A 
ENDROOT
BRANCH   5   7
ATOM      7  C   UNL     1       4.840   4.254  16.371  0.00  0.00    +0.000 C 
ATOM      8  O   UNL     1       4.679   5.468  16.305  0.00  0.00    +0.000 OA
ATOM      9  N   UNL     1       5.572   3.460  15.508  0.00  0.00    +0.000 N 
ATOM     10  H   UNL     1       5.434   2.458  15.530  0.00  0.00    +0.000 HD
BRANCH   9  11
ATOM     11  C   UNL     1       6.312   3.943  14.403  0.00  0.00    +0.000 A 
ATOM     12  C   UNL     1       7.287   4.937  14.515  0.00  0.00    +0.000 A 
ATOM     13  C   UNL     1       7.910   5.452  13.377  0.00  0.00    +0.000 A 
ATOM     14  C   UNL     1       7.574   4.967  12.117  0.00  0.00    +0.000 A 
ATOM     15  C   UNL     1       6.646   3.934  11.999  0.00  0.00    +0.000 A 
ATOM     16  C   UNL     1       6.029   3.410  13.139  0.00  0.00    +0.000 A 
ENDBRANCH   9  11
ENDBRANCH   5   7
BRANCH   1  17
ATOM     17  C   UNL     1       2.862   4.583  20.867  0.00  0.00    +0.000 C 
BRANCH  17  19
ATOM     18  O   UNL     1       0.639   5.326  20.431  0.00  0.00    +0.000 OA
ATOM     19  C   UNL     1       1.810   5.653  20.605  0.00  0.00    +0.000 C 
ATOM     20  N   UNL     1       2.278   6.959  20.581  0.00  0.00    +0.000 N 
ATOM     21  H   UNL     1       3.273   7.133  20.480  0.00  0.00    +0.000 HD
BRANCH  20  22
ATOM     22  C   UNL     1       1.453   8.103  20.431  0.00  0.00    +0.000 A 
ATOM     23  C   UNL     1       1.461   8.908  19.286  0.00  0.00    +0.000 A 
ATOM     24  C   UNL     1       0.707  10.083  19.231  0.00  0.00    +0.000 A 
ATOM     25  C   UNL     1      -0.079  10.451  20.318  0.00  0.00    +0.000 A 
ATOM     26 CL   UNL     1      -0.945  11.934  20.285  0.00  0.00    +0.000 Cl
ATOM     27  C   UNL     1      -0.155   9.625  21.436  0.00  0.00    +0.000 A 
ATOM     28  C   UNL     1       0.601   8.443  21.488  0.00  0.00    +0.000 A 
ENDBRANCH  20  22
ENDBRANCH  17  19
ENDBRANCH   1  17
TORSDOF 5
ENDMDL
MODEL 4
REMARK VINA RESULT:      -7.8      4.823      7.355
REMARK  Name = 
REMARK  5 active torsions:
REMARK  status: ('A' for Active; 'I' for Inactive)
REMARK    1  A    between atoms: C_2  and  C_3
REMARK    2  A    between atoms: C_3  and  N_4
REMARK    3  A    between atoms: C_8  and  C_9
REMARK    4  A    between atoms: N_11  and  C_12
REMARK    5  A    between atoms: N_19  and  C_20
REMARK                            x       y       z     vdW  Elec       q    Type
REMARK                         _______ _______ _______ _____ _____    ______ ____
ROOT
ATOM      1  N   UNL     1       1.624   8.052  19.988  0.00  0.00    +0.000 N 
ATOM      2  C   UNL     1       1.837   8.617  18.776  0.00  0.00    +0.000 A 
ATOM      3  C   UNL     1       1.410   9.916  18.509  0.00  0.00    +0.000 A 
ATOM      4  C   UNL     1       0.762  10.655  19.496  0.00  0.00    +0.000 A 
ATOM      5  C   UNL     1       0.522  10.052  20.727  0.00  0.00    +0.000 A 
ATOM      6  C   UNL     1       0.945   8.739  20.946  0.00  0.00    +0.000 A 
ENDROOT
BRANCH   5   7
ATOM      7  C   UNL     1      -0.077  10.770  21.872  0.00  0.00    +0.000 C 
ATOM      8  O   UNL     1       0.185  10.317  22.980  0.00  0.00    +0.000 OA
ATOM      9  N   UNL     1      -0.919  11.827  21.579  0.00  0.00    +0.000 N 
ATOM     10  H   UNL     1      -1.237  11.950  20.626  0.00  0.00    +0.000 HD
BRANCH   9  11
ATOM     11  C   UNL     1      -1.597  12.607  22.546  0.00  0.00    +0.000 A 
ATOM     12  C   UNL     1      -1.051  13.762  23.111  0.00  0.00    +0.000 A 
ATOM     13  C   UNL     1      -1.718  14.433  24.138  0.00  0.00    +0.000 A 
ATOM     14  C   UNL     1      -2.943  13.963  24.599  0.00  0.00    +0.000 A 
ATOM     15  C   UNL     1      -3.524  12.847  24.001  0.00  0.00    +0.000 A 
ATOM     16  C   UNL     1      -2.863  12.180  22.965  0.00  0.00    +0.000 A 
ENDBRANCH   9  11
ENDBRANCH   5   7
BRANCH   1  17
ATOM     17  C   UNL     1       2.163   6.689  20.274  0.00  0.00    +0.000 C 
BRANCH  17  19
ATOM     18  O   UNL     1       1.859   5.286  18.371  0.00  0.00    +0.000 OA
ATOM     19  C   UNL     1       2.644   5.970  19.020  0.00  0.00    +0.000 C 
ATOM     20  N   UNL     1       3.983   6.152  18.702  0.00  0.00    +0.000 N 
ATOM     21  H   UNL     1       4.620   6.513  19.405  0.00  0.00    +0.000 HD
BRANCH  20  22
ATOM     22  C   UNL     1       4.607   5.636  17.539  0.00  0.00    +0.000 A 
ATOM     23  C   UNL     1       4.947   6.430  16.436  0.00  0.00    +0.000 A 
ATOM     24  C   UNL     1       5.464   5.855  15.272  0.00  0.00    +0.000 A 
ATOM     25  C   UNL     1       5.665   4.481  15.211  0.00  0.00    +0.000 A 
ATOM     26 CL   UNL     1       6.227   3.762  13.756  0.00  0.00    +0.000 Cl
ATOM     27  C   UNL     1       5.402   3.686  16.324  0.00  0.00    +0.000 A 
ATOM     28  C   UNL     1       4.885   4.266  17.493  0.00  0.00    +0.000 A 
ENDBRANCH  20  22
ENDBRANCH  17  19
ENDBRANCH   1  17
TORSDOF 5
ENDMDL
MODEL 5
REMARK VINA RESULT:      -7.8      0.674      1.423
REMARK  Name = 
REMARK  5 active torsions:
REMARK  status: ('A' for Active; 'I' for Inactive)
REMARK    1  A    between atoms: C_2  and  C_3
REMARK    2  A    between atoms: C_3  and  N_4
REMARK    3  A    between atoms: C_8  and  C_9
REMARK    4  A    between atoms: N_11  and  C_12
REMARK    5  A    between atoms: N_19  and  C_20
REMARK                            x       y       z     vdW  Elec       q    Type
REMARK                         _______ _______ _______ _____ _____    ______ ____
ROOT
ATOM      1  N   UNL     1       6.462   5.554  18.040  0.00  0.00    +0.000 N 
ATOM      2  C   UNL     1       6.417   4.586  17.094  0.00  0.00    +0.000 A 
ATOM      3  C   UNL     1       5.198   4.125  16.602  0.00  0.00    +0.000 A 
ATOM      4  C   UNL     1       4.005   4.665  17.076  0.00  0.00    +0.000 A 
ATOM      5  C   UNL     1       4.063   5.637  18.070  0.00  0.00    +0.000 A 
ATOM      6  C   UNL     1       5.306   6.055  18.553  0.00  0.00    +0.000 A 
ENDROOT
BRANCH   5   7
ATOM      7  C   UNL     1       2.868   6.339  18.582  0.00  0.00    +0.000 C 
ATOM      8  O   UNL     1       1.951   5.621  18.964  0.00  0.00    +0.000 OA
ATOM      9  N   UNL     1       2.876   7.720  18.517  0.00  0.00    +0.000 N 
ATOM     10  H   UNL     1       3.590   8.180  17.968  0.00  0.00    +0.000 HD
BRANCH   9  11
ATOM     11  C   UNL     1       1.810   8.552  18.936  0.00  0.00    +0.000 A 
ATOM     12  C   UNL     1       1.374   8.620  20.262  0.00  0.00    +0.000 A 
ATOM     13  C   UNL     1       0.250   9.375  20.602  0.00  0.00    +0.000 A 
ATOM     14  C   UNL     1      -0.440  10.079  19.620  0.00  0.00    +0.000 A 
ATOM     15  C   UNL     1       0.021  10.065  18.306  0.00  0.00    +0.000 A 
ATOM     16  C   UNL     1       1.154   9.319  17.967  0.00  0.00    +0.000 A 
ENDBRANCH   9  11
ENDBRANCH   5   7
BRANCH   1  17
ATOM     17  C   UNL     1       7.782   6.087  18.492  0.00  0.00    +0.000 C 
BRANCH  17  19
ATOM     18  O   UNL     1       7.670   7.888  16.934  0.00  0.00    +0.000 OA
ATOM     19  C   UNL     1       8.017   7.527  18.055  0.00  0.00    +0.000 C 
ATOM     20  N   UNL     1       8.630   8.345  18.994  0.00  0.00    +0.000 N 
ATOM     21  H   UNL     1       9.110   7.928  19.785  0.00  0.00    +0.000 HD
BRANCH  20  22
ATOM     22  C   UNL     1       8.867   9.732  18.815  0.00  0.00    +0.000 A 
ATOM     23  C   UNL     1       8.217  10.501  17.843  0.00  0.00    +0.000 A 
ATOM     24  C   UNL     1       8.564  11.839  17.638  0.00  0.00    +0.000 A 
ATOM     25  C   UNL     1       9.551  12.424  18.422  0.00  0.00    +0.000 A 
ATOM     26 CL   UNL     1      10.035  14.045  18.121  0.00  0.00    +0.000 Cl
ATOM     27  C   UNL     1      10.157  11.695  19.442  0.00  0.00    +0.000 A 
ATOM     28  C   UNL     1       9.805  10.352  19.648  0.00  0.00    +0.000 A 
ENDBRANCH  20  22
ENDBRANCH  17  19
ENDBRANCH   1  17
TORSDOF 5
ENDMDL
MODEL 6
REMARK VINA RESULT:      -7.8      5.333      9.451
REMARK  Name = 
REMARK  5 active torsions:
REMARK  status: ('A' for Active; 'I' for Inactive)
REMARK    1  A    between atoms: C_2  and  C_3
REMARK    2  A    between atoms: C_3  and  N_4
REMARK    3  A    between atoms: C_8  and  C_9
REMARK    4  A    between atoms: N_11  and  C_12
REMARK    5  A    between atoms: N_19  and  C_20
REMARK                            x       y       z     vdW  Elec       q    Type
REMARK                         _______ _______ _______ _____ _____    ______ ____
ROOT
ATOM      1  N   UNL     1      -0.190  10.769  21.087  0.00  0.00    +0.000 N 
ATOM      2  C   UNL     1      -0.113  10.465  22.404  0.00  0.00    +0.000 A 
ATOM      3  C   UNL     1       0.586   9.341  22.839  0.00  0.00    +0.000 A 
ATOM      4  C   UNL     1       1.224   8.516  21.916  0.00  0.00    +0.000 A 
ATOM      5  C   UNL     1       1.112   8.821  20.563  0.00  0.00    +0.000 A 
ATOM      6  C   UNL     1       0.382   9.945  20.167  0.00  0.00    +0.000 A 
ENDROOT
BRANCH   5   7
ATOM      7  C   UNL     1       1.819   8.068  19.506  0.00  0.00    +0.000 C 
ATOM      8  O   UNL     1       1.830   8.589  18.396  0.00  0.00    +0.000 OA
ATOM      9  N   UNL     1       2.334   6.832  19.853  0.00  0.00    +0.000 N 
ATOM     10  H   UNL     1       2.056   6.416  20.733  0.00  0.00    +0.000 HD
BRANCH   9  11
ATOM     11  C   UNL     1       3.016   5.966  18.966  0.00  0.00    +0.000 A 
ATOM     12  C   UNL     1       4.325   6.195  18.534  0.00  0.00    +0.000 A 
ATOM     13  C   UNL     1       4.912   5.367  17.575  0.00  0.00    +0.000 A 
ATOM     14  C   UNL     1       4.199   4.295  17.049  0.00  0.00    +0.000 A 
ATOM     15  C   UNL     1       2.915   4.023  17.516  0.00  0.00    +0.000 A 
ATOM     16  C   UNL     1       2.330   4.845  18.485  0.00  0.00    +0.000 A 
ENDBRANCH   9  11
ENDBRANCH   5   7
BRANCH   1  17
ATOM     17  C   UNL     1      -0.876  12.023  20.654  0.00  0.00    +0.000 C 
BRANCH  17  19
ATOM     18  O   UNL     1      -0.659  12.718  18.384  0.00  0.00    +0.000 OA
ATOM     19  C   UNL     1      -1.262  12.005  19.181  0.00  0.00    +0.000 C 
ATOM     20  N   UNL     1      -2.306  11.154  18.846  0.00  0.00    +0.000 N 
ATOM     21  H   UNL     1      -2.914  10.795  19.576  0.00  0.00    +0.000 HD
BRANCH  20  22
ATOM     22  C   UNL     1      -2.766  10.932  17.523  0.00  0.00    +0.000 A 
ATOM     23  C   UNL     1      -3.887  11.575  16.984  0.00  0.00    +0.000 A 
ATOM     24  C   UNL     1      -4.361  11.242  15.712  0.00  0.00    +0.000 A 
ATOM     25  C   UNL     1      -3.701  10.276  14.961  0.00  0.00    +0.000 A 
ATOM     26 CL   UNL     1      -4.325   9.809  13.430  0.00  0.00    +0.000 Cl
ATOM     27  C   UNL     1      -2.542   9.679  15.451  0.00  0.00    +0.000 A 
ATOM     28  C   UNL     1      -2.067  10.017  16.728  0.00  0.00    +0.000 A 
ENDBRANCH  20  22
ENDBRANCH  17  19
ENDBRANCH   1  17
TORSDOF 5
ENDMDL
MODEL 7
REMARK VINA RESULT:      -7.7      5.053      9.264
REMARK  Name = 
REMARK  5 active torsions:
REMARK  status: ('A' for Active; 'I' for Inactive)
REMARK    1  A    between atoms: C_2  and  C_3
REMARK    2  A    between atoms: C_3  and  N_4
REMARK    3  A    between atoms: C_8  and  C_9
REMARK    4  A    between atoms: N_11  and  C_12
REMARK    5  A    between atoms: N_19  and  C_20
REMARK                            x       y       z     vdW  Elec       q    Type
REMARK                         _______ _______ _______ _____ _____    ______ ____
ROOT
ATOM      1  N   UNL     1       1.452   9.410  19.213  0.00  0.00    +0.000 N 
ATOM      2  C   UNL     1       0.855   9.235  20.416  0.00  0.00    +0.000 A 
ATOM      3  C   UNL     1       0.986   8.034  21.111  0.00  0.00    +0.000 A 
ATOM      4  C   UNL     1       1.743   6.996  20.573  0.00  0.00    +0.000 A 
ATOM      5  C   UNL     1       2.326   7.177  19.323  0.00  0.00    +0.000 A 
ATOM      6  C   UNL     1       2.151   8.388  18.649  0.00  0.00    +0.000 A 
ENDROOT
BRANCH   5   7
ATOM      7  C   UNL     1       3.220   6.179  18.699  0.00  0.00    +0.000 C 
ATOM      8  O   UNL     1       3.003   5.010  18.996  0.00  0.00    +0.000 OA
ATOM      9  N   UNL     1       4.242   6.663  17.903  0.00  0.00    +0.000 N 
ATOM     10  H   UNL     1       4.454   7.653  17.927  0.00  0.00    +0.000 HD
BRANCH   9  11
ATOM     11  C   UNL     1       5.205   5.857  17.251  0.00  0.00    +0.000 A 
ATOM     12  C   UNL     1       6.314   5.315  17.905  0.00  0.00    +0.000 A 
ATOM     13  C   UNL     1       7.289   4.616  17.191  0.00  0.00    +0.000 A 
ATOM     14  C   UNL     1       7.156   4.442  15.817  0.00  0.00    +0.000 A 
ATOM     15  C   UNL     1       6.025   4.927  15.165  0.00  0.00    +0.000 A 
ATOM     16  C   UNL     1       5.042   5.617  15.881  0.00  0.00    +0.000 A 
ENDBRANCH   9  11
ENDBRANCH   5   7
BRANCH   1  17
ATOM     17  C   UNL     1       1.364  10.735  18.528  0.00  0.00    +0.000 C 
BRANCH  17  19
ATOM     18  O   UNL     1      -0.304  12.349  19.072  0.00  0.00    +0.000 OA
ATOM     19  C   UNL     1      -0.054  11.291  18.502  0.00  0.00    +0.000 C 
ATOM     20  N   UNL     1      -0.984  10.525  17.813  0.00  0.00    +0.000 N 
ATOM     21  H   UNL     1      -0.771   9.558  17.589  0.00  0.00    +0.000 HD
BRANCH  20  22
ATOM     22  C   UNL     1      -2.335  10.903  17.604  0.00  0.00    +0.000 A 
ATOM     23  C   UNL     1      -2.935  10.935  16.339  0.00  0.00    +0.000 A 
ATOM     24  C   UNL     1      -4.237  11.415  16.176  0.00  0.00    +0.000 A 
ATOM     25  C   UNL     1      -4.958  11.847  17.283  0.00  0.00    +0.000 A 
ATOM     26 CL   UNL     1      -6.528  12.511  17.077  0.00  0.00    +0.000 Cl
ATOM     27  C   UNL     1      -4.403  11.755  18.558  0.00  0.00    +0.000 A 
ATOM     28  C   UNL     1      -3.097  11.269  18.720  0.00  0.00    +0.000 A 
ENDBRANCH  20  22
ENDBRANCH  17  19
ENDBRANCH   1  17
TORSDOF 5
ENDMDL
MODEL 8
REMARK VINA RESULT:      -7.7      4.507      8.612
REMARK  Name = 
REMARK  5 active torsions:
REMARK  status: ('A' for Active; 'I' for Inactive)
REMARK    1  A    between atoms: C_2  and  C_3
REMARK    2  A    between atoms: C_3  and  N_4
REMARK    3  A    between atoms: C_8  and  C_9
REMARK    4  A    between atoms: N_11  and  C_12
REMARK    5  A    between atoms: N_19  and  C_20
REMARK                            x       y       z     vdW  Elec       q    Type
REMARK                         _______ _______ _______ _____ _____    ______ ____
ROOT
ATOM      1  N   UNL     1       1.006   8.715  20.327  0.00  0.00    +0.000 N 
ATOM      2  C   UNL     1       0.744   9.869  19.668  0.00  0.00    +0.000 A 
ATOM      3  C   UNL     1       1.308  10.121  18.419  0.00  0.00    +0.000 A 
ATOM      4  C   UNL     1       2.147   9.179  17.829  0.00  0.00    +0.000 A 
ATOM      5  C   UNL     1       2.433   8.012  18.529  0.00  0.00    +0.000 A 
ATOM      6  C   UNL     1       1.865   7.808  19.790  0.00  0.00    +0.000 A 
ENDROOT
BRANCH   5   7
ATOM      7  C   UNL     1       3.237   6.908  17.964  0.00  0.00    +0.000 C 
ATOM      8  O   UNL     1       2.785   5.781  18.129  0.00  0.00    +0.000 OA
ATOM      9  N   UNL     1       4.438   7.248  17.369  0.00  0.00    +0.000 N 
ATOM     10  H   UNL     1       4.804   8.182  17.505  0.00  0.00    +0.000 HD
BRANCH   9  11
ATOM     11  C   UNL     1       5.345   6.322  16.800  0.00  0.00    +0.000 A 
ATOM     12  C   UNL     1       5.257   5.886  15.476  0.00  0.00    +0.000 A 
ATOM     13  C   UNL     1       6.111   4.892  14.997  0.00  0.00    +0.000 A 
ATOM     14  C   UNL     1       7.071   4.333  15.836  0.00  0.00    +0.000 A 
ATOM     15  C   UNL     1       7.206   4.803  17.140  0.00  0.00    +0.000 A 
ATOM     16  C   UNL     1       6.358   5.807  17.617  0.00  0.00    +0.000 A 
ENDBRANCH   9  11
ENDBRANCH   5   7
BRANCH   1  17
ATOM     17  C   UNL     1       0.325   8.435  21.627  0.00  0.00    +0.000 C 
BRANCH  17  19
ATOM     18  O   UNL     1       0.619   9.883  23.498  0.00  0.00    +0.000 OA
ATOM     19  C   UNL     1       0.043   9.698  22.429  0.00  0.00    +0.000 C 
ATOM     20  N   UNL     1      -0.879  10.570  21.867  0.00  0.00    +0.000 N 
ATOM     21  H   UNL     1      -1.492  10.243  21.127  0.00  0.00    +0.000 HD
BRANCH  20  22
ATOM     22  C   UNL     1      -1.222  11.834  22.413  0.00  0.00    +0.000 A 
ATOM     23  C   UNL     1      -0.445  12.983  22.230  0.00  0.00    +0.000 A 
ATOM     24  C   UNL     1      -0.771  14.179  22.877  0.00  0.00    +0.000 A 
ATOM     25  C   UNL     1      -1.893  14.237  23.695  0.00  0.00    +0.000 A 
ATOM     26 CL   UNL     1      -2.253  15.681  24.552  0.00  0.00    +0.000 Cl
ATOM     27  C   UNL     1      -2.719  13.124  23.830  0.00  0.00    +0.000 A 
ATOM     28  C   UNL     1      -2.391  11.925  23.178  0.00  0.00    +0.000 A 
ENDBRANCH  20  22
ENDBRANCH  17  19
ENDBRANCH   1  17
TORSDOF 5
ENDMDL
MODEL 9
REMARK VINA RESULT:      -7.7      4.703      7.304
REMARK  Name = 
REMARK  5 active torsions:
REMARK  status: ('A' for Active; 'I' for Inactive)
REMARK    1  A    between atoms: C_2  and  C_3
REMARK    2  A    between atoms: C_3  and  N_4
REMARK    3  A    between atoms: C_8  and  C_9
REMARK    4  A    between atoms: N_11  and  C_12
REMARK    5  A    between atoms: N_19  and  C_20
REMARK                            x       y       z     vdW  Elec       q    Type
REMARK                         _______ _______ _______ _____ _____    ______ ____
ROOT
ATOM      1  N   UNL     1       1.355   7.941  20.515  0.00  0.00    +0.000 N 
ATOM      2  C   UNL     1       1.599   8.500  19.306  0.00  0.00    +0.000 A 
ATOM      3  C   UNL     1       1.189   9.802  19.025  0.00  0.00    +0.000 A 
ATOM      4  C   UNL     1       0.526  10.549  19.995  0.00  0.00    +0.000 A 
ATOM      5  C   UNL     1       0.253   9.954  21.223  0.00  0.00    +0.000 A 
ATOM      6  C   UNL     1       0.661   8.638  21.456  0.00  0.00    +0.000 A 
ENDROOT
BRANCH   5   7
ATOM      7  C   UNL     1      -0.364  10.680  22.352  0.00  0.00    +0.000 C 
ATOM      8  O   UNL     1      -0.124  10.233  23.468  0.00  0.00    +0.000 OA
ATOM      9  N   UNL     1      -1.196  11.739  22.037  0.00  0.00    +0.000 N 
ATOM     10  H   UNL     1      -1.495  11.858  21.078  0.00  0.00    +0.000 HD
BRANCH   9  11
ATOM     11  C   UNL     1      -1.889  12.527  22.986  0.00  0.00    +0.000 A 
ATOM     12  C   UNL     1      -3.147  12.183  23.488  0.00  0.00    +0.000 A 
ATOM     13  C   UNL     1      -3.833  13.051  24.340  0.00  0.00    +0.000 A 
ATOM     14  C   UNL     1      -3.261  14.264  24.710  0.00  0.00    +0.000 A 
ATOM     15  C   UNL     1      -1.982  14.589  24.263  0.00  0.00    +0.000 A 
ATOM     16  C   UNL     1      -1.289  13.716  23.418  0.00  0.00    +0.000 A 
ENDBRANCH   9  11
ENDBRANCH   5   7
BRANCH   1  17
ATOM     17  C   UNL     1       1.876   6.575  20.818  0.00  0.00    +0.000 C 
BRANCH  17  19
ATOM     18  O   UNL     1       1.864   5.103  18.943  0.00  0.00    +0.000 OA
ATOM     19  C   UNL     1       2.513   5.906  19.607  0.00  0.00    +0.000 C 
ATOM     20  N   UNL     1       3.826   6.269  19.345  0.00  0.00    +0.000 N 
ATOM     21  H   UNL     1       4.372   6.732  20.065  0.00  0.00    +0.000 HD
BRANCH  20  22
ATOM     22  C   UNL     1       4.573   5.823  18.224  0.00  0.00    +0.000 A 
ATOM     23  C   UNL     1       5.433   4.720  18.268  0.00  0.00    +0.000 A 
ATOM     24  C   UNL     1       6.226   4.386  17.166  0.00  0.00    +0.000 A 
ATOM     25  C   UNL     1       6.146   5.143  16.004  0.00  0.00    +0.000 A 
ATOM     26 CL   UNL     1       7.176   4.784  14.676  0.00  0.00    +0.000 Cl
ATOM     27  C   UNL     1       5.243   6.200  15.918  0.00  0.00    +0.000 A 
ATOM     28  C   UNL     1       4.446   6.532  17.024  0.00  0.00    +0.000 A 
ENDBRANCH  20  22
ENDBRANCH  17  19
ENDBRANCH   1  17
TORSDOF 5
ENDMDL
