MODEL 1
REMARK VINA RESULT:      -8.3      0.000      0.000
REMARK  Name = 
REMARK  5 active torsions:
REMARK  status: ('A' for Active; 'I' for Inactive)
REMARK    1  A    between atoms: C_1  and  C_2
REMARK    2  A    between atoms: C_7  and  C_8
REMARK    3  A    between atoms: C_8  and  N_9
REMARK    4  A    between atoms: N_16  and  S_17
REMARK    5  A    between atoms: S_17  and  C_20
REMARK                            x       y       z     vdW  Elec       q    Type
REMARK                         _______ _______ _______ _____ _____    ______ ____
ROOT
ATOM      1  N   UNL     1       1.867   6.786  19.700  0.00  0.00    +0.000 NA
ATOM      2  C   UNL     1       2.617   7.344  18.603  0.00  0.00    +0.000 C 
ATOM      3  C   UNL     1       3.989   6.765  18.335  0.00  0.00    +0.000 C 
ATOM      4  C   UNL     1       4.135   5.249  18.493  0.00  0.00    +0.000 C 
ATOM      5  C   UNL     1       3.364   4.709  19.699  0.00  0.00    +0.000 C 
ATOM      6  C   UNL     1       1.985   5.353  19.897  0.00  0.00    +0.000 C 
ATOM      7  C   UNL     1       5.672   4.882  18.499  0.00  0.00    +0.000 C 
ATOM      8  N   UNL     1       5.632   4.649  17.007  0.00  0.00    +0.000 NA
ATOM      9  C   UNL     1       4.155   4.359  17.195  0.00  0.00    +0.000 C 
ENDROOT
BRANCH   8  10
ATOM     10  S   UNL     1       6.194   5.790  15.842  0.00  0.00    +0.000 S 
ATOM     11  O   UNL     1       5.134   6.746  15.597  0.00  0.00    +0.000 OA
ATOM     12  O   UNL     1       7.517   6.234  16.237  0.00  0.00    +0.000 OA
BRANCH  10  13
ATOM     13  C   UNL     1       6.405   4.841  14.360  0.00  0.00    +0.000 A 
ATOM     14  C   UNL     1       5.409   3.943  13.972  0.00  0.00    +0.000 A 
ATOM     15  C   UNL     1       5.537   3.259  12.762  0.00  0.00    +0.000 A 
ATOM     16  C   UNL     1       6.644   3.488  11.939  0.00  0.00    +0.000 A 
ATOM     17  C   UNL     1       7.617   4.416  12.311  0.00  0.00    +0.000 A 
ATOM     18  C   UNL     1       7.497   5.099  13.521  0.00  0.00    +0.000 A 
ENDBRANCH  10  13
ENDBRANCH   8  10
BRANCH   1  19
ATOM     19  C   UNL     1       1.779   7.698  20.837  0.00  0.00    +0.000 C 
BRANCH  19  26
ATOM     20  C   UNL     1       0.266   9.292  22.981  0.00  0.00    +0.000 C 
ATOM     21  C   UNL     1       0.238   9.635  21.518  0.00  0.00    +0.000 A 
ATOM     22  C   UNL     1      -0.601  10.682  21.113  0.00  0.00    +0.000 A 
ATOM     23  C   UNL     1      -0.637  11.114  19.785  0.00  0.00    +0.000 A 
ATOM     24  C   UNL     1       0.188  10.517  18.841  0.00  0.00    +0.000 A 
ATOM     25  C   UNL     1       0.994   9.444  19.216  0.00  0.00    +0.000 A 
ATOM     26  C   UNL     1       0.999   8.962  20.544  0.00  0.00    +0.000 A 
ENDBRANCH  19  26
ENDBRANCH   1  19
TORSDOF 4
ENDMDL
MODEL 2
REMARK VINA RESULT:      -8.3      4.240      9.945
REMARK  Name = 
REMARK  5 active torsions:
REMARK  status: ('A' for Active; 'I' for Inactive)
REMARK    1  A    between atoms: C_1  and  C_2
REMARK    2  A    between atoms: C_7  and  C_8
REMARK    3  A    between atoms: C_8  and  N_9
REMARK    4  A    between atoms: N_16  and  S_17
REMARK    5  A    between atoms: S_17  and  C_20
REMARK                            x       y       z     vdW  Elec       q    Type
REMARK                         _______ _______ _______ _____ _____    ______ ____
ROOT
ATOM      1  N   UNL     1       2.612   6.937  18.911  0.00  0.00    +0.000 NA
ATOM      2  C   UNL     1       2.282   8.328  18.727  0.00  0.00    +0.000 C 
ATOM      3  C   UNL     1       1.110   8.873  19.515  0.00  0.00    +0.000 C 
ATOM      4  C   UNL     1       0.964   8.375  20.956  0.00  0.00    +0.000 C 
ATOM      5  C   UNL     1       1.274   6.884  21.093  0.00  0.00    +0.000 C 
ATOM      6  C   UNL     1       2.475   6.416  20.259  0.00  0.00    +0.000 C 
ATOM      7  C   UNL     1      -0.465   8.784  21.494  0.00  0.00    +0.000 C 
ATOM      8  N   UNL     1       0.106  10.058  22.070  0.00  0.00    +0.000 NA
ATOM      9  C   UNL     1       1.429   9.318  22.126  0.00  0.00    +0.000 C 
ENDROOT
BRANCH   8  10
ATOM     10  S   UNL     1      -0.042  11.604  21.318  0.00  0.00    +0.000 S 
ATOM     11  O   UNL     1       1.248  12.260  21.377  0.00  0.00    +0.000 OA
ATOM     12  O   UNL     1      -0.731  11.432  20.053  0.00  0.00    +0.000 OA
BRANCH  10  13
ATOM     13  C   UNL     1      -1.144  12.505  22.372  0.00  0.00    +0.000 A 
ATOM     14  C   UNL     1      -2.324  11.900  22.810  0.00  0.00    +0.000 A 
ATOM     15  C   UNL     1      -3.150  12.579  23.708  0.00  0.00    +0.000 A 
ATOM     16  C   UNL     1      -2.786  13.845  24.179  0.00  0.00    +0.000 A 
ATOM     17  C   UNL     1      -1.587  14.428  23.769  0.00  0.00    +0.000 A 
ATOM     18  C   UNL     1      -0.760  13.757  22.869  0.00  0.00    +0.000 A 
ENDBRANCH  10  13
ENDBRANCH   8  10
BRANCH   1  19
ATOM     19  C   UNL     1       2.265   6.123  17.750  0.00  0.00    +0.000 C 
BRANCH  19  26
ATOM     20  C   UNL     1       4.919   4.653  17.274  0.00  0.00    +0.000 C 
ATOM     21  C   UNL     1       3.645   3.960  17.668  0.00  0.00    +0.000 A 
ATOM     22  C   UNL     1       3.660   2.559  17.726  0.00  0.00    +0.000 A 
ATOM     23  C   UNL     1       2.543   1.836  18.150  0.00  0.00    +0.000 A 
ATOM     24  C   UNL     1       1.394   2.508  18.547  0.00  0.00    +0.000 A 
ATOM     25  C   UNL     1       1.345   3.897  18.451  0.00  0.00    +0.000 A 
ATOM     26  C   UNL     1       2.449   4.637  17.973  0.00  0.00    +0.000 A 
ENDBRANCH  19  26
ENDBRANCH   1  19
TORSDOF 4
ENDMDL
MODEL 3
REMARK VINA RESULT:      -8.2      0.796      1.248
REMARK  Name = 
REMARK  5 active torsions:
REMARK  status: ('A' for Active; 'I' for Inactive)
REMARK    1  A    between atoms: C_1  and  C_2
REMARK    2  A    between atoms: C_7  and  C_8
REMARK    3  A    between atoms: C_8  and  N_9
REMARK    4  A    between atoms: N_16  and  S_17
REMARK    5  A    between atoms: S_17  and  C_20
REMARK                            x       y       z     vdW  Elec       q    Type
REMARK                         _______ _______ _______ _____ _____    ______ ____
ROOT
ATOM      1  N   UNL     1       2.037   7.158  18.864  0.00  0.00    +0.000 NA
ATOM      2  C   UNL     1       3.260   7.501  18.182  0.00  0.00    +0.000 C 
ATOM      3  C   UNL     1       4.353   6.455  18.148  0.00  0.00    +0.000 C 
ATOM      4  C   UNL     1       3.907   5.004  17.951  0.00  0.00    +0.000 C 
ATOM      5  C   UNL     1       2.636   4.671  18.735  0.00  0.00    +0.000 C 
ATOM      6  C   UNL     1       1.582   5.787  18.717  0.00  0.00    +0.000 C 
ATOM      7  C   UNL     1       5.124   4.048  18.271  0.00  0.00    +0.000 C 
ATOM      8  N   UNL     1       5.519   4.047  16.813  0.00  0.00    +0.000 NA
ATOM      9  C   UNL     1       4.062   4.359  16.524  0.00  0.00    +0.000 C 
ENDROOT
BRANCH   8  10
ATOM     10  S   UNL     1       6.800   5.004  16.164  0.00  0.00    +0.000 S 
ATOM     11  O   UNL     1       6.452   6.400  16.333  0.00  0.00    +0.000 OA
ATOM     12  O   UNL     1       8.057   4.486  16.667  0.00  0.00    +0.000 OA
BRANCH  10  13
ATOM     13  C   UNL     1       6.773   4.658  14.426  0.00  0.00    +0.000 A 
ATOM     14  C   UNL     1       7.684   5.297  13.584  0.00  0.00    +0.000 A 
ATOM     15  C   UNL     1       7.718   4.961  12.229  0.00  0.00    +0.000 A 
ATOM     16  C   UNL     1       6.859   3.978  11.728  0.00  0.00    +0.000 A 
ATOM     17  C   UNL     1       5.977   3.314  12.580  0.00  0.00    +0.000 A 
ATOM     18  C   UNL     1       5.936   3.649  13.934  0.00  0.00    +0.000 A 
ENDBRANCH  10  13
ENDBRANCH   8  10
BRANCH   1  19
ATOM     19  C   UNL     1       1.886   7.870  20.129  0.00  0.00    +0.000 C 
BRANCH  19  26
ATOM     20  C   UNL     1       0.668   9.280  22.570  0.00  0.00    +0.000 C 
ATOM     21  C   UNL     1       0.387   9.686  21.151  0.00  0.00    +0.000 A 
ATOM     22  C   UNL     1      -0.556  10.702  20.942  0.00  0.00    +0.000 A 
ATOM     23  C   UNL     1      -0.828  11.191  19.662  0.00  0.00    +0.000 A 
ATOM     24  C   UNL     1      -0.141  10.683  18.567  0.00  0.00    +0.000 A 
ATOM     25  C   UNL     1       0.765   9.640  18.750  0.00  0.00    +0.000 A 
ATOM     26  C   UNL     1       1.010   9.101  20.032  0.00  0.00    +0.000 A 
ENDBRANCH  19  26
ENDBRANCH   1  19
TORSDOF 4
ENDMDL
MODEL 4
REMARK VINA RESULT:      -8.1      4.167      9.744
REMARK  Name = 
REMARK  5 active torsions:
REMARK  status: ('A' for Active; 'I' for Inactive)
REMARK    1  A    between atoms: C_1  and  C_2
REMARK    2  A    between atoms: C_7  and  C_8
REMARK    3  A    between atoms: C_8  and  N_9
REMARK    4  A    between atoms: N_16  and  S_17
REMARK    5  A    between atoms: S_17  and  C_20
REMARK                            x       y       z     vdW  Elec       q    Type
REMARK                         _______ _______ _______ _____ _____    ______ ____
ROOT
ATOM      1  N   UNL     1       2.798   6.897  18.800  0.00  0.00    +0.000 NA
ATOM      2  C   UNL     1       2.395   8.265  18.591  0.00  0.00    +0.000 C 
ATOM      3  C   UNL     1       1.198   8.763  19.372  0.00  0.00    +0.000 C 
ATOM      4  C   UNL     1       1.080   8.286  20.822  0.00  0.00    +0.000 C 
ATOM      5  C   UNL     1       1.468   6.815  20.987  0.00  0.00    +0.000 C 
ATOM      6  C   UNL     1       2.690   6.396  20.158  0.00  0.00    +0.000 C 
ATOM      7  C   UNL     1      -0.367   8.629  21.356  0.00  0.00    +0.000 C 
ATOM      8  N   UNL     1       0.137   9.942  21.907  0.00  0.00    +0.000 NA
ATOM      9  C   UNL     1       1.498   9.274  21.973  0.00  0.00    +0.000 C 
ENDROOT
BRANCH   8  10
ATOM     10  S   UNL     1      -0.092  11.463  21.126  0.00  0.00    +0.000 S 
ATOM     11  O   UNL     1       0.951  12.363  21.574  0.00  0.00    +0.000 OA
ATOM     12  O   UNL     1      -0.310  11.223  19.712  0.00  0.00    +0.000 OA
BRANCH  10  13
ATOM     13  C   UNL     1      -1.626  12.066  21.776  0.00  0.00    +0.000 A 
ATOM     14  C   UNL     1      -2.557  12.647  20.913  0.00  0.00    +0.000 A 
ATOM     15  C   UNL     1      -3.799  13.045  21.411  0.00  0.00    +0.000 A 
ATOM     16  C   UNL     1      -4.113  12.842  22.758  0.00  0.00    +0.000 A 
ATOM     17  C   UNL     1      -3.196  12.225  23.608  0.00  0.00    +0.000 A 
ATOM     18  C   UNL     1      -1.951  11.830  23.118  0.00  0.00    +0.000 A 
ENDBRANCH  10  13
ENDBRANCH   8  10
BRANCH   1  19
ATOM     19  C   UNL     1       2.492   6.045  17.656  0.00  0.00    +0.000 C 
BRANCH  19  26
ATOM     20  C   UNL     1       5.047   4.357  17.423  0.00  0.00    +0.000 C 
ATOM     21  C   UNL     1       3.703   3.784  17.774  0.00  0.00    +0.000 A 
ATOM     22  C   UNL     1       3.606   2.392  17.908  0.00  0.00    +0.000 A 
ATOM     23  C   UNL     1       2.414   1.779  18.300  0.00  0.00    +0.000 A 
ATOM     24  C   UNL     1       1.300   2.556  18.590  0.00  0.00    +0.000 A 
ATOM     25  C   UNL     1       1.364   3.937  18.417  0.00  0.00    +0.000 A 
ATOM     26  C   UNL     1       2.548   4.564  17.969  0.00  0.00    +0.000 A 
ENDBRANCH  19  26
ENDBRANCH   1  19
TORSDOF 4
ENDMDL
MODEL 5
REMARK VINA RESULT:      -7.9      2.431      3.092
REMARK  Name = 
REMARK  5 active torsions:
REMARK  status: ('A' for Active; 'I' for Inactive)
REMARK    1  A    between atoms: C_1  and  C_2
REMARK    2  A    between atoms: C_7  and  C_8
REMARK    3  A    between atoms: C_8  and  N_9
REMARK    4  A    between atoms: N_16  and  S_17
REMARK    5  A    between atoms: S_17  and  C_20
REMARK                            x       y       z     vdW  Elec       q    Type
REMARK                         _______ _______ _______ _____ _____    ______ ____
ROOT
ATOM      1  N   UNL     1       1.572   7.019  20.117  0.00  0.00    +0.000 NA
ATOM      2  C   UNL     1       2.411   7.214  18.961  0.00  0.00    +0.000 C 
ATOM      3  C   UNL     1       3.603   6.293  18.806  0.00  0.00    +0.000 C 
ATOM      4  C   UNL     1       3.389   4.827  19.191  0.00  0.00    +0.000 C 
ATOM      5  C   UNL     1       2.537   4.671  20.452  0.00  0.00    +0.000 C 
ATOM      6  C   UNL     1       1.352   5.644  20.528  0.00  0.00    +0.000 C 
ATOM      7  C   UNL     1       4.797   4.112  19.279  0.00  0.00    +0.000 C 
ATOM      8  N   UNL     1       4.674   3.675  17.838  0.00  0.00    +0.000 NA
ATOM      9  C   UNL     1       3.174   3.774  18.042  0.00  0.00    +0.000 C 
ENDROOT
BRANCH   8  10
ATOM     10  S   UNL     1       5.468   4.464  16.524  0.00  0.00    +0.000 S 
ATOM     11  O   UNL     1       6.244   3.475  15.805  0.00  0.00    +0.000 OA
ATOM     12  O   UNL     1       4.496   5.291  15.834  0.00  0.00    +0.000 OA
BRANCH  10  13
ATOM     13  C   UNL     1       6.611   5.573  17.301  0.00  0.00    +0.000 A 
ATOM     14  C   UNL     1       6.667   6.904  16.885  0.00  0.00    +0.000 A 
ATOM     15  C   UNL     1       7.507   7.796  17.553  0.00  0.00    +0.000 A 
ATOM     16  C   UNL     1       8.269   7.362  18.643  0.00  0.00    +0.000 A 
ATOM     17  C   UNL     1       8.180   6.041  19.080  0.00  0.00    +0.000 A 
ATOM     18  C   UNL     1       7.346   5.143  18.413  0.00  0.00    +0.000 A 
ENDBRANCH  10  13
ENDBRANCH   8  10
BRANCH   1  19
ATOM     19  C   UNL     1       1.724   8.084  21.103  0.00  0.00    +0.000 C 
BRANCH  19  26
ATOM     20  C   UNL     1       0.072   9.488  23.278  0.00  0.00    +0.000 C 
ATOM     21  C   UNL     1       0.024   9.867  21.825  0.00  0.00    +0.000 A 
ATOM     22  C   UNL     1      -0.897  10.853  21.442  0.00  0.00    +0.000 A 
ATOM     23  C   UNL     1      -0.962  11.317  20.126  0.00  0.00    +0.000 A 
ATOM     24  C   UNL     1      -0.085  10.817  19.172  0.00  0.00    +0.000 A 
ATOM     25  C   UNL     1       0.805   9.804  19.524  0.00  0.00    +0.000 A 
ATOM     26  C   UNL     1       0.844   9.288  20.838  0.00  0.00    +0.000 A 
ENDBRANCH  19  26
ENDBRANCH   1  19
TORSDOF 4
ENDMDL
MODEL 6
REMARK VINA RESULT:      -7.9      4.109      9.935
REMARK  Name = 
REMARK  5 active torsions:
REMARK  status: ('A' for Active; 'I' for Inactive)
REMARK    1  A    between atoms: C_1  and  C_2
REMARK    2  A    between atoms: C_7  and  C_8
REMARK    3  A    between atoms: C_8  and  N_9
REMARK    4  A    between atoms: N_16  and  S_17
REMARK    5  A    between atoms: S_17  and  C_20
REMARK                            x       y       z     vdW  Elec       q    Type
REMARK                         _______ _______ _______ _____ _____    ______ ____
ROOT
ATOM      1  N   UNL     1       2.227   7.113  19.000  0.00  0.00    +0.000 NA
ATOM      2  C   UNL     1       1.715   7.621  20.248  0.00  0.00    +0.000 C 
ATOM      3  C   UNL     1       1.514   9.117  20.358  0.00  0.00    +0.000 C 
ATOM      4  C   UNL     1       0.967   9.827  19.117  0.00  0.00    +0.000 C 
ATOM      5  C   UNL     1       1.576   9.290  17.820  0.00  0.00    +0.000 C 
ATOM      6  C   UNL     1       1.746   7.765  17.795  0.00  0.00    +0.000 C 
ATOM      7  C   UNL     1       1.137  11.387  19.305  0.00  0.00    +0.000 C 
ATOM      8  N   UNL     1      -0.257  11.478  19.880  0.00  0.00    +0.000 NA
ATOM      9  C   UNL     1      -0.556  10.220  19.088  0.00  0.00    +0.000 C 
ENDROOT
BRANCH   8  10
ATOM     10  S   UNL     1      -0.594  11.591  21.569  0.00  0.00    +0.000 S 
ATOM     11  O   UNL     1      -0.694  10.248  22.101  0.00  0.00    +0.000 OA
ATOM     12  O   UNL     1       0.319  12.555  22.153  0.00  0.00    +0.000 OA
BRANCH  10  13
ATOM     13  C   UNL     1      -2.209  12.315  21.650  0.00  0.00    +0.000 A 
ATOM     14  C   UNL     1      -2.855  12.687  20.470  0.00  0.00    +0.000 A 
ATOM     15  C   UNL     1      -4.160  13.179  20.529  0.00  0.00    +0.000 A 
ATOM     16  C   UNL     1      -4.819  13.278  21.758  0.00  0.00    +0.000 A 
ATOM     17  C   UNL     1      -4.184  12.868  22.931  0.00  0.00    +0.000 A 
ATOM     18  C   UNL     1      -2.878  12.380  22.879  0.00  0.00    +0.000 A 
ENDBRANCH  10  13
ENDBRANCH   8  10
BRANCH   1  19
ATOM     19  C   UNL     1       3.608   6.655  19.108  0.00  0.00    +0.000 C 
BRANCH  19  26
ATOM     20  C   UNL     1       2.819   3.778  18.375  0.00  0.00    +0.000 C 
ATOM     21  C   UNL     1       3.811   4.592  17.593  0.00  0.00    +0.000 A 
ATOM     22  C   UNL     1       4.474   3.961  16.530  0.00  0.00    +0.000 A 
ATOM     23  C   UNL     1       5.359   4.660  15.706  0.00  0.00    +0.000 A 
ATOM     24  C   UNL     1       5.579   6.015  15.919  0.00  0.00    +0.000 A 
ATOM     25  C   UNL     1       4.966   6.647  16.999  0.00  0.00    +0.000 A 
ATOM     26  C   UNL     1       4.110   5.939  17.871  0.00  0.00    +0.000 A 
ENDBRANCH  19  26
ENDBRANCH   1  19
TORSDOF 4
ENDMDL
MODEL 7
REMARK VINA RESULT:      -7.9      3.956      8.930
REMARK  Name = 
REMARK  5 active torsions:
REMARK  status: ('A' for Active; 'I' for Inactive)
REMARK    1  A    between atoms: C_1  and  C_2
REMARK    2  A    between atoms: C_7  and  C_8
REMARK    3  A    between atoms: C_8  and  N_9
REMARK    4  A    between atoms: N_16  and  S_17
REMARK    5  A    between atoms: S_17  and  C_20
REMARK                            x       y       z     vdW  Elec       q    Type
REMARK                         _______ _______ _______ _____ _____    ______ ____
ROOT
ATOM      1  N   UNL     1       2.455   7.517  18.911  0.00  0.00    +0.000 NA
ATOM      2  C   UNL     1       2.024   8.704  18.215  0.00  0.00    +0.000 C 
ATOM      3  C   UNL     1       0.772   9.388  18.720  0.00  0.00    +0.000 C 
ATOM      4  C   UNL     1       0.588   9.445  20.239  0.00  0.00    +0.000 C 
ATOM      5  C   UNL     1       1.009   8.146  20.929  0.00  0.00    +0.000 C 
ATOM      6  C   UNL     1       2.287   7.520  20.353  0.00  0.00    +0.000 C 
ATOM      7  C   UNL     1      -0.897   9.886  20.557  0.00  0.00    +0.000 C 
ATOM      8  N   UNL     1      -0.462  11.330  20.630  0.00  0.00    +0.000 NA
ATOM      9  C   UNL     1       0.912  10.793  20.983  0.00  0.00    +0.000 C 
ENDROOT
BRANCH   8  10
ATOM     10  S   UNL     1      -0.692  12.468  19.353  0.00  0.00    +0.000 S 
ATOM     11  O   UNL     1      -1.070  13.737  19.940  0.00  0.00    +0.000 OA
ATOM     12  O   UNL     1       0.438  12.375  18.448  0.00  0.00    +0.000 OA
BRANCH  10  13
ATOM     13  C   UNL     1      -2.098  11.857  18.465  0.00  0.00    +0.000 A 
ATOM     14  C   UNL     1      -3.376  12.027  19.000  0.00  0.00    +0.000 A 
ATOM     15  C   UNL     1      -4.488  11.620  18.260  0.00  0.00    +0.000 A 
ATOM     16  C   UNL     1      -4.322  11.067  16.987  0.00  0.00    +0.000 A 
ATOM     17  C   UNL     1      -3.046  10.935  16.440  0.00  0.00    +0.000 A 
ATOM     18  C   UNL     1      -1.930  11.335  17.175  0.00  0.00    +0.000 A 
ENDBRANCH  10  13
ENDBRANCH   8  10
BRANCH   1  19
ATOM     19  C   UNL     1       2.238   6.304  18.130  0.00  0.00    +0.000 C 
BRANCH  19  26
ATOM     20  C   UNL     1       2.542   3.352  17.339  0.00  0.00    +0.000 C 
ATOM     21  C   UNL     1       3.664   4.350  17.270  0.00  0.00    +0.000 A 
ATOM     22  C   UNL     1       4.934   3.875  16.913  0.00  0.00    +0.000 A 
ATOM     23  C   UNL     1       6.018   4.741  16.756  0.00  0.00    +0.000 A 
ATOM     24  C   UNL     1       5.841   6.108  16.931  0.00  0.00    +0.000 A 
ATOM     25  C   UNL     1       4.598   6.593  17.332  0.00  0.00    +0.000 A 
ATOM     26  C   UNL     1       3.508   5.721  17.546  0.00  0.00    +0.000 A 
ENDBRANCH  19  26
ENDBRANCH   1  19
TORSDOF 4
ENDMDL
MODEL 8
REMARK VINA RESULT:      -7.8      4.002      9.044
REMARK  Name = 
REMARK  5 active torsions:
REMARK  status: ('A' for Active; 'I' for Inactive)
REMARK    1  A    between atoms: C_1  and  C_2
REMARK    2  A    between atoms: C_7  and  C_8
REMARK    3  A    between atoms: C_8  and  N_9
REMARK    4  A    between atoms: N_16  and  S_17
REMARK    5  A    between atoms: S_17  and  C_20
REMARK                            x       y       z     vdW  Elec       q    Type
REMARK                         _______ _______ _______ _____ _____    ______ ____
ROOT
ATOM      1  N   UNL     1       2.543   6.900  18.820  0.00  0.00    +0.000 NA
ATOM      2  C   UNL     1       2.317   8.299  18.560  0.00  0.00    +0.000 C 
ATOM      3  C   UNL     1       1.214   8.980  19.341  0.00  0.00    +0.000 C 
ATOM      4  C   UNL     1       1.070   8.581  20.813  0.00  0.00    +0.000 C 
ATOM      5  C   UNL     1       1.268   7.080  21.033  0.00  0.00    +0.000 C 
ATOM      6  C   UNL     1       2.405   6.472  20.201  0.00  0.00    +0.000 C 
ATOM      7  C   UNL     1      -0.307   9.132  21.359  0.00  0.00    +0.000 C 
ATOM      8  N   UNL     1       0.377  10.388  21.843  0.00  0.00    +0.000 NA
ATOM      9  C   UNL     1       1.641   9.552  21.912  0.00  0.00    +0.000 C 
ENDROOT
BRANCH   8  10
ATOM     10  S   UNL     1       0.328  11.894  21.001  0.00  0.00    +0.000 S 
ATOM     11  O   UNL     1       0.317  12.960  21.982  0.00  0.00    +0.000 OA
ATOM     12  O   UNL     1       1.326  11.863  19.949  0.00  0.00    +0.000 OA
BRANCH  10  13
ATOM     13  C   UNL     1      -1.251  11.899  20.197  0.00  0.00    +0.000 A 
ATOM     14  C   UNL     1      -2.348  12.476  20.838  0.00  0.00    +0.000 A 
ATOM     15  C   UNL     1      -3.570  12.554  20.169  0.00  0.00    +0.000 A 
ATOM     16  C   UNL     1      -3.687  12.077  18.860  0.00  0.00    +0.000 A 
ATOM     17  C   UNL     1      -2.578  11.537  18.208  0.00  0.00    +0.000 A 
ATOM     18  C   UNL     1      -1.355  11.451  18.873  0.00  0.00    +0.000 A 
ENDBRANCH  10  13
ENDBRANCH   8  10
BRANCH   1  19
ATOM     19  C   UNL     1       2.102   6.049  17.720  0.00  0.00    +0.000 C 
BRANCH  19  26
ATOM     20  C   UNL     1       4.848   4.795  17.156  0.00  0.00    +0.000 C 
ATOM     21  C   UNL     1       3.644   4.001  17.581  0.00  0.00    +0.000 A 
ATOM     22  C   UNL     1       3.771   2.606  17.628  0.00  0.00    +0.000 A 
ATOM     23  C   UNL     1       2.727   1.794  18.078  0.00  0.00    +0.000 A 
ATOM     24  C   UNL     1       1.541   2.372  18.513  0.00  0.00    +0.000 A 
ATOM     25  C   UNL     1       1.380   3.753  18.430  0.00  0.00    +0.000 A 
ATOM     26  C   UNL     1       2.408   4.580  17.926  0.00  0.00    +0.000 A 
ENDBRANCH  19  26
ENDBRANCH   1  19
TORSDOF 4
ENDMDL
MODEL 9
REMARK VINA RESULT:      -7.8      4.249     10.088
REMARK  Name = 
REMARK  5 active torsions:
REMARK  status: ('A' for Active; 'I' for Inactive)
REMARK    1  A    between atoms: C_1  and  C_2
REMARK    2  A    between atoms: C_7  and  C_8
REMARK    3  A    between atoms: C_8  and  N_9
REMARK    4  A    between atoms: N_16  and  S_17
REMARK    5  A    between atoms: S_17  and  C_20
REMARK                            x       y       z     vdW  Elec       q    Type
REMARK                         _______ _______ _______ _____ _____    ______ ____
ROOT
ATOM      1  N   UNL     1       2.165   7.341  19.005  0.00  0.00    +0.000 NA
ATOM      2  C   UNL     1       1.623   7.724  20.285  0.00  0.00    +0.000 C 
ATOM      3  C   UNL     1       1.401   9.201  20.530  0.00  0.00    +0.000 C 
ATOM      4  C   UNL     1       0.868  10.018  19.350  0.00  0.00    +0.000 C 
ATOM      5  C   UNL     1       1.508   9.612  18.021  0.00  0.00    +0.000 C 
ATOM      6  C   UNL     1       1.698   8.098  17.857  0.00  0.00    +0.000 C 
ATOM      7  C   UNL     1       1.014  11.556  19.687  0.00  0.00    +0.000 C 
ATOM      8  N   UNL     1      -0.391  11.577  20.241  0.00  0.00    +0.000 NA
ATOM      9  C   UNL     1      -0.659  10.395  19.328  0.00  0.00    +0.000 C 
ENDROOT
BRANCH   8  10
ATOM     10  S   UNL     1      -0.761  11.527  21.925  0.00  0.00    +0.000 S 
ATOM     11  O   UNL     1      -0.830  10.139  22.332  0.00  0.00    +0.000 OA
ATOM     12  O   UNL     1       0.112  12.460  22.612  0.00  0.00    +0.000 OA
BRANCH  10  13
ATOM     13  C   UNL     1      -2.398  12.195  22.038  0.00  0.00    +0.000 A 
ATOM     14  C   UNL     1      -3.024  12.274  23.283  0.00  0.00    +0.000 A 
ATOM     15  C   UNL     1      -4.279  12.877  23.383  0.00  0.00    +0.000 A 
ATOM     16  C   UNL     1      -4.892  13.415  22.248  0.00  0.00    +0.000 A 
ATOM     17  C   UNL     1      -4.246  13.369  21.012  0.00  0.00    +0.000 A 
ATOM     18  C   UNL     1      -2.994  12.764  20.905  0.00  0.00    +0.000 A 
ENDBRANCH  10  13
ENDBRANCH   8  10
BRANCH   1  19
ATOM     19  C   UNL     1       3.549   6.890  19.097  0.00  0.00    +0.000 C 
BRANCH  19  26
ATOM     20  C   UNL     1       2.689   3.994  18.546  0.00  0.00    +0.000 C 
ATOM     21  C   UNL     1       3.680   4.741  17.699  0.00  0.00    +0.000 A 
ATOM     22  C   UNL     1       4.308   4.036  16.662  0.00  0.00    +0.000 A 
ATOM     23  C   UNL     1       5.189   4.668  15.781  0.00  0.00    +0.000 A 
ATOM     24  C   UNL     1       5.440   6.028  15.912  0.00  0.00    +0.000 A 
ATOM     25  C   UNL     1       4.862   6.734  16.965  0.00  0.00    +0.000 A 
ATOM     26  C   UNL     1       4.011   6.095  17.894  0.00  0.00    +0.000 A 
ENDBRANCH  19  26
ENDBRANCH   1  19
TORSDOF 4
ENDMDL
