MODEL 1
REMARK VINA RESULT:      -8.6      0.000      0.000
REMARK  Name = 
REMARK  4 active torsions:
REMARK  status: ('A' for Active; 'I' for Inactive)
REMARK    1  A    between atoms: C_4  and  C_5
REMARK    2  A    between atoms: N_8  and  C_9
REMARK    3  A    between atoms: C_9  and  C_10
REMARK    4  A    between atoms: C_10  and  N_11
REMARK                            x       y       z     vdW  Elec       q    Type
REMARK                         _______ _______ _______ _____ _____    ______ ____
ROOT
ATOM      1  C   UNL     1       3.830   6.675  18.136  0.00  0.00    +0.000 A 
ATOM      2  N   UNL     1       3.446   6.146  19.298  0.00  0.00    +0.000 NA
ATOM      3  C   UNL     1       2.446   6.730  19.953  0.00  0.00    +0.000 A 
ATOM      4  N   UNL     1       1.808   6.021  20.999  0.00  0.00    +0.000 N 
ATOM      5  C   UNL     1       1.955   7.977  19.572  0.00  0.00    +0.000 A 
ATOM      6  C   UNL     1       1.119   8.778  20.389  0.00  0.00    +0.000 A 
ATOM      7  C   UNL     1       0.527   9.922  19.877  0.00  0.00    +0.000 A 
ATOM      8  C   UNL     1       0.728  10.235  18.539  0.00  0.00    +0.000 A 
ATOM      9  C   UNL     1       1.614   9.471  17.761  0.00  0.00    +0.000 A 
ATOM     10  C   UNL     1       2.298   8.373  18.277  0.00  0.00    +0.000 A 
ATOM     11  N   UNL     1       3.223   7.719  17.541  0.00  0.00    +0.000 NA
ATOM     12  H   UNL     1       0.808   6.081  20.810  0.00  0.00    +0.000 HD
ENDROOT
BRANCH   1  16
ATOM     13  C   UNL     1       7.105   4.523  16.415  0.00  0.00    +0.000 A 
ATOM     14  C   UNL     1       5.964   4.755  15.655  0.00  0.00    +0.000 A 
ATOM     15  C   UNL     1       4.905   5.493  16.187  0.00  0.00    +0.000 A 
ATOM     16  C   UNL     1       4.965   5.987  17.495  0.00  0.00    +0.000 A 
ATOM     17  C   UNL     1       6.143   5.736  18.238  0.00  0.00    +0.000 A 
ATOM     18  C   UNL     1       7.203   5.016  17.711  0.00  0.00    +0.000 A 
ENDBRANCH   1  16
BRANCH   4  19
ATOM     19  C   UNL     1       2.213   4.607  21.070  0.00  0.00    +0.000 C 
BRANCH  19  20
ATOM     20  C   UNL     1       1.285   3.767  20.178  0.00  0.00    +0.000 C 
BRANCH  20  21
ATOM     21  N   UNL     1       1.732   2.391  19.896  0.00  0.00    +0.000 NA
ATOM     22  C   UNL     1       3.155   2.145  20.208  0.00  0.00    +0.000 C 
ATOM     23  C   UNL     1       4.133   2.867  19.268  0.00  0.00    +0.000 C 
ATOM     24  O   UNL     1       3.868   2.566  17.890  0.00  0.00    +0.000 OA
ATOM     25  C   UNL     1       2.508   2.853  17.544  0.00  0.00    +0.000 C 
ATOM     26  C   UNL     1       1.530   2.090  18.460  0.00  0.00    +0.000 C 
ENDBRANCH  20  21
ENDBRANCH  19  20
ENDBRANCH   4  19
TORSDOF 4
ENDMDL
MODEL 2
REMARK VINA RESULT:      -7.9      2.835      5.041
REMARK  Name = 
REMARK  4 active torsions:
REMARK  status: ('A' for Active; 'I' for Inactive)
REMARK    1  A    between atoms: C_4  and  C_5
REMARK    2  A    between atoms: N_8  and  C_9
REMARK    3  A    between atoms: C_9  and  C_10
REMARK    4  A    between atoms: C_10  and  N_11
REMARK                            x       y       z     vdW  Elec       q    Type
REMARK                         _______ _______ _______ _____ _____    ______ ____
ROOT
ATOM      1  C   UNL     1       6.194   4.567  15.164  0.00  0.00    +0.000 A 
ATOM      2  N   UNL     1       5.687   3.740  16.081  0.00  0.00    +0.000 NA
ATOM      3  C   UNL     1       5.857   4.048  17.363  0.00  0.00    +0.000 A 
ATOM      4  N   UNL     1       5.067   3.387  18.334  0.00  0.00    +0.000 N 
ATOM      5  C   UNL     1       6.720   5.067  17.761  0.00  0.00    +0.000 A 
ATOM      6  C   UNL     1       7.173   5.242  19.092  0.00  0.00    +0.000 A 
ATOM      7  C   UNL     1       7.886   6.376  19.447  0.00  0.00    +0.000 A 
ATOM      8  C   UNL     1       8.100   7.356  18.486  0.00  0.00    +0.000 A 
ATOM      9  C   UNL     1       7.707   7.137  17.155  0.00  0.00    +0.000 A 
ATOM     10  C   UNL     1       7.075   5.965  16.751  0.00  0.00    +0.000 A 
ATOM     11  N   UNL     1       6.802   5.733  15.448  0.00  0.00    +0.000 NA
ATOM     12  H   UNL     1       4.670   4.122  18.921  0.00  0.00    +0.000 HD
ENDROOT
BRANCH   1  16
ATOM     13  C   UNL     1       5.729   3.143  11.154  0.00  0.00    +0.000 A 
ATOM     14  C   UNL     1       4.620   3.207  11.990  0.00  0.00    +0.000 A 
ATOM     15  C   UNL     1       4.748   3.710  13.286  0.00  0.00    +0.000 A 
ATOM     16  C   UNL     1       5.991   4.133  13.770  0.00  0.00    +0.000 A 
ATOM     17  C   UNL     1       7.097   4.058  12.890  0.00  0.00    +0.000 A 
ATOM     18  C   UNL     1       6.975   3.572  11.598  0.00  0.00    +0.000 A 
ENDBRANCH   1  16
BRANCH   4  19
ATOM     19  C   UNL     1       3.981   2.584  17.747  0.00  0.00    +0.000 C 
BRANCH  19  20
ATOM     20  C   UNL     1       2.911   2.318  18.817  0.00  0.00    +0.000 C 
BRANCH  20  21
ATOM     21  N   UNL     1       1.613   2.988  18.613  0.00  0.00    +0.000 NA
ATOM     22  C   UNL     1       1.725   4.399  18.190  0.00  0.00    +0.000 C 
ATOM     23  C   UNL     1       2.263   5.337  19.283  0.00  0.00    +0.000 C 
ATOM     24  O   UNL     1       1.497   5.241  20.492  0.00  0.00    +0.000 OA
ATOM     25  C   UNL     1       1.423   3.890  20.959  0.00  0.00    +0.000 C 
ATOM     26  C   UNL     1       0.839   2.960  19.876  0.00  0.00    +0.000 C 
ENDBRANCH  20  21
ENDBRANCH  19  20
ENDBRANCH   4  19
TORSDOF 4
ENDMDL
MODEL 3
REMARK VINA RESULT:      -7.7      2.924      5.045
REMARK  Name = 
REMARK  4 active torsions:
REMARK  status: ('A' for Active; 'I' for Inactive)
REMARK    1  A    between atoms: C_4  and  C_5
REMARK    2  A    between atoms: N_8  and  C_9
REMARK    3  A    between atoms: C_9  and  C_10
REMARK    4  A    between atoms: C_10  and  N_11
REMARK                            x       y       z     vdW  Elec       q    Type
REMARK                         _______ _______ _______ _____ _____    ______ ____
ROOT
ATOM      1  C   UNL     1       6.350   4.609  15.245  0.00  0.00    +0.000 A 
ATOM      2  N   UNL     1       5.826   3.836  16.197  0.00  0.00    +0.000 NA
ATOM      3  C   UNL     1       5.977   4.214  17.464  0.00  0.00    +0.000 A 
ATOM      4  N   UNL     1       5.169   3.609  18.457  0.00  0.00    +0.000 N 
ATOM      5  C   UNL     1       6.837   5.251  17.818  0.00  0.00    +0.000 A 
ATOM      6  C   UNL     1       7.269   5.498  19.145  0.00  0.00    +0.000 A 
ATOM      7  C   UNL     1       7.980   6.649  19.448  0.00  0.00    +0.000 A 
ATOM      8  C   UNL     1       8.212   7.574  18.438  0.00  0.00    +0.000 A 
ATOM      9  C   UNL     1       7.839   7.283  17.116  0.00  0.00    +0.000 A 
ATOM     10  C   UNL     1       7.211   6.091  16.766  0.00  0.00    +0.000 A 
ATOM     11  N   UNL     1       6.958   5.788  15.474  0.00  0.00    +0.000 NA
ATOM     12  H   UNL     1       4.765   4.376  18.996  0.00  0.00    +0.000 HD
ENDROOT
BRANCH   1  16
ATOM     13  C   UNL     1       5.691   3.289  11.227  0.00  0.00    +0.000 A 
ATOM     14  C   UNL     1       6.966   3.684  11.617  0.00  0.00    +0.000 A 
ATOM     15  C   UNL     1       7.206   4.076  12.935  0.00  0.00    +0.000 A 
ATOM     16  C   UNL     1       6.168   4.100  13.874  0.00  0.00    +0.000 A 
ATOM     17  C   UNL     1       4.885   3.687  13.444  0.00  0.00    +0.000 A 
ATOM     18  C   UNL     1       4.642   3.284  12.140  0.00  0.00    +0.000 A 
ENDBRANCH   1  16
BRANCH   4  19
ATOM     19  C   UNL     1       4.090   2.778  17.897  0.00  0.00    +0.000 C 
BRANCH  19  20
ATOM     20  C   UNL     1       3.237   2.214  19.044  0.00  0.00    +0.000 C 
BRANCH  20  21
ATOM     21  N   UNL     1       1.832   2.662  19.083  0.00  0.00    +0.000 NA
ATOM     22  C   UNL     1       1.632   4.054  18.631  0.00  0.00    +0.000 C 
ATOM     23  C   UNL     1       2.203   5.109  19.592  0.00  0.00    +0.000 C 
ATOM     24  O   UNL     1       1.701   4.944  20.926  0.00  0.00    +0.000 OA
ATOM     25  C   UNL     1       1.936   3.618  21.413  0.00  0.00    +0.000 C 
ATOM     26  C   UNL     1       1.321   2.563  20.470  0.00  0.00    +0.000 C 
ENDBRANCH  20  21
ENDBRANCH  19  20
ENDBRANCH   4  19
TORSDOF 4
ENDMDL
MODEL 4
REMARK VINA RESULT:      -7.7      2.619      5.787
REMARK  Name = 
REMARK  4 active torsions:
REMARK  status: ('A' for Active; 'I' for Inactive)
REMARK    1  A    between atoms: C_4  and  C_5
REMARK    2  A    between atoms: N_8  and  C_9
REMARK    3  A    between atoms: C_9  and  C_10
REMARK    4  A    between atoms: C_10  and  N_11
REMARK                            x       y       z     vdW  Elec       q    Type
REMARK                         _______ _______ _______ _____ _____    ______ ____
ROOT
ATOM      1  C   UNL     1       4.504   4.657  17.486  0.00  0.00    +0.000 A 
ATOM      2  N   UNL     1       3.671   5.700  17.501  0.00  0.00    +0.000 NA
ATOM      3  C   UNL     1       2.770   5.767  18.477  0.00  0.00    +0.000 A 
ATOM      4  N   UNL     1       2.106   6.996  18.710  0.00  0.00    +0.000 N 
ATOM      5  C   UNL     1       2.536   4.691  19.330  0.00  0.00    +0.000 A 
ATOM      6  C   UNL     1       1.404   4.586  20.176  0.00  0.00    +0.000 A 
ATOM      7  C   UNL     1       1.327   3.577  21.123  0.00  0.00    +0.000 A 
ATOM      8  C   UNL     1       2.402   2.707  21.259  0.00  0.00    +0.000 A 
ATOM      9  C   UNL     1       3.485   2.780  20.368  0.00  0.00    +0.000 A 
ATOM     10  C   UNL     1       3.544   3.723  19.345  0.00  0.00    +0.000 A 
ATOM     11  N   UNL     1       4.544   3.706  18.437  0.00  0.00    +0.000 NA
ATOM     12  H   UNL     1       2.192   7.177  19.710  0.00  0.00    +0.000 HD
ENDROOT
BRANCH   1  16
ATOM     13  C   UNL     1       7.104   4.734  14.088  0.00  0.00    +0.000 A 
ATOM     14  C   UNL     1       7.525   5.302  15.285  0.00  0.00    +0.000 A 
ATOM     15  C   UNL     1       6.706   5.247  16.413  0.00  0.00    +0.000 A 
ATOM     16  C   UNL     1       5.446   4.643  16.353  0.00  0.00    +0.000 A 
ATOM     17  C   UNL     1       5.051   4.071  15.120  0.00  0.00    +0.000 A 
ATOM     18  C   UNL     1       5.865   4.110  13.999  0.00  0.00    +0.000 A 
ENDBRANCH   1  16
BRANCH   4  19
ATOM     19  C   UNL     1       2.686   8.119  17.954  0.00  0.00    +0.000 C 
BRANCH  19  20
ATOM     20  C   UNL     1       2.062   9.435  18.441  0.00  0.00    +0.000 C 
BRANCH  20  21
ATOM     21  N   UNL     1       0.725   9.328  19.053  0.00  0.00    +0.000 NA
ATOM     22  C   UNL     1      -0.308  10.151  18.389  0.00  0.00    +0.000 C 
ATOM     23  C   UNL     1      -0.120  11.664  18.586  0.00  0.00    +0.000 C 
ATOM     24  O   UNL     1      -0.024  12.014  19.974  0.00  0.00    +0.000 OA
ATOM     25  C   UNL     1       1.012  11.273  20.630  0.00  0.00    +0.000 C 
ATOM     26  C   UNL     1       0.794   9.754  20.470  0.00  0.00    +0.000 C 
ENDBRANCH  20  21
ENDBRANCH  19  20
ENDBRANCH   4  19
TORSDOF 4
ENDMDL
MODEL 5
REMARK VINA RESULT:      -7.7      2.526      5.737
REMARK  Name = 
REMARK  4 active torsions:
REMARK  status: ('A' for Active; 'I' for Inactive)
REMARK    1  A    between atoms: C_4  and  C_5
REMARK    2  A    between atoms: N_8  and  C_9
REMARK    3  A    between atoms: C_9  and  C_10
REMARK    4  A    between atoms: C_10  and  N_11
REMARK                            x       y       z     vdW  Elec       q    Type
REMARK                         _______ _______ _______ _____ _____    ______ ____
ROOT
ATOM      1  C   UNL     1       4.440   4.616  17.652  0.00  0.00    +0.000 A 
ATOM      2  N   UNL     1       3.588   5.642  17.691  0.00  0.00    +0.000 NA
ATOM      3  C   UNL     1       2.699   5.680  18.680  0.00  0.00    +0.000 A 
ATOM      4  N   UNL     1       2.015   6.893  18.936  0.00  0.00    +0.000 N 
ATOM      5  C   UNL     1       2.497   4.589  19.521  0.00  0.00    +0.000 A 
ATOM      6  C   UNL     1       1.378   4.452  20.380  0.00  0.00    +0.000 A 
ATOM      7  C   UNL     1       1.332   3.430  21.315  0.00  0.00    +0.000 A 
ATOM      8  C   UNL     1       2.425   2.579  21.426  0.00  0.00    +0.000 A 
ATOM      9  C   UNL     1       3.495   2.684  20.522  0.00  0.00    +0.000 A 
ATOM     10  C   UNL     1       3.522   3.640  19.511  0.00  0.00    +0.000 A 
ATOM     11  N   UNL     1       4.510   3.653  18.590  0.00  0.00    +0.000 NA
ATOM     12  H   UNL     1       2.111   7.063  19.938  0.00  0.00    +0.000 HD
ENDROOT
BRANCH   1  16
ATOM     13  C   UNL     1       6.995   4.788  14.223  0.00  0.00    +0.000 A 
ATOM     14  C   UNL     1       7.429   5.330  15.427  0.00  0.00    +0.000 A 
ATOM     15  C   UNL     1       6.625   5.244  16.565  0.00  0.00    +0.000 A 
ATOM     16  C   UNL     1       5.367   4.634  16.507  0.00  0.00    +0.000 A 
ATOM     17  C   UNL     1       4.960   4.088  15.266  0.00  0.00    +0.000 A 
ATOM     18  C   UNL     1       5.758   4.159  14.135  0.00  0.00    +0.000 A 
ENDBRANCH   1  16
BRANCH   4  19
ATOM     19  C   UNL     1       2.564   8.036  18.187  0.00  0.00    +0.000 C 
BRANCH  19  20
ATOM     20  C   UNL     1       1.500   9.140  18.094  0.00  0.00    +0.000 C 
BRANCH  20  21
ATOM     21  N   UNL     1       1.598  10.217  19.096  0.00  0.00    +0.000 NA
ATOM     22  C   UNL     1       1.013   9.872  20.408  0.00  0.00    +0.000 C 
ATOM     23  C   UNL     1      -0.519   9.751  20.396  0.00  0.00    +0.000 C 
ATOM     24  O   UNL     1      -1.143  10.930  19.870  0.00  0.00    +0.000 OA
ATOM     25  C   UNL     1      -0.638  11.255  18.570  0.00  0.00    +0.000 C 
ATOM     26  C   UNL     1       0.895  11.422  18.596  0.00  0.00    +0.000 C 
ENDBRANCH  20  21
ENDBRANCH  19  20
ENDBRANCH   4  19
TORSDOF 4
ENDMDL
MODEL 6
REMARK VINA RESULT:      -7.5      1.772      4.786
REMARK  Name = 
REMARK  4 active torsions:
REMARK  status: ('A' for Active; 'I' for Inactive)
REMARK    1  A    between atoms: C_4  and  C_5
REMARK    2  A    between atoms: N_8  and  C_9
REMARK    3  A    between atoms: C_9  and  C_10
REMARK    4  A    between atoms: C_10  and  N_11
REMARK                            x       y       z     vdW  Elec       q    Type
REMARK                         _______ _______ _______ _____ _____    ______ ____
ROOT
ATOM      1  C   UNL     1       2.231   6.084  19.848  0.00  0.00    +0.000 A 
ATOM      2  N   UNL     1       2.720   6.350  18.636  0.00  0.00    +0.000 NA
ATOM      3  C   UNL     1       2.599   7.590  18.170  0.00  0.00    +0.000 A 
ATOM      4  N   UNL     1       3.381   7.979  17.056  0.00  0.00    +0.000 N 
ATOM      5  C   UNL     1       1.796   8.533  18.807  0.00  0.00    +0.000 A 
ATOM      6  C   UNL     1       1.388   9.753  18.211  0.00  0.00    +0.000 A 
ATOM      7  C   UNL     1       0.740  10.719  18.965  0.00  0.00    +0.000 A 
ATOM      8  C   UNL     1       0.549  10.489  20.322  0.00  0.00    +0.000 A 
ATOM      9  C   UNL     1       0.897   9.249  20.882  0.00  0.00    +0.000 A 
ATOM     10  C   UNL     1       1.460   8.224  20.128  0.00  0.00    +0.000 A 
ATOM     11  N   UNL     1       1.688   7.006  20.665  0.00  0.00    +0.000 NA
ATOM     12  H   UNL     1       3.828   8.858  17.320  0.00  0.00    +0.000 HD
ENDROOT
BRANCH   1  16
ATOM     13  C   UNL     1       2.830   2.061  21.178  0.00  0.00    +0.000 A 
ATOM     14  C   UNL     1       1.713   2.765  21.612  0.00  0.00    +0.000 A 
ATOM     15  C   UNL     1       1.481   4.063  21.153  0.00  0.00    +0.000 A 
ATOM     16  C   UNL     1       2.376   4.680  20.272  0.00  0.00    +0.000 A 
ATOM     17  C   UNL     1       3.500   3.932  19.847  0.00  0.00    +0.000 A 
ATOM     18  C   UNL     1       3.729   2.638  20.289  0.00  0.00    +0.000 A 
ENDBRANCH   1  16
BRANCH   4  19
ATOM     19  C   UNL     1       4.410   6.990  16.697  0.00  0.00    +0.000 C 
BRANCH  19  20
ATOM     20  C   UNL     1       5.593   7.111  17.670  0.00  0.00    +0.000 C 
BRANCH  20  21
ATOM     21  N   UNL     1       6.933   6.919  17.086  0.00  0.00    +0.000 NA
ATOM     22  C   UNL     1       7.095   5.639  16.365  0.00  0.00    +0.000 C 
ATOM     23  C   UNL     1       7.098   4.404  17.281  0.00  0.00    +0.000 C 
ATOM     24  O   UNL     1       8.078   4.514  18.322  0.00  0.00    +0.000 OA
ATOM     25  C   UNL     1       7.907   5.719  19.077  0.00  0.00    +0.000 C 
ATOM     26  C   UNL     1       7.951   6.960  18.161  0.00  0.00    +0.000 C 
ENDBRANCH  20  21
ENDBRANCH  19  20
ENDBRANCH   4  19
TORSDOF 4
ENDMDL
MODEL 7
REMARK VINA RESULT:      -7.5      2.632      5.839
REMARK  Name = 
REMARK  4 active torsions:
REMARK  status: ('A' for Active; 'I' for Inactive)
REMARK    1  A    between atoms: C_4  and  C_5
REMARK    2  A    between atoms: N_8  and  C_9
REMARK    3  A    between atoms: C_9  and  C_10
REMARK    4  A    between atoms: C_10  and  N_11
REMARK                            x       y       z     vdW  Elec       q    Type
REMARK                         _______ _______ _______ _____ _____    ______ ____
ROOT
ATOM      1  C   UNL     1       4.331   4.596  17.807  0.00  0.00    +0.000 A 
ATOM      2  N   UNL     1       3.438   5.582  17.909  0.00  0.00    +0.000 NA
ATOM      3  C   UNL     1       2.575   5.543  18.920  0.00  0.00    +0.000 A 
ATOM      4  N   UNL     1       1.848   6.715  19.242  0.00  0.00    +0.000 N 
ATOM      5  C   UNL     1       2.441   4.412  19.722  0.00  0.00    +0.000 A 
ATOM      6  C   UNL     1       1.351   4.194  20.603  0.00  0.00    +0.000 A 
ATOM      7  C   UNL     1       1.374   3.135  21.496  0.00  0.00    +0.000 A 
ATOM      8  C   UNL     1       2.503   2.328  21.545  0.00  0.00    +0.000 A 
ATOM      9  C   UNL     1       3.544   2.514  20.620  0.00  0.00    +0.000 A 
ATOM     10  C   UNL     1       3.504   3.509  19.648  0.00  0.00    +0.000 A 
ATOM     11  N   UNL     1       4.466   3.601  18.704  0.00  0.00    +0.000 NA
ATOM     12  H   UNL     1       1.963   6.850  20.247  0.00  0.00    +0.000 HD
ENDROOT
BRANCH   1  16
ATOM     13  C   UNL     1       7.055   4.753  14.511  0.00  0.00    +0.000 A 
ATOM     14  C   UNL     1       5.760   4.291  14.306  0.00  0.00    +0.000 A 
ATOM     15  C   UNL     1       4.847   4.275  15.362  0.00  0.00    +0.000 A 
ATOM     16  C   UNL     1       5.225   4.698  16.641  0.00  0.00    +0.000 A 
ATOM     17  C   UNL     1       6.550   5.166  16.811  0.00  0.00    +0.000 A 
ATOM     18  C   UNL     1       7.458   5.198  15.765  0.00  0.00    +0.000 A 
ENDBRANCH   1  16
BRANCH   4  19
ATOM     19  C   UNL     1       2.329   7.909  18.527  0.00  0.00    +0.000 C 
BRANCH  19  20
ATOM     20  C   UNL     1       1.733   9.166  19.179  0.00  0.00    +0.000 C 
BRANCH  20  21
ATOM     21  N   UNL     1       1.237  10.201  18.253  0.00  0.00    +0.000 NA
ATOM     22  C   UNL     1       1.620  11.577  18.628  0.00  0.00    +0.000 C 
ATOM     23  C   UNL     1       0.921  12.095  19.896  0.00  0.00    +0.000 C 
ATOM     24  O   UNL     1      -0.506  11.986  19.801  0.00  0.00    +0.000 OA
ATOM     25  C   UNL     1      -0.909  10.645  19.497  0.00  0.00    +0.000 C 
ATOM     26  C   UNL     1      -0.242  10.147  18.198  0.00  0.00    +0.000 C 
ENDBRANCH  20  21
ENDBRANCH  19  20
ENDBRANCH   4  19
TORSDOF 4
ENDMDL
MODEL 8
REMARK VINA RESULT:      -7.4      1.539      4.584
REMARK  Name = 
REMARK  4 active torsions:
REMARK  status: ('A' for Active; 'I' for Inactive)
REMARK    1  A    between atoms: C_4  and  C_5
REMARK    2  A    between atoms: N_8  and  C_9
REMARK    3  A    between atoms: C_9  and  C_10
REMARK    4  A    between atoms: C_10  and  N_11
REMARK                            x       y       z     vdW  Elec       q    Type
REMARK                         _______ _______ _______ _____ _____    ______ ____
ROOT
ATOM      1  C   UNL     1       2.139   6.085  19.587  0.00  0.00    +0.000 A 
ATOM      2  N   UNL     1       2.744   6.315  18.420  0.00  0.00    +0.000 NA
ATOM      3  C   UNL     1       2.792   7.568  17.975  0.00  0.00    +0.000 A 
ATOM      4  N   UNL     1       3.692   7.888  16.931  0.00  0.00    +0.000 N 
ATOM      5  C   UNL     1       2.050   8.583  18.575  0.00  0.00    +0.000 A 
ATOM      6  C   UNL     1       1.820   9.849  17.979  0.00  0.00    +0.000 A 
ATOM      7  C   UNL     1       1.225  10.868  18.705  0.00  0.00    +0.000 A 
ATOM      8  C   UNL     1       0.909  10.639  20.039  0.00  0.00    +0.000 A 
ATOM      9  C   UNL     1       1.078   9.360  20.594  0.00  0.00    +0.000 A 
ATOM     10  C   UNL     1       1.584   8.292  19.859  0.00  0.00    +0.000 A 
ATOM     11  N   UNL     1       1.638   7.048  20.383  0.00  0.00    +0.000 NA
ATOM     12  H   UNL     1       4.210   8.708  17.247  0.00  0.00    +0.000 HD
ENDROOT
BRANCH   1  16
ATOM     13  C   UNL     1       1.851   2.008  20.854  0.00  0.00    +0.000 A 
ATOM     14  C   UNL     1       1.789   2.309  19.498  0.00  0.00    +0.000 A 
ATOM     15  C   UNL     1       1.924   3.629  19.067  0.00  0.00    +0.000 A 
ATOM     16  C   UNL     1       2.101   4.668  19.987  0.00  0.00    +0.000 A 
ATOM     17  C   UNL     1       2.164   4.325  21.359  0.00  0.00    +0.000 A 
ATOM     18  C   UNL     1       2.043   3.014  21.794  0.00  0.00    +0.000 A 
ENDBRANCH   1  16
BRANCH   4  19
ATOM     19  C   UNL     1       4.634   6.798  16.625  0.00  0.00    +0.000 C 
BRANCH  19  20
ATOM     20  C   UNL     1       6.040   7.192  17.103  0.00  0.00    +0.000 C 
BRANCH  20  21
ATOM     21  N   UNL     1       7.047   6.115  17.106  0.00  0.00    +0.000 NA
ATOM     22  C   UNL     1       6.506   4.786  16.755  0.00  0.00    +0.000 C 
ATOM     23  C   UNL     1       5.574   4.190  17.823  0.00  0.00    +0.000 C 
ATOM     24  O   UNL     1       6.201   4.145  19.112  0.00  0.00    +0.000 OA
ATOM     25  C   UNL     1       6.683   5.435  19.506  0.00  0.00    +0.000 C 
ATOM     26  C   UNL     1       7.654   6.010  18.453  0.00  0.00    +0.000 C 
ENDBRANCH  20  21
ENDBRANCH  19  20
ENDBRANCH   4  19
TORSDOF 4
ENDMDL
MODEL 9
REMARK VINA RESULT:      -7.4      1.804      4.463
REMARK  Name = 
REMARK  4 active torsions:
REMARK  status: ('A' for Active; 'I' for Inactive)
REMARK    1  A    between atoms: C_4  and  C_5
REMARK    2  A    between atoms: N_8  and  C_9
REMARK    3  A    between atoms: C_9  and  C_10
REMARK    4  A    between atoms: C_10  and  N_11
REMARK                            x       y       z     vdW  Elec       q    Type
REMARK                         _______ _______ _______ _____ _____    ______ ____
ROOT
ATOM      1  C   UNL     1       1.915   6.240  19.743  0.00  0.00    +0.000 A 
ATOM      2  N   UNL     1       2.467   6.472  18.551  0.00  0.00    +0.000 NA
ATOM      3  C   UNL     1       2.540   7.732  18.130  0.00  0.00    +0.000 A 
ATOM      4  N   UNL     1       3.397   8.040  17.046  0.00  0.00    +0.000 N 
ATOM      5  C   UNL     1       1.871   8.761  18.788  0.00  0.00    +0.000 A 
ATOM      6  C   UNL     1       1.660  10.047  18.231  0.00  0.00    +0.000 A 
ATOM      7  C   UNL     1       1.144  11.072  19.008  0.00  0.00    +0.000 A 
ATOM      8  C   UNL     1       0.889  10.826  20.352  0.00  0.00    +0.000 A 
ATOM      9  C   UNL     1       1.037   9.529  20.872  0.00  0.00    +0.000 A 
ATOM     10  C   UNL     1       1.461   8.459  20.089  0.00  0.00    +0.000 A 
ATOM     11  N   UNL     1       1.494   7.203  20.584  0.00  0.00    +0.000 NA
ATOM     12  H   UNL     1       3.962   8.833  17.351  0.00  0.00    +0.000 HD
ENDROOT
BRANCH   1  16
ATOM     13  C   UNL     1       1.568   2.157  20.979  0.00  0.00    +0.000 A 
ATOM     14  C   UNL     1       1.154   2.523  19.703  0.00  0.00    +0.000 A 
ATOM     15  C   UNL     1       1.301   3.842  19.270  0.00  0.00    +0.000 A 
ATOM     16  C   UNL     1       1.842   4.816  20.117  0.00  0.00    +0.000 A 
ATOM     17  C   UNL     1       2.257   4.407  21.407  0.00  0.00    +0.000 A 
ATOM     18  C   UNL     1       2.126   3.097  21.838  0.00  0.00    +0.000 A 
ENDBRANCH   1  16
BRANCH   4  19
ATOM     19  C   UNL     1       4.278   6.922  16.669  0.00  0.00    +0.000 C 
BRANCH  19  20
ATOM     20  C   UNL     1       5.418   6.807  17.693  0.00  0.00    +0.000 C 
BRANCH  20  21
ATOM     21  N   UNL     1       5.508   5.526  18.418  0.00  0.00    +0.000 NA
ATOM     22  C   UNL     1       6.574   5.486  19.440  0.00  0.00    +0.000 C 
ATOM     23  C   UNL     1       7.996   5.484  18.856  0.00  0.00    +0.000 C 
ATOM     24  O   UNL     1       8.181   4.425  17.906  0.00  0.00    +0.000 OA
ATOM     25  C   UNL     1       7.195   4.475  16.868  0.00  0.00    +0.000 C 
ATOM     26  C   UNL     1       5.769   4.431  17.456  0.00  0.00    +0.000 C 
ENDBRANCH  20  21
ENDBRANCH  19  20
ENDBRANCH   4  19
TORSDOF 4
ENDMDL
