MODEL 1
REMARK VINA RESULT:      -8.0      0.000      0.000
REMARK  Name = 
REMARK  3 active torsions:
REMARK  status: ('A' for Active; 'I' for Inactive)
REMARK    1  A    between atoms: N_7  and  S_8
REMARK    2  A    between atoms: S_8  and  C_11
REMARK    3  A    between atoms: C_11  and  C_12
REMARK                            x       y       z     vdW  Elec       q    Type
REMARK                         _______ _______ _______ _____ _____    ______ ____
ROOT
ATOM      1  O   UNL     1       5.398   1.478  21.014  0.00  0.00    +0.000 OA
ATOM      2  C   UNL     1       4.667   2.316  20.529  0.00  0.00    +0.000 C 
ATOM      3  O   UNL     1       4.985   3.207  19.544  0.00  0.00    +0.000 OA
ATOM      4  C   UNL     1       3.869   4.061  19.171  0.00  0.00    +0.000 C 
ATOM      5  C   UNL     1       3.507   3.787  17.712  0.00  0.00    +0.000 C 
ATOM      6  C   UNL     1       4.652   4.185  16.790  0.00  0.00    +0.000 C 
ATOM      7  N   UNL     1       4.963   5.636  16.967  0.00  0.00    +0.000 NA
ATOM      8  C   UNL     1       5.386   5.913  18.382  0.00  0.00    +0.000 C 
ATOM      9  C   UNL     1       4.280   5.520  19.361  0.00  0.00    +0.000 C 
ATOM     10  C   UNL     1       2.798   3.605  20.099  0.00  0.00    +0.000 A 
ATOM     11  C   UNL     1       1.481   4.020  20.235  0.00  0.00    +0.000 A 
ATOM     12  C   UNL     1       0.667   3.361  21.166  0.00  0.00    +0.000 A 
ATOM     13  C   UNL     1       1.172   2.306  21.945  0.00  0.00    +0.000 A 
ATOM     14  C   UNL     1       2.498   1.900  21.805  0.00  0.00    +0.000 A 
ATOM     15  C   UNL     1       3.277   2.569  20.876  0.00  0.00    +0.000 A 
ENDROOT
BRANCH   7  16
ATOM     16  S   UNL     1       6.133   6.241  15.835  0.00  0.00    +0.000 S 
ATOM     17  O   UNL     1       5.391   6.651  14.658  0.00  0.00    +0.000 OA
ATOM     18  O   UNL     1       6.959   7.183  16.561  0.00  0.00    +0.000 OA
BRANCH  16  19
ATOM     19  C   UNL     1       7.076   4.763  15.425  0.00  0.00    +0.000 C 
BRANCH  19  20
ATOM     20  C   UNL     1       6.907   4.450  13.962  0.00  0.00    +0.000 A 
ATOM     21  C   UNL     1       5.934   3.546  13.515  0.00  0.00    +0.000 A 
ATOM     22  C   UNL     1       5.827   3.257  12.156  0.00  0.00    +0.000 A 
ATOM     23  F   UNL     1       4.907   2.378  11.742  0.00  0.00    +0.000 F 
ATOM     24  C   UNL     1       6.668   3.856  11.223  0.00  0.00    +0.000 A 
ATOM     25  C   UNL     1       7.631   4.767  11.655  0.00  0.00    +0.000 A 
ATOM     26  C   UNL     1       7.740   5.055  13.013  0.00  0.00    +0.000 A 
ATOM     27  F   UNL     1       8.690   5.911  13.416  0.00  0.00    +0.000 F 
ENDBRANCH  19  20
ENDBRANCH  16  19
ENDBRANCH   7  16
TORSDOF 3
ENDMDL
MODEL 2
REMARK VINA RESULT:      -7.9      5.797      7.630
REMARK  Name = 
REMARK  3 active torsions:
REMARK  status: ('A' for Active; 'I' for Inactive)
REMARK    1  A    between atoms: N_7  and  S_8
REMARK    2  A    between atoms: S_8  and  C_11
REMARK    3  A    between atoms: C_11  and  C_12
REMARK                            x       y       z     vdW  Elec       q    Type
REMARK                         _______ _______ _______ _____ _____    ______ ____
ROOT
ATOM      1  O   UNL     1      -2.305  10.955  18.060  0.00  0.00    +0.000 OA
ATOM      2  C   UNL     1      -1.151  10.958  18.436  0.00  0.00    +0.000 C 
ATOM      3  O   UNL     1      -0.379   9.867  18.717  0.00  0.00    +0.000 OA
ATOM      4  C   UNL     1       0.973  10.218  19.120  0.00  0.00    +0.000 C 
ATOM      5  C   UNL     1       1.952   9.658  18.090  0.00  0.00    +0.000 C 
ATOM      6  C   UNL     1       1.911   8.135  18.082  0.00  0.00    +0.000 C 
ATOM      7  N   UNL     1       2.254   7.613  19.439  0.00  0.00    +0.000 NA
ATOM      8  C   UNL     1       1.260   8.100  20.455  0.00  0.00    +0.000 C 
ATOM      9  C   UNL     1       1.245   9.628  20.502  0.00  0.00    +0.000 C 
ATOM     10  C   UNL     1       0.935  11.706  19.090  0.00  0.00    +0.000 A 
ATOM     11  C   UNL     1       1.922  12.643  19.361  0.00  0.00    +0.000 A 
ATOM     12  C   UNL     1       1.619  13.999  19.191  0.00  0.00    +0.000 A 
ATOM     13  C   UNL     1       0.345  14.405  18.759  0.00  0.00    +0.000 A 
ATOM     14  C   UNL     1      -0.642  13.457  18.494  0.00  0.00    +0.000 A 
ATOM     15  C   UNL     1      -0.312  12.124  18.670  0.00  0.00    +0.000 A 
ENDROOT
BRANCH   7  16
ATOM     16  S   UNL     1       2.413   5.884  19.499  0.00  0.00    +0.000 S 
ATOM     17  O   UNL     1       1.932   5.473  20.805  0.00  0.00    +0.000 OA
ATOM     18  O   UNL     1       1.808   5.373  18.288  0.00  0.00    +0.000 OA
BRANCH  16  19
ATOM     19  C   UNL     1       4.199   5.657  19.455  0.00  0.00    +0.000 C 
BRANCH  19  20
ATOM     20  C   UNL     1       4.635   5.390  18.040  0.00  0.00    +0.000 A 
ATOM     21  C   UNL     1       4.767   6.427  17.106  0.00  0.00    +0.000 A 
ATOM     22  C   UNL     1       5.142   6.136  15.796  0.00  0.00    +0.000 A 
ATOM     23  F   UNL     1       5.247   7.132  14.907  0.00  0.00    +0.000 F 
ATOM     24  C   UNL     1       5.399   4.830  15.390  0.00  0.00    +0.000 A 
ATOM     25  C   UNL     1       5.284   3.792  16.315  0.00  0.00    +0.000 A 
ATOM     26  C   UNL     1       4.906   4.080  17.624  0.00  0.00    +0.000 A 
ATOM     27  F   UNL     1       4.772   3.069  18.493  0.00  0.00    +0.000 F 
ENDBRANCH  19  20
ENDBRANCH  16  19
ENDBRANCH   7  16
TORSDOF 3
ENDMDL
MODEL 3
REMARK VINA RESULT:      -7.9      6.752      8.956
REMARK  Name = 
REMARK  3 active torsions:
REMARK  status: ('A' for Active; 'I' for Inactive)
REMARK    1  A    between atoms: N_7  and  S_8
REMARK    2  A    between atoms: S_8  and  C_11
REMARK    3  A    between atoms: C_11  and  C_12
REMARK                            x       y       z     vdW  Elec       q    Type
REMARK                         _______ _______ _______ _____ _____    ______ ____
ROOT
ATOM      1  O   UNL     1       1.134   3.799  17.343  0.00  0.00    +0.000 OA
ATOM      2  C   UNL     1       1.912   4.682  17.637  0.00  0.00    +0.000 C 
ATOM      3  O   UNL     1       1.600   5.908  18.152  0.00  0.00    +0.000 OA
ATOM      4  C   UNL     1       2.773   6.725  18.418  0.00  0.00    +0.000 C 
ATOM      5  C   UNL     1       2.854   6.994  19.920  0.00  0.00    +0.000 C 
ATOM      6  C   UNL     1       1.664   7.824  20.383  0.00  0.00    +0.000 C 
ATOM      7  N   UNL     1       1.633   9.121  19.641  0.00  0.00    +0.000 NA
ATOM      8  C   UNL     1       1.486   8.878  18.165  0.00  0.00    +0.000 C 
ATOM      9  C   UNL     1       2.648   8.035  17.641  0.00  0.00    +0.000 C 
ATOM     10  C   UNL     1       3.882   5.847  17.956  0.00  0.00    +0.000 A 
ATOM     11  C   UNL     1       5.256   6.046  17.955  0.00  0.00    +0.000 A 
ATOM     12  C   UNL     1       6.080   5.006  17.509  0.00  0.00    +0.000 A 
ATOM     13  C   UNL     1       5.531   3.788  17.070  0.00  0.00    +0.000 A 
ATOM     14  C   UNL     1       4.150   3.600  17.070  0.00  0.00    +0.000 A 
ATOM     15  C   UNL     1       3.362   4.645  17.517  0.00  0.00    +0.000 A 
ENDROOT
BRANCH   7  16
ATOM     16  S   UNL     1       0.421  10.224  20.216  0.00  0.00    +0.000 S 
ATOM     17  O   UNL     1      -0.729   9.418  20.578  0.00  0.00    +0.000 OA
ATOM     18  O   UNL     1       1.070  11.076  21.190  0.00  0.00    +0.000 OA
BRANCH  16  19
ATOM     19  C   UNL     1       0.013  11.161  18.734  0.00  0.00    +0.000 C 
BRANCH  19  20
ATOM     20  C   UNL     1      -1.481  11.192  18.556  0.00  0.00    +0.000 A 
ATOM     21  C   UNL     1      -2.291  12.050  19.312  0.00  0.00    +0.000 A 
ATOM     22  C   UNL     1      -3.674  12.028  19.141  0.00  0.00    +0.000 A 
ATOM     23  F   UNL     1      -4.439  12.838  19.882  0.00  0.00    +0.000 F 
ATOM     24  C   UNL     1      -4.275  11.170  18.225  0.00  0.00    +0.000 A 
ATOM     25  C   UNL     1      -3.477  10.322  17.457  0.00  0.00    +0.000 A 
ATOM     26  C   UNL     1      -2.095  10.341  17.628  0.00  0.00    +0.000 A 
ATOM     27  F   UNL     1      -1.345   9.499  16.905  0.00  0.00    +0.000 F 
ENDBRANCH  19  20
ENDBRANCH  16  19
ENDBRANCH   7  16
TORSDOF 3
ENDMDL
MODEL 4
REMARK VINA RESULT:      -7.7      5.679      7.371
REMARK  Name = 
REMARK  3 active torsions:
REMARK  status: ('A' for Active; 'I' for Inactive)
REMARK    1  A    between atoms: N_7  and  S_8
REMARK    2  A    between atoms: S_8  and  C_11
REMARK    3  A    between atoms: C_11  and  C_12
REMARK                            x       y       z     vdW  Elec       q    Type
REMARK                         _______ _______ _______ _____ _____    ______ ____
ROOT
ATOM      1  O   UNL     1      -2.433  10.659  18.238  0.00  0.00    +0.000 OA
ATOM      2  C   UNL     1      -1.255  10.707  18.526  0.00  0.00    +0.000 C 
ATOM      3  O   UNL     1      -0.425   9.645  18.751  0.00  0.00    +0.000 OA
ATOM      4  C   UNL     1       0.939  10.047  19.051  0.00  0.00    +0.000 C 
ATOM      5  C   UNL     1       1.859   9.517  17.952  0.00  0.00    +0.000 C 
ATOM      6  C   UNL     1       1.873   7.994  17.951  0.00  0.00    +0.000 C 
ATOM      7  N   UNL     1       2.335   7.492  19.280  0.00  0.00    +0.000 NA
ATOM      8  C   UNL     1       1.403   7.948  20.367  0.00  0.00    +0.000 C 
ATOM      9  C   UNL     1       1.335   9.475  20.411  0.00  0.00    +0.000 C 
ATOM     10  C   UNL     1       0.845  11.533  19.020  0.00  0.00    +0.000 A 
ATOM     11  C   UNL     1       1.815  12.506  19.215  0.00  0.00    +0.000 A 
ATOM     12  C   UNL     1       1.451  13.850  19.064  0.00  0.00    +0.000 A 
ATOM     13  C   UNL     1       0.134  14.207  18.727  0.00  0.00    +0.000 A 
ATOM     14  C   UNL     1      -0.835  13.222  18.539  0.00  0.00    +0.000 A 
ATOM     15  C   UNL     1      -0.444  11.903  18.694  0.00  0.00    +0.000 A 
ENDROOT
BRANCH   7  16
ATOM     16  S   UNL     1       2.561   5.770  19.333  0.00  0.00    +0.000 S 
ATOM     17  O   UNL     1       2.082   5.333  20.630  0.00  0.00    +0.000 OA
ATOM     18  O   UNL     1       1.991   5.243  18.111  0.00  0.00    +0.000 OA
BRANCH  16  19
ATOM     19  C   UNL     1       4.355   5.614  19.309  0.00  0.00    +0.000 C 
BRANCH  19  20
ATOM     20  C   UNL     1       4.822   5.421  17.892  0.00  0.00    +0.000 A 
ATOM     21  C   UNL     1       5.050   4.142  17.364  0.00  0.00    +0.000 A 
ATOM     22  C   UNL     1       5.513   4.004  16.057  0.00  0.00    +0.000 A 
ATOM     23  F   UNL     1       5.746   2.780  15.569  0.00  0.00    +0.000 F 
ATOM     24  C   UNL     1       5.750   5.115  15.253  0.00  0.00    +0.000 A 
ATOM     25  C   UNL     1       5.513   6.391  15.763  0.00  0.00    +0.000 A 
ATOM     26  C   UNL     1       5.054   6.531  17.071  0.00  0.00    +0.000 A 
ATOM     27  F   UNL     1       4.859   7.765  17.556  0.00  0.00    +0.000 F 
ENDBRANCH  19  20
ENDBRANCH  16  19
ENDBRANCH   7  16
TORSDOF 3
ENDMDL
MODEL 5
REMARK VINA RESULT:      -7.7      6.311      8.198
REMARK  Name = 
REMARK  3 active torsions:
REMARK  status: ('A' for Active; 'I' for Inactive)
REMARK    1  A    between atoms: N_7  and  S_8
REMARK    2  A    between atoms: S_8  and  C_11
REMARK    3  A    between atoms: C_11  and  C_12
REMARK                            x       y       z     vdW  Elec       q    Type
REMARK                         _______ _______ _______ _____ _____    ______ ____
ROOT
ATOM      1  O   UNL     1       5.936   5.295  19.625  0.00  0.00    +0.000 OA
ATOM      2  C   UNL     1       4.743   5.291  19.405  0.00  0.00    +0.000 C 
ATOM      3  O   UNL     1       3.850   6.275  19.723  0.00  0.00    +0.000 OA
ATOM      4  C   UNL     1       2.495   5.968  19.296  0.00  0.00    +0.000 C 
ATOM      5  C   UNL     1       2.060   7.004  18.260  0.00  0.00    +0.000 C 
ATOM      6  C   UNL     1       1.988   8.391  18.884  0.00  0.00    +0.000 C 
ATOM      7  N   UNL     1       1.022   8.383  20.024  0.00  0.00    +0.000 NA
ATOM      8  C   UNL     1       1.469   7.418  21.085  0.00  0.00    +0.000 C 
ATOM      9  C   UNL     1       1.574   6.003  20.515  0.00  0.00    +0.000 C 
ATOM     10  C   UNL     1       2.651   4.617  18.691  0.00  0.00    +0.000 A 
ATOM     11  C   UNL     1       1.722   3.782  18.088  0.00  0.00    +0.000 A 
ATOM     12  C   UNL     1       2.168   2.571  17.542  0.00  0.00    +0.000 A 
ATOM     13  C   UNL     1       3.525   2.209  17.606  0.00  0.00    +0.000 A 
ATOM     14  C   UNL     1       4.450   3.053  18.219  0.00  0.00    +0.000 A 
ATOM     15  C   UNL     1       3.979   4.242  18.747  0.00  0.00    +0.000 A 
ENDROOT
BRANCH   7  16
ATOM     16  S   UNL     1       0.725   9.957  20.696  0.00  0.00    +0.000 S 
ATOM     17  O   UNL     1      -0.587   9.900  21.312  0.00  0.00    +0.000 OA
ATOM     18  O   UNL     1       1.898  10.300  21.473  0.00  0.00    +0.000 OA
BRANCH  16  19
ATOM     19  C   UNL     1       0.618  10.993  19.228  0.00  0.00    +0.000 C 
BRANCH  19  20
ATOM     20  C   UNL     1      -0.788  10.958  18.691  0.00  0.00    +0.000 A 
ATOM     21  C   UNL     1      -1.165  10.060  17.683  0.00  0.00    +0.000 A 
ATOM     22  C   UNL     1      -2.468  10.079  17.190  0.00  0.00    +0.000 A 
ATOM     23  F   UNL     1      -2.812   9.230  16.214  0.00  0.00    +0.000 F 
ATOM     24  C   UNL     1      -3.414  10.972  17.683  0.00  0.00    +0.000 A 
ATOM     25  C   UNL     1      -3.054  11.860  18.695  0.00  0.00    +0.000 A 
ATOM     26  C   UNL     1      -1.752  11.845  19.188  0.00  0.00    +0.000 A 
ATOM     27  F   UNL     1      -1.413  12.724  20.140  0.00  0.00    +0.000 F 
ENDBRANCH  19  20
ENDBRANCH  16  19
ENDBRANCH   7  16
TORSDOF 3
ENDMDL
MODEL 6
REMARK VINA RESULT:      -7.7      6.519      8.447
REMARK  Name = 
REMARK  3 active torsions:
REMARK  status: ('A' for Active; 'I' for Inactive)
REMARK    1  A    between atoms: N_7  and  S_8
REMARK    2  A    between atoms: S_8  and  C_11
REMARK    3  A    between atoms: C_11  and  C_12
REMARK                            x       y       z     vdW  Elec       q    Type
REMARK                         _______ _______ _______ _____ _____    ______ ____
ROOT
ATOM      1  O   UNL     1       5.917   5.573  19.563  0.00  0.00    +0.000 OA
ATOM      2  C   UNL     1       4.720   5.542  19.364  0.00  0.00    +0.000 C 
ATOM      3  O   UNL     1       3.816   6.521  19.664  0.00  0.00    +0.000 OA
ATOM      4  C   UNL     1       2.459   6.177  19.271  0.00  0.00    +0.000 C 
ATOM      5  C   UNL     1       1.990   7.169  18.208  0.00  0.00    +0.000 C 
ATOM      6  C   UNL     1       1.904   8.576  18.786  0.00  0.00    +0.000 C 
ATOM      7  N   UNL     1       0.957   8.591  19.942  0.00  0.00    +0.000 NA
ATOM      8  C   UNL     1       1.439   7.670  21.028  0.00  0.00    +0.000 C 
ATOM      9  C   UNL     1       1.559   6.239  20.504  0.00  0.00    +0.000 C 
ATOM     10  C   UNL     1       2.629   4.809  18.710  0.00  0.00    +0.000 A 
ATOM     11  C   UNL     1       1.704   3.937  18.152  0.00  0.00    +0.000 A 
ATOM     12  C   UNL     1       2.163   2.717  17.640  0.00  0.00    +0.000 A 
ATOM     13  C   UNL     1       3.526   2.380  17.692  0.00  0.00    +0.000 A 
ATOM     14  C   UNL     1       4.447   3.259  18.260  0.00  0.00    +0.000 A 
ATOM     15  C   UNL     1       3.964   4.458  18.756  0.00  0.00    +0.000 A 
ENDROOT
BRANCH   7  16
ATOM     16  S   UNL     1       0.645  10.182  20.565  0.00  0.00    +0.000 S 
ATOM     17  O   UNL     1      -0.621  10.105  21.269  0.00  0.00    +0.000 OA
ATOM     18  O   UNL     1       1.852  10.601  21.246  0.00  0.00    +0.000 OA
BRANCH  16  19
ATOM     19  C   UNL     1       0.402  11.146  19.064  0.00  0.00    +0.000 C 
BRANCH  19  20
ATOM     20  C   UNL     1      -1.051  11.110  18.675  0.00  0.00    +0.000 A 
ATOM     21  C   UNL     1      -1.987  11.976  19.256  0.00  0.00    +0.000 A 
ATOM     22  C   UNL     1      -3.330  11.891  18.893  0.00  0.00    +0.000 A 
ATOM     23  F   UNL     1      -4.218  12.710  19.469  0.00  0.00    +0.000 F 
ATOM     24  C   UNL     1      -3.767  10.963  17.953  0.00  0.00    +0.000 A 
ATOM     25  C   UNL     1      -2.842  10.106  17.358  0.00  0.00    +0.000 A 
ATOM     26  C   UNL     1      -1.500  10.187  17.721  0.00  0.00    +0.000 A 
ATOM     27  F   UNL     1      -0.629   9.336  17.162  0.00  0.00    +0.000 F 
ENDBRANCH  19  20
ENDBRANCH  16  19
ENDBRANCH   7  16
TORSDOF 3
ENDMDL
MODEL 7
REMARK VINA RESULT:      -7.7      6.050      8.211
REMARK  Name = 
REMARK  3 active torsions:
REMARK  status: ('A' for Active; 'I' for Inactive)
REMARK    1  A    between atoms: N_7  and  S_8
REMARK    2  A    between atoms: S_8  and  C_11
REMARK    3  A    between atoms: C_11  and  C_12
REMARK                            x       y       z     vdW  Elec       q    Type
REMARK                         _______ _______ _______ _____ _____    ______ ____
ROOT
ATOM      1  O   UNL     1      -2.643  10.347  18.179  0.00  0.00    +0.000 OA
ATOM      2  C   UNL     1      -1.545  10.520  18.665  0.00  0.00    +0.000 C 
ATOM      3  O   UNL     1      -0.493   9.649  18.638  0.00  0.00    +0.000 OA
ATOM      4  C   UNL     1       0.693  10.174  19.294  0.00  0.00    +0.000 C 
ATOM      5  C   UNL     1       1.806  10.312  18.256  0.00  0.00    +0.000 C 
ATOM      6  C   UNL     1       2.210   8.946  17.715  0.00  0.00    +0.000 C 
ATOM      7  N   UNL     1       2.672   8.074  18.836  0.00  0.00    +0.000 NA
ATOM      8  C   UNL     1       1.567   7.872  19.834  0.00  0.00    +0.000 C 
ATOM      9  C   UNL     1       1.108   9.213  20.407  0.00  0.00    +0.000 C 
ATOM     10  C   UNL     1       0.226  11.501  19.779  0.00  0.00    +0.000 A 
ATOM     11  C   UNL     1       0.895  12.499  20.473  0.00  0.00    +0.000 A 
ATOM     12  C   UNL     1       0.213  13.691  20.750  0.00  0.00    +0.000 A 
ATOM     13  C   UNL     1      -1.119  13.872  20.339  0.00  0.00    +0.000 A 
ATOM     14  C   UNL     1      -1.784  12.861  19.647  0.00  0.00    +0.000 A 
ATOM     15  C   UNL     1      -1.084  11.696  19.387  0.00  0.00    +0.000 A 
ENDROOT
BRANCH   7  16
ATOM     16  S   UNL     1       3.326   6.553  18.311  0.00  0.00    +0.000 S 
ATOM     17  O   UNL     1       4.094   6.829  17.112  0.00  0.00    +0.000 OA
ATOM     18  O   UNL     1       3.947   5.950  19.472  0.00  0.00    +0.000 OA
BRANCH  16  19
ATOM     19  C   UNL     1       1.849   5.637  17.840  0.00  0.00    +0.000 C 
BRANCH  19  20
ATOM     20  C   UNL     1       1.863   4.287  18.506  0.00  0.00    +0.000 A 
ATOM     21  C   UNL     1       1.312   4.093  19.779  0.00  0.00    +0.000 A 
ATOM     22  C   UNL     1       1.373   2.835  20.377  0.00  0.00    +0.000 A 
ATOM     23  F   UNL     1       0.860   2.665  21.602  0.00  0.00    +0.000 F 
ATOM     24  C   UNL     1       1.967   1.756  19.729  0.00  0.00    +0.000 A 
ATOM     25  C   UNL     1       2.506   1.935  18.456  0.00  0.00    +0.000 A 
ATOM     26  C   UNL     1       2.449   3.192  17.859  0.00  0.00    +0.000 A 
ATOM     27  F   UNL     1       2.998   3.354  16.647  0.00  0.00    +0.000 F 
ENDBRANCH  19  20
ENDBRANCH  16  19
ENDBRANCH   7  16
TORSDOF 3
ENDMDL
MODEL 8
REMARK VINA RESULT:      -7.6      6.766      9.153
REMARK  Name = 
REMARK  3 active torsions:
REMARK  status: ('A' for Active; 'I' for Inactive)
REMARK    1  A    between atoms: N_7  and  S_8
REMARK    2  A    between atoms: S_8  and  C_11
REMARK    3  A    between atoms: C_11  and  C_12
REMARK                            x       y       z     vdW  Elec       q    Type
REMARK                         _______ _______ _______ _____ _____    ______ ____
ROOT
ATOM      1  O   UNL     1       5.915   5.364  19.611  0.00  0.00    +0.000 OA
ATOM      2  C   UNL     1       4.715   5.339  19.428  0.00  0.00    +0.000 C 
ATOM      3  O   UNL     1       3.858   6.401  19.478  0.00  0.00    +0.000 OA
ATOM      4  C   UNL     1       2.483   6.033  19.185  0.00  0.00    +0.000 C 
ATOM      5  C   UNL     1       2.043   6.753  17.911  0.00  0.00    +0.000 C 
ATOM      6  C   UNL     1       2.026   8.261  18.125  0.00  0.00    +0.000 C 
ATOM      7  N   UNL     1       1.095   8.603  19.243  0.00  0.00    +0.000 NA
ATOM      8  C   UNL     1       1.550   7.956  20.521  0.00  0.00    +0.000 C 
ATOM      9  C   UNL     1       1.601   6.436  20.366  0.00  0.00    +0.000 C 
ATOM     10  C   UNL     1       2.586   4.562  18.977  0.00  0.00    +0.000 A 
ATOM     11  C   UNL     1       1.618   3.623  18.652  0.00  0.00    +0.000 A 
ATOM     12  C   UNL     1       2.016   2.295  18.456  0.00  0.00    +0.000 A 
ATOM     13  C   UNL     1       3.365   1.920  18.588  0.00  0.00    +0.000 A 
ATOM     14  C   UNL     1       4.330   2.870  18.920  0.00  0.00    +0.000 A 
ATOM     15  C   UNL     1       3.905   4.174  19.106  0.00  0.00    +0.000 A 
ENDROOT
BRANCH   7  16
ATOM     16  S   UNL     1       0.860  10.310  19.456  0.00  0.00    +0.000 S 
ATOM     17  O   UNL     1       1.938  10.966  18.742  0.00  0.00    +0.000 OA
ATOM     18  O   UNL     1      -0.524  10.578  19.125  0.00  0.00    +0.000 OA
BRANCH  16  19
ATOM     19  C   UNL     1       1.136  10.523  21.222  0.00  0.00    +0.000 C 
BRANCH  19  20
ATOM     20  C   UNL     1       0.123  11.488  21.775  0.00  0.00    +0.000 A 
ATOM     21  C   UNL     1      -0.973  11.047  22.530  0.00  0.00    +0.000 A 
ATOM     22  C   UNL     1      -1.908  11.968  22.999  0.00  0.00    +0.000 A 
ATOM     23  F   UNL     1      -2.960  11.534  23.703  0.00  0.00    +0.000 F 
ATOM     24  C   UNL     1      -1.775  13.329  22.739  0.00  0.00    +0.000 A 
ATOM     25  C   UNL     1      -0.682  13.780  22.001  0.00  0.00    +0.000 A 
ATOM     26  C   UNL     1       0.253  12.861  21.529  0.00  0.00    +0.000 A 
ATOM     27  F   UNL     1       1.282  13.307  20.796  0.00  0.00    +0.000 F 
ENDBRANCH  19  20
ENDBRANCH  16  19
ENDBRANCH   7  16
TORSDOF 3
ENDMDL
MODEL 9
REMARK VINA RESULT:      -7.5      7.111      9.542
REMARK  Name = 
REMARK  3 active torsions:
REMARK  status: ('A' for Active; 'I' for Inactive)
REMARK    1  A    between atoms: N_7  and  S_8
REMARK    2  A    between atoms: S_8  and  C_11
REMARK    3  A    between atoms: C_11  and  C_12
REMARK                            x       y       z     vdW  Elec       q    Type
REMARK                         _______ _______ _______ _____ _____    ______ ____
ROOT
ATOM      1  O   UNL     1       5.872   5.337  19.534  0.00  0.00    +0.000 OA
ATOM      2  C   UNL     1       4.669   5.365  19.370  0.00  0.00    +0.000 C 
ATOM      3  O   UNL     1       3.836   6.421  19.608  0.00  0.00    +0.000 OA
ATOM      4  C   UNL     1       2.449   6.132  19.283  0.00  0.00    +0.000 C 
ATOM      5  C   UNL     1       2.007   7.058  18.151  0.00  0.00    +0.000 C 
ATOM      6  C   UNL     1       2.025   8.511  18.608  0.00  0.00    +0.000 C 
ATOM      7  N   UNL     1       1.118   8.683  19.783  0.00  0.00    +0.000 NA
ATOM      8  C   UNL     1       1.577   7.828  20.930  0.00  0.00    +0.000 C 
ATOM      9  C   UNL     1       1.593   6.353  20.529  0.00  0.00    +0.000 C 
ATOM     10  C   UNL     1       2.518   4.713  18.836  0.00  0.00    +0.000 A 
ATOM     11  C   UNL     1       1.525   3.858  18.380  0.00  0.00    +0.000 A 
ATOM     12  C   UNL     1       1.892   2.572  17.963  0.00  0.00    +0.000 A 
ATOM     13  C   UNL     1       3.234   2.155  18.008  0.00  0.00    +0.000 A 
ATOM     14  C   UNL     1       4.223   3.019  18.474  0.00  0.00    +0.000 A 
ATOM     15  C   UNL     1       3.830   4.283  18.877  0.00  0.00    +0.000 A 
ENDROOT
BRANCH   7  16
ATOM     16  S   UNL     1       0.922  10.337  20.275  0.00  0.00    +0.000 S 
ATOM     17  O   UNL     1       1.468  10.434  21.615  0.00  0.00    +0.000 OA
ATOM     18  O   UNL     1       1.445  11.151  19.197  0.00  0.00    +0.000 OA
BRANCH  16  19
ATOM     19  C   UNL     1      -0.868  10.502  20.377  0.00  0.00    +0.000 C 
BRANCH  19  20
ATOM     20  C   UNL     1      -1.213  11.784  21.086  0.00  0.00    +0.000 A 
ATOM     21  C   UNL     1      -1.320  12.998  20.393  0.00  0.00    +0.000 A 
ATOM     22  C   UNL     1      -1.610  14.170  21.089  0.00  0.00    +0.000 A 
ATOM     23  F   UNL     1      -1.691  15.327  20.420  0.00  0.00    +0.000 F 
ATOM     24  C   UNL     1      -1.805  14.163  22.467  0.00  0.00    +0.000 A 
ATOM     25  C   UNL     1      -1.715  12.959  23.164  0.00  0.00    +0.000 A 
ATOM     26  C   UNL     1      -1.422  11.787  22.471  0.00  0.00    +0.000 A 
ATOM     27  F   UNL     1      -1.309  10.643  23.159  0.00  0.00    +0.000 F 
ENDBRANCH  19  20
ENDBRANCH  16  19
ENDBRANCH   7  16
TORSDOF 3
ENDMDL
