MODEL 1
REMARK VINA RESULT:      -7.0      0.000      0.000
REMARK  Name = 
REMARK  4 active torsions:
REMARK  status: ('A' for Active; 'I' for Inactive)
REMARK    1  A    between atoms: C_2  and  C_3
REMARK    2  A    between atoms: C_2  and  C_17
REMARK    3  A    between atoms: C_3  and  N_4
REMARK    4  A    between atoms: N_7  and  C_8
REMARK                            x       y       z     vdW  Elec       q    Type
REMARK                         _______ _______ _______ _____ _____    ______ ____
ROOT
ATOM      1  N   UNL     1       6.285   5.577  16.640  0.00  0.00    +0.000 NA
ATOM      2  C   UNL     1       4.815   5.686  16.441  0.00  0.00    +0.000 C 
ATOM      3  C   UNL     1       3.971   4.556  17.081  0.00  0.00    +0.000 C 
ATOM      4  N   UNL     1       4.274   4.472  18.521  0.00  0.00    +0.000 N 
ATOM      5  C   UNL     1       5.713   4.334  18.824  0.00  0.00    +0.000 C 
ATOM      6  C   UNL     1       6.528   5.442  18.100  0.00  0.00    +0.000 C 
ENDROOT
BRANCH   4   7
ATOM      7  C   UNL     1       3.342   3.946  19.408  0.00  0.00    +0.000 A 
ATOM      8  C   UNL     1       2.004   4.371  19.452  0.00  0.00    +0.000 A 
ATOM      9  C   UNL     1       1.107   3.887  20.414  0.00  0.00    +0.000 A 
ATOM     10  C   UNL     1       1.542   2.963  21.349  0.00  0.00    +0.000 A 
ATOM     11  F   UNL     1       0.691   2.511  22.282  0.00  0.00    +0.000 F 
ATOM     12  C   UNL     1       2.850   2.510  21.337  0.00  0.00    +0.000 A 
ATOM     13  C   UNL     1       3.738   3.001  20.374  0.00  0.00    +0.000 A 
ENDBRANCH   4   7
BRANCH   1  14
ATOM     14  C   UNL     1       6.884   4.439  15.910  0.00  0.00    +0.000 C 
BRANCH  14  16
ATOM     15  O   UNL     1       7.974   5.618  14.149  0.00  0.00    +0.000 OA
ATOM     16  C   UNL     1       7.136   4.751  14.430  0.00  0.00    +0.000 C 
BRANCH  16  17
ATOM     17  C   UNL     1       6.399   4.048  13.385  0.00  0.00    +0.000 A 
ATOM     18  C   UNL     1       5.019   3.945  13.294  0.00  0.00    +0.000 A 
ATOM     19  C   UNL     1       4.590   3.205  12.155  0.00  0.00    +0.000 A 
ATOM     20  C   UNL     1       5.657   2.761  11.408  0.00  0.00    +0.000 A 
ATOM     21  S   UNL     1       7.154   3.235  12.083  0.00  0.00    +0.000 S 
ENDBRANCH  16  17
ENDBRANCH  14  16
ENDBRANCH   1  14
TORSDOF 4
ENDMDL
MODEL 2
REMARK VINA RESULT:      -6.8      0.616      1.010
REMARK  Name = 
REMARK  4 active torsions:
REMARK  status: ('A' for Active; 'I' for Inactive)
REMARK    1  A    between atoms: C_2  and  C_3
REMARK    2  A    between atoms: C_2  and  C_17
REMARK    3  A    between atoms: C_3  and  N_4
REMARK    4  A    between atoms: N_7  and  C_8
REMARK                            x       y       z     vdW  Elec       q    Type
REMARK                         _______ _______ _______ _____ _____    ______ ____
ROOT
ATOM      1  N   UNL     1       6.505   5.722  16.316  0.00  0.00    +0.000 NA
ATOM      2  C   UNL     1       5.025   5.799  16.184  0.00  0.00    +0.000 C 
ATOM      3  C   UNL     1       4.234   4.683  16.909  0.00  0.00    +0.000 C 
ATOM      4  N   UNL     1       4.607   4.663  18.335  0.00  0.00    +0.000 N 
ATOM      5  C   UNL     1       6.061   4.560  18.572  0.00  0.00    +0.000 C 
ATOM      6  C   UNL     1       6.820   5.650  17.766  0.00  0.00    +0.000 C 
ENDROOT
BRANCH   4   7
ATOM      7  C   UNL     1       3.728   4.158  19.287  0.00  0.00    +0.000 A 
ATOM      8  C   UNL     1       3.477   2.784  19.442  0.00  0.00    +0.000 A 
ATOM      9  C   UNL     1       2.521   2.307  20.350  0.00  0.00    +0.000 A 
ATOM     10  C   UNL     1       1.801   3.206  21.118  0.00  0.00    +0.000 A 
ATOM     11  F   UNL     1       0.874   2.754  21.974  0.00  0.00    +0.000 F 
ATOM     12  C   UNL     1       2.023   4.567  21.003  0.00  0.00    +0.000 A 
ATOM     13  C   UNL     1       2.978   5.034  20.093  0.00  0.00    +0.000 A 
ENDBRANCH   4   7
BRANCH   1  14
ATOM     14  C   UNL     1       7.089   4.564  15.604  0.00  0.00    +0.000 C 
BRANCH  14  16
ATOM     15  O   UNL     1       7.997   5.670  13.697  0.00  0.00    +0.000 OA
ATOM     16  C   UNL     1       7.211   4.799  14.093  0.00  0.00    +0.000 C 
BRANCH  16  17
ATOM     17  C   UNL     1       6.414   4.019  13.151  0.00  0.00    +0.000 A 
ATOM     18  C   UNL     1       5.031   4.027  13.056  0.00  0.00    +0.000 A 
ATOM     19  C   UNL     1       4.539   3.170  12.032  0.00  0.00    +0.000 A 
ATOM     20  C   UNL     1       5.562   2.527  11.373  0.00  0.00    +0.000 A 
ATOM     21  S   UNL     1       7.094   2.958  11.994  0.00  0.00    +0.000 S 
ENDBRANCH  16  17
ENDBRANCH  14  16
ENDBRANCH   1  14
TORSDOF 4
ENDMDL
MODEL 3
REMARK VINA RESULT:      -6.8      4.176      7.628
REMARK  Name = 
REMARK  4 active torsions:
REMARK  status: ('A' for Active; 'I' for Inactive)
REMARK    1  A    between atoms: C_2  and  C_3
REMARK    2  A    between atoms: C_2  and  C_17
REMARK    3  A    between atoms: C_3  and  N_4
REMARK    4  A    between atoms: N_7  and  C_8
REMARK                            x       y       z     vdW  Elec       q    Type
REMARK                         _______ _______ _______ _____ _____    ______ ____
ROOT
ATOM      1  N   UNL     1       4.547   5.940  18.387  0.00  0.00    +0.000 NA
ATOM      2  C   UNL     1       4.882   4.532  18.046  0.00  0.00    +0.000 C 
ATOM      3  C   UNL     1       4.726   4.154  16.553  0.00  0.00    +0.000 C 
ATOM      4  N   UNL     1       5.530   5.073  15.727  0.00  0.00    +0.000 N 
ATOM      5  C   UNL     1       5.250   6.502  15.973  0.00  0.00    +0.000 C 
ATOM      6  C   UNL     1       5.343   6.818  17.492  0.00  0.00    +0.000 C 
ENDROOT
BRANCH   4   7
ATOM      7  C   UNL     1       5.986   4.678  14.474  0.00  0.00    +0.000 A 
ATOM      8  C   UNL     1       5.307   3.745  13.673  0.00  0.00    +0.000 A 
ATOM      9  C   UNL     1       5.833   3.299  12.453  0.00  0.00    +0.000 A 
ATOM     10  C   UNL     1       7.053   3.786  12.016  0.00  0.00    +0.000 A 
ATOM     11  F   UNL     1       7.568   3.349  10.859  0.00  0.00    +0.000 F 
ATOM     12  C   UNL     1       7.752   4.714  12.770  0.00  0.00    +0.000 A 
ATOM     13  C   UNL     1       7.219   5.152  13.988  0.00  0.00    +0.000 A 
ENDBRANCH   4   7
BRANCH   1  14
ATOM     14  C   UNL     1       3.104   6.239  18.253  0.00  0.00    +0.000 C 
BRANCH  14  16
ATOM     15  O   UNL     1       2.003   7.073  20.195  0.00  0.00    +0.000 OA
ATOM     16  C   UNL     1       2.337   6.059  19.569  0.00  0.00    +0.000 C 
BRANCH  16  17
ATOM     17  C   UNL     1       2.019   4.725  20.069  0.00  0.00    +0.000 A 
ATOM     18  C   UNL     1       2.208   4.279  21.368  0.00  0.00    +0.000 A 
ATOM     19  C   UNL     1       1.791   2.931  21.559  0.00  0.00    +0.000 A 
ATOM     20  C   UNL     1       1.297   2.383  20.397  0.00  0.00    +0.000 A 
ATOM     21  S   UNL     1       1.342   3.491  19.097  0.00  0.00    +0.000 S 
ENDBRANCH  16  17
ENDBRANCH  14  16
ENDBRANCH   1  14
TORSDOF 4
ENDMDL
MODEL 4
REMARK VINA RESULT:      -6.7      4.150      7.612
REMARK  Name = 
REMARK  4 active torsions:
REMARK  status: ('A' for Active; 'I' for Inactive)
REMARK    1  A    between atoms: C_2  and  C_3
REMARK    2  A    between atoms: C_2  and  C_17
REMARK    3  A    between atoms: C_3  and  N_4
REMARK    4  A    between atoms: N_7  and  C_8
REMARK                            x       y       z     vdW  Elec       q    Type
REMARK                         _______ _______ _______ _____ _____    ______ ____
ROOT
ATOM      1  N   UNL     1       4.548   6.092  18.376  0.00  0.00    +0.000 NA
ATOM      2  C   UNL     1       5.036   4.706  18.144  0.00  0.00    +0.000 C 
ATOM      3  C   UNL     1       4.941   4.204  16.682  0.00  0.00    +0.000 C 
ATOM      4  N   UNL     1       5.654   5.139  15.794  0.00  0.00    +0.000 N 
ATOM      5  C   UNL     1       5.219   6.544  15.930  0.00  0.00    +0.000 C 
ATOM      6  C   UNL     1       5.258   6.981  17.421  0.00  0.00    +0.000 C 
ENDROOT
BRANCH   4   7
ATOM      7  C   UNL     1       6.166   4.703  14.577  0.00  0.00    +0.000 A 
ATOM      8  C   UNL     1       7.340   5.226  14.011  0.00  0.00    +0.000 A 
ATOM      9  C   UNL     1       7.787   4.832  12.742  0.00  0.00    +0.000 A 
ATOM     10  C   UNL     1       7.058   3.902  12.020  0.00  0.00    +0.000 A 
ATOM     11  F   UNL     1       7.472   3.536  10.799  0.00  0.00    +0.000 F 
ATOM     12  C   UNL     1       5.899   3.355  12.544  0.00  0.00    +0.000 A 
ATOM     13  C   UNL     1       5.461   3.756  13.810  0.00  0.00    +0.000 A 
ENDBRANCH   4   7
BRANCH   1  14
ATOM     14  C   UNL     1       3.084   6.224  18.211  0.00  0.00    +0.000 C 
BRANCH  14  16
ATOM     15  O   UNL     1       2.014   6.979  20.203  0.00  0.00    +0.000 OA
ATOM     16  C   UNL     1       2.318   5.993  19.520  0.00  0.00    +0.000 C 
BRANCH  16  17
ATOM     17  C   UNL     1       1.966   4.642  19.948  0.00  0.00    +0.000 A 
ATOM     18  C   UNL     1       1.978   4.176  21.254  0.00  0.00    +0.000 A 
ATOM     19  C   UNL     1       1.574   2.815  21.362  0.00  0.00    +0.000 A 
ATOM     20  C   UNL     1       1.266   2.278  20.133  0.00  0.00    +0.000 A 
ATOM     21  S   UNL     1       1.469   3.411  18.870  0.00  0.00    +0.000 S 
ENDBRANCH  16  17
ENDBRANCH  14  16
ENDBRANCH   1  14
TORSDOF 4
ENDMDL
MODEL 5
REMARK VINA RESULT:      -6.7      1.116      1.629
REMARK  Name = 
REMARK  4 active torsions:
REMARK  status: ('A' for Active; 'I' for Inactive)
REMARK    1  A    between atoms: C_2  and  C_3
REMARK    2  A    between atoms: C_2  and  C_17
REMARK    3  A    between atoms: C_3  and  N_4
REMARK    4  A    between atoms: N_7  and  C_8
REMARK                            x       y       z     vdW  Elec       q    Type
REMARK                         _______ _______ _______ _____ _____    ______ ____
ROOT
ATOM      1  N   UNL     1       6.662   5.836  15.788  0.00  0.00    +0.000 NA
ATOM      2  C   UNL     1       5.175   5.847  15.754  0.00  0.00    +0.000 C 
ATOM      3  C   UNL     1       4.482   4.765  16.618  0.00  0.00    +0.000 C 
ATOM      4  N   UNL     1       4.950   4.875  18.011  0.00  0.00    +0.000 N 
ATOM      5  C   UNL     1       6.420   4.846  18.154  0.00  0.00    +0.000 C 
ATOM      6  C   UNL     1       7.076   5.895  17.214  0.00  0.00    +0.000 C 
ENDROOT
BRANCH   4   7
ATOM      7  C   UNL     1       4.159   4.416  19.058  0.00  0.00    +0.000 A 
ATOM      8  C   UNL     1       4.171   3.082  19.498  0.00  0.00    +0.000 A 
ATOM      9  C   UNL     1       3.300   2.627  20.497  0.00  0.00    +0.000 A 
ATOM     10  C   UNL     1       2.401   3.508  21.073  0.00  0.00    +0.000 A 
ATOM     11  F   UNL     1       1.554   3.072  22.016  0.00  0.00    +0.000 F 
ATOM     12  C   UNL     1       2.361   4.833  20.676  0.00  0.00    +0.000 A 
ATOM     13  C   UNL     1       3.233   5.278  19.676  0.00  0.00    +0.000 A 
ENDBRANCH   4   7
BRANCH   1  14
ATOM     14  C   UNL     1       7.247   4.647  15.130  0.00  0.00    +0.000 C 
BRANCH  14  16
ATOM     15  O   UNL     1       7.948   5.740  13.131  0.00  0.00    +0.000 OA
ATOM     16  C   UNL     1       7.313   4.788  13.604  0.00  0.00    +0.000 C 
BRANCH  16  17
ATOM     17  C   UNL     1       6.638   3.827  12.737  0.00  0.00    +0.000 A 
ATOM     18  C   UNL     1       7.259   2.910  11.903  0.00  0.00    +0.000 A 
ATOM     19  C   UNL     1       6.337   2.096  11.187  0.00  0.00    +0.000 A 
ATOM     20  C   UNL     1       5.034   2.416  11.493  0.00  0.00    +0.000 A 
ATOM     21  S   UNL     1       4.936   3.687  12.630  0.00  0.00    +0.000 S 
ENDBRANCH  16  17
ENDBRANCH  14  16
ENDBRANCH   1  14
TORSDOF 4
ENDMDL
MODEL 6
REMARK VINA RESULT:      -6.7      1.035      1.254
REMARK  Name = 
REMARK  4 active torsions:
REMARK  status: ('A' for Active; 'I' for Inactive)
REMARK    1  A    between atoms: C_2  and  C_3
REMARK    2  A    between atoms: C_2  and  C_17
REMARK    3  A    between atoms: C_3  and  N_4
REMARK    4  A    between atoms: N_7  and  C_8
REMARK                            x       y       z     vdW  Elec       q    Type
REMARK                         _______ _______ _______ _____ _____    ______ ____
ROOT
ATOM      1  N   UNL     1       6.061   5.731  16.204  0.00  0.00    +0.000 NA
ATOM      2  C   UNL     1       5.092   6.570  16.958  0.00  0.00    +0.000 C 
ATOM      3  C   UNL     1       3.813   5.840  17.438  0.00  0.00    +0.000 C 
ATOM      4  N   UNL     1       4.191   4.666  18.246  0.00  0.00    +0.000 N 
ATOM      5  C   UNL     1       5.135   3.753  17.571  0.00  0.00    +0.000 C 
ATOM      6  C   UNL     1       6.365   4.540  17.039  0.00  0.00    +0.000 C 
ENDROOT
BRANCH   4   7
ATOM      7  C   UNL     1       3.317   4.154  19.197  0.00  0.00    +0.000 A 
ATOM      8  C   UNL     1       2.080   4.749  19.496  0.00  0.00    +0.000 A 
ATOM      9  C   UNL     1       1.256   4.263  20.521  0.00  0.00    +0.000 A 
ATOM     10  C   UNL     1       1.663   3.167  21.263  0.00  0.00    +0.000 A 
ATOM     11  F   UNL     1       0.886   2.711  22.255  0.00  0.00    +0.000 F 
ATOM     12  C   UNL     1       2.870   2.545  20.996  0.00  0.00    +0.000 A 
ATOM     13  C   UNL     1       3.687   3.039  19.972  0.00  0.00    +0.000 A 
ENDBRANCH   4   7
BRANCH   1  14
ATOM     14  C   UNL     1       5.556   5.314  14.878  0.00  0.00    +0.000 C 
BRANCH  14  16
ATOM     15  O   UNL     1       7.783   5.430  14.035  0.00  0.00    +0.000 OA
ATOM     16  C   UNL     1       6.678   4.882  13.926  0.00  0.00    +0.000 C 
BRANCH  16  17
ATOM     17  C   UNL     1       6.443   3.856  12.914  0.00  0.00    +0.000 A 
ATOM     18  C   UNL     1       7.414   3.249  12.132  0.00  0.00    +0.000 A 
ATOM     19  C   UNL     1       6.881   2.275  11.241  0.00  0.00    +0.000 A 
ATOM     20  C   UNL     1       5.514   2.167  11.365  0.00  0.00    +0.000 A 
ATOM     21  S   UNL     1       4.892   3.235  12.545  0.00  0.00    +0.000 S 
ENDBRANCH  16  17
ENDBRANCH  14  16
ENDBRANCH   1  14
TORSDOF 4
ENDMDL
MODEL 7
REMARK VINA RESULT:      -6.5      4.233      7.630
REMARK  Name = 
REMARK  4 active torsions:
REMARK  status: ('A' for Active; 'I' for Inactive)
REMARK    1  A    between atoms: C_2  and  C_3
REMARK    2  A    between atoms: C_2  and  C_17
REMARK    3  A    between atoms: C_3  and  N_4
REMARK    4  A    between atoms: N_7  and  C_8
REMARK                            x       y       z     vdW  Elec       q    Type
REMARK                         _______ _______ _______ _____ _____    ______ ____
ROOT
ATOM      1  N   UNL     1       4.123   5.788  18.323  0.00  0.00    +0.000 NA
ATOM      2  C   UNL     1       4.577   4.406  18.010  0.00  0.00    +0.000 C 
ATOM      3  C   UNL     1       4.607   4.041  16.505  0.00  0.00    +0.000 C 
ATOM      4  N   UNL     1       5.441   5.016  15.780  0.00  0.00    +0.000 N 
ATOM      5  C   UNL     1       5.051   6.423  16.005  0.00  0.00    +0.000 C 
ATOM      6  C   UNL     1       4.959   6.723  17.527  0.00  0.00    +0.000 C 
ENDROOT
BRANCH   4   7
ATOM      7  C   UNL     1       6.053   4.667  14.582  0.00  0.00    +0.000 A 
ATOM      8  C   UNL     1       7.253   5.248  14.139  0.00  0.00    +0.000 A 
ATOM      9  C   UNL     1       7.803   4.942  12.886  0.00  0.00    +0.000 A 
ATOM     10  C   UNL     1       7.155   4.042  12.057  0.00  0.00    +0.000 A 
ATOM     11  F   UNL     1       7.668   3.760  10.852  0.00  0.00    +0.000 F 
ATOM     12  C   UNL     1       5.975   3.439  12.458  0.00  0.00    +0.000 A 
ATOM     13  C   UNL     1       5.432   3.753  13.709  0.00  0.00    +0.000 A 
ENDBRANCH   4   7
BRANCH   1  14
ATOM     14  C   UNL     1       2.689   6.004  18.033  0.00  0.00    +0.000 C 
BRANCH  14  16
ATOM     15  O   UNL     1       1.188   4.325  17.253  0.00  0.00    +0.000 OA
ATOM     16  C   UNL     1       1.849   4.734  18.217  0.00  0.00    +0.000 C 
BRANCH  16  17
ATOM     17  C   UNL     1       1.827   4.034  19.498  0.00  0.00    +0.000 A 
ATOM     18  C   UNL     1       1.550   2.688  19.683  0.00  0.00    +0.000 A 
ATOM     19  C   UNL     1       1.616   2.290  21.048  0.00  0.00    +0.000 A 
ATOM     20  C   UNL     1       1.939   3.346  21.870  0.00  0.00    +0.000 A 
ATOM     21  S   UNL     1       2.155   4.796  20.994  0.00  0.00    +0.000 S 
ENDBRANCH  16  17
ENDBRANCH  14  16
ENDBRANCH   1  14
TORSDOF 4
ENDMDL
MODEL 8
REMARK VINA RESULT:      -6.4      4.975      6.090
REMARK  Name = 
REMARK  4 active torsions:
REMARK  status: ('A' for Active; 'I' for Inactive)
REMARK    1  A    between atoms: C_2  and  C_3
REMARK    2  A    between atoms: C_2  and  C_17
REMARK    3  A    between atoms: C_3  and  N_4
REMARK    4  A    between atoms: N_7  and  C_8
REMARK                            x       y       z     vdW  Elec       q    Type
REMARK                         _______ _______ _______ _____ _____    ______ ____
ROOT
ATOM      1  N   UNL     1       2.797   5.377  19.140  0.00  0.00    +0.000 NA
ATOM      2  C   UNL     1       1.905   5.737  20.275  0.00  0.00    +0.000 C 
ATOM      3  C   UNL     1       1.945   7.223  20.708  0.00  0.00    +0.000 C 
ATOM      4  N   UNL     1       1.646   8.081  19.546  0.00  0.00    +0.000 N 
ATOM      5  C   UNL     1       2.501   7.818  18.371  0.00  0.00    +0.000 C 
ATOM      6  C   UNL     1       2.490   6.304  18.021  0.00  0.00    +0.000 C 
ENDROOT
BRANCH   4   7
ATOM      7  C   UNL     1       1.116   9.353  19.728  0.00  0.00    +0.000 A 
ATOM      8  C   UNL     1       0.965  10.275  18.679  0.00  0.00    +0.000 A 
ATOM      9  C   UNL     1       0.510  11.581  18.904  0.00  0.00    +0.000 A 
ATOM     10  C   UNL     1       0.198  11.983  20.192  0.00  0.00    +0.000 A 
ATOM     11  F   UNL     1      -0.220  13.237  20.413  0.00  0.00    +0.000 F 
ATOM     12  C   UNL     1       0.325  11.105  21.254  0.00  0.00    +0.000 A 
ATOM     13  C   UNL     1       0.782   9.803  21.019  0.00  0.00    +0.000 A 
ENDBRANCH   4   7
BRANCH   1  14
ATOM     14  C   UNL     1       4.233   5.448  19.489  0.00  0.00    +0.000 C 
BRANCH  14  16
ATOM     15  O   UNL     1       5.212   3.280  19.630  0.00  0.00    +0.000 OA
ATOM     16  C   UNL     1       5.040   4.276  18.917  0.00  0.00    +0.000 C 
BRANCH  16  17
ATOM     17  C   UNL     1       5.596   4.343  17.568  0.00  0.00    +0.000 A 
ATOM     18  C   UNL     1       4.924   4.027  16.397  0.00  0.00    +0.000 A 
ATOM     19  C   UNL     1       5.724   4.202  15.233  0.00  0.00    +0.000 A 
ATOM     20  C   UNL     1       6.989   4.644  15.548  0.00  0.00    +0.000 A 
ATOM     21  S   UNL     1       7.198   4.840  17.232  0.00  0.00    +0.000 S 
ENDBRANCH  16  17
ENDBRANCH  14  16
ENDBRANCH   1  14
TORSDOF 4
ENDMDL
MODEL 9
REMARK VINA RESULT:      -6.3      4.181      7.468
REMARK  Name = 
REMARK  4 active torsions:
REMARK  status: ('A' for Active; 'I' for Inactive)
REMARK    1  A    between atoms: C_2  and  C_3
REMARK    2  A    between atoms: C_2  and  C_17
REMARK    3  A    between atoms: C_3  and  N_4
REMARK    4  A    between atoms: N_7  and  C_8
REMARK                            x       y       z     vdW  Elec       q    Type
REMARK                         _______ _______ _______ _____ _____    ______ ____
ROOT
ATOM      1  N   UNL     1       5.170   4.593  18.950  0.00  0.00    +0.000 NA
ATOM      2  C   UNL     1       4.608   3.662  17.935  0.00  0.00    +0.000 C 
ATOM      3  C   UNL     1       4.672   4.159  16.470  0.00  0.00    +0.000 C 
ATOM      4  N   UNL     1       6.065   4.492  16.124  0.00  0.00    +0.000 N 
ATOM      5  C   UNL     1       6.707   5.436  17.061  0.00  0.00    +0.000 C 
ATOM      6  C   UNL     1       6.552   4.935  18.524  0.00  0.00    +0.000 C 
ENDROOT
BRANCH   4   7
ATOM      7  C   UNL     1       6.490   4.458  14.801  0.00  0.00    +0.000 A 
ATOM      8  C   UNL     1       7.514   5.283  14.306  0.00  0.00    +0.000 A 
ATOM      9  C   UNL     1       7.863   5.291  12.948  0.00  0.00    +0.000 A 
ATOM     10  C   UNL     1       7.188   4.467  12.064  0.00  0.00    +0.000 A 
ATOM     11  F   UNL     1       7.507   4.485  10.762  0.00  0.00    +0.000 F 
ATOM     12  C   UNL     1       6.179   3.632  12.511  0.00  0.00    +0.000 A 
ATOM     13  C   UNL     1       5.836   3.632  13.868  0.00  0.00    +0.000 A 
ENDBRANCH   4   7
BRANCH   1  14
ATOM     14  C   UNL     1       4.363   5.821  19.118  0.00  0.00    +0.000 C 
BRANCH  14  16
ATOM     15  O   UNL     1       2.286   6.322  18.063  0.00  0.00    +0.000 OA
ATOM     16  C   UNL     1       2.868   5.586  18.870  0.00  0.00    +0.000 C 
BRANCH  16  17
ATOM     17  C   UNL     1       2.154   4.526  19.575  0.00  0.00    +0.000 A 
ATOM     18  C   UNL     1       1.244   3.646  19.010  0.00  0.00    +0.000 A 
ATOM     19  C   UNL     1       0.718   2.712  19.948  0.00  0.00    +0.000 A 
ATOM     20  C   UNL     1       1.240   2.907  21.206  0.00  0.00    +0.000 A 
ATOM     21  S   UNL     1       2.350   4.207  21.244  0.00  0.00    +0.000 S 
ENDBRANCH  16  17
ENDBRANCH  14  16
ENDBRANCH   1  14
TORSDOF 4
ENDMDL
