MODEL 1
REMARK VINA RESULT:      -7.6      0.000      0.000
REMARK  Name = 
REMARK  8 active torsions:
REMARK  status: ('A' for Active; 'I' for Inactive)
REMARK    1  A    between atoms: C_1  and  C_2
REMARK    2  A    between atoms: C_5  and  C_6
REMARK    3  A    between atoms: C_6  and  N_7
REMARK    4  A    between atoms: N_7  and  C_8
REMARK    5  A    between atoms: C_13  and  C_14
REMARK    6  A    between atoms: C_17  and  N_18
REMARK    7  A    between atoms: N_18  and  C_19
REMARK    8  A    between atoms: N_18  and  C_20
REMARK                            x       y       z     vdW  Elec       q    Type
REMARK                         _______ _______ _______ _____ _____    ______ ____
ROOT
ATOM      1  C   UNL     1       3.582   4.942  19.674  0.00  0.00    +0.000 A 
ATOM      2  N   UNL     1       3.814   3.640  19.951  0.00  0.00    +0.000 NA
ATOM      3  C   UNL     1       2.793   2.922  20.430  0.00  0.00    +0.000 A 
ATOM      4  N   UNL     1       1.576   3.385  20.709  0.00  0.00    +0.000 NA
ATOM      5  C   UNL     1       1.387   4.694  20.444  0.00  0.00    +0.000 A 
ATOM      6  C   UNL     1       2.335   5.553  19.887  0.00  0.00    +0.000 A 
ENDROOT
BRANCH   6   7
ATOM      7  C   UNL     1       1.999   6.971  19.603  0.00  0.00    +0.000 A 
ATOM      8  C   UNL     1       1.500   7.840  20.580  0.00  0.00    +0.000 A 
ATOM      9  C   UNL     1       1.217   9.188  20.305  0.00  0.00    +0.000 A 
ATOM     10  C   UNL     1       1.384   9.743  19.031  0.00  0.00    +0.000 A 
ATOM     11  C   UNL     1       1.845   8.865  18.043  0.00  0.00    +0.000 A 
ATOM     12  C   UNL     1       2.152   7.520  18.319  0.00  0.00    +0.000 A 
BRANCH  10  13
ATOM     13  N   UNL     1       1.090  11.069  18.772  0.00  0.00    +0.000 N 
ATOM     14  C   UNL     1       2.126  12.015  18.374  0.00  0.00    +0.000 C 
ATOM     15  C   UNL     1      -0.277  11.571  18.724  0.00  0.00    +0.000 C 
ENDBRANCH  10  13
ENDBRANCH   6   7
BRANCH   1  16
ATOM     16  N   UNL     1       4.638   5.676  19.099  0.00  0.00    +0.000 N 
ATOM     17  H   UNL     1       4.300   6.104  18.238  0.00  0.00    +0.000 HD
BRANCH  16  18
ATOM     18  C   UNL     1       5.876   4.932  18.885  0.00  0.00    +0.000 C 
BRANCH  18  23
ATOM     19  C   UNL     1       7.148   4.699  13.318  0.00  0.00    +0.000 C 
ATOM     20  C   UNL     1       6.799   4.780  14.772  0.00  0.00    +0.000 A 
ATOM     21  C   UNL     1       5.810   3.973  15.324  0.00  0.00    +0.000 A 
ATOM     22  N   UNL     1       5.479   3.998  16.636  0.00  0.00    +0.000 NA
ATOM     23  C   UNL     1       6.193   4.865  17.408  0.00  0.00    +0.000 A 
ATOM     24  C   UNL     1       7.166   5.689  16.849  0.00  0.00    +0.000 A 
ATOM     25  N   UNL     1       7.494   5.660  15.532  0.00  0.00    +0.000 NA
ENDBRANCH  18  23
ENDBRANCH  16  18
ENDBRANCH   1  16
TORSDOF 5
ENDMDL
MODEL 2
REMARK VINA RESULT:      -7.6      1.036      1.744
REMARK  Name = 
REMARK  8 active torsions:
REMARK  status: ('A' for Active; 'I' for Inactive)
REMARK    1  A    between atoms: C_1  and  C_2
REMARK    2  A    between atoms: C_5  and  C_6
REMARK    3  A    between atoms: C_6  and  N_7
REMARK    4  A    between atoms: N_7  and  C_8
REMARK    5  A    between atoms: C_13  and  C_14
REMARK    6  A    between atoms: C_17  and  N_18
REMARK    7  A    between atoms: N_18  and  C_19
REMARK    8  A    between atoms: N_18  and  C_20
REMARK                            x       y       z     vdW  Elec       q    Type
REMARK                         _______ _______ _______ _____ _____    ______ ____
ROOT
ATOM      1  C   UNL     1       4.621   4.824  19.152  0.00  0.00    +0.000 A 
ATOM      2  N   UNL     1       5.119   3.589  19.384  0.00  0.00    +0.000 NA
ATOM      3  C   UNL     1       4.325   2.714  20.009  0.00  0.00    +0.000 A 
ATOM      4  N   UNL     1       3.102   2.962  20.473  0.00  0.00    +0.000 NA
ATOM      5  C   UNL     1       2.646   4.211  20.247  0.00  0.00    +0.000 A 
ATOM      6  C   UNL     1       3.333   5.211  19.556  0.00  0.00    +0.000 A 
ENDROOT
BRANCH   6   7
ATOM      7  C   UNL     1       2.712   6.542  19.333  0.00  0.00    +0.000 A 
ATOM      8  C   UNL     1       2.772   7.206  18.103  0.00  0.00    +0.000 A 
ATOM      9  C   UNL     1       2.152   8.450  17.897  0.00  0.00    +0.000 A 
ATOM     10  C   UNL     1       1.463   9.121  18.914  0.00  0.00    +0.000 A 
ATOM     11  C   UNL     1       1.437   8.475  20.155  0.00  0.00    +0.000 A 
ATOM     12  C   UNL     1       2.035   7.219  20.361  0.00  0.00    +0.000 A 
BRANCH  10  13
ATOM     13  N   UNL     1       0.868  10.350  18.699  0.00  0.00    +0.000 N 
ATOM     14  C   UNL     1       1.662  11.565  18.551  0.00  0.00    +0.000 C 
ATOM     15  C   UNL     1      -0.560  10.494  18.451  0.00  0.00    +0.000 C 
ENDBRANCH  10  13
ENDBRANCH   6   7
BRANCH   1  16
ATOM     16  N   UNL     1       5.431   5.719  18.426  0.00  0.00    +0.000 N 
ATOM     17  H   UNL     1       4.886   6.087  17.648  0.00  0.00    +0.000 HD
BRANCH  16  18
ATOM     18  C   UNL     1       6.715   5.183  17.981  0.00  0.00    +0.000 C 
BRANCH  18  23
ATOM     19  C   UNL     1       6.392   3.806  12.443  0.00  0.00    +0.000 C 
ATOM     20  C   UNL     1       6.495   4.149  13.897  0.00  0.00    +0.000 A 
ATOM     21  C   UNL     1       7.291   5.201  14.338  0.00  0.00    +0.000 A 
ATOM     22  N   UNL     1       7.395   5.559  15.639  0.00  0.00    +0.000 NA
ATOM     23  C   UNL     1       6.648   4.826  16.513  0.00  0.00    +0.000 A 
ATOM     24  C   UNL     1       5.871   3.758  16.073  0.00  0.00    +0.000 A 
ATOM     25  N   UNL     1       5.771   3.404  14.767  0.00  0.00    +0.000 NA
ENDBRANCH  18  23
ENDBRANCH  16  18
ENDBRANCH   1  16
TORSDOF 5
ENDMDL
MODEL 3
REMARK VINA RESULT:      -7.5      1.735      5.109
REMARK  Name = 
REMARK  8 active torsions:
REMARK  status: ('A' for Active; 'I' for Inactive)
REMARK    1  A    between atoms: C_1  and  C_2
REMARK    2  A    between atoms: C_5  and  C_6
REMARK    3  A    between atoms: C_6  and  N_7
REMARK    4  A    between atoms: N_7  and  C_8
REMARK    5  A    between atoms: C_13  and  C_14
REMARK    6  A    between atoms: C_17  and  N_18
REMARK    7  A    between atoms: N_18  and  C_19
REMARK    8  A    between atoms: N_18  and  C_20
REMARK                            x       y       z     vdW  Elec       q    Type
REMARK                         _______ _______ _______ _____ _____    ______ ____
ROOT
ATOM      1  C   UNL     1       4.908   4.725  16.470  0.00  0.00    +0.000 A 
ATOM      2  N   UNL     1       5.928   4.128  15.814  0.00  0.00    +0.000 NA
ATOM      3  C   UNL     1       7.100   4.770  15.787  0.00  0.00    +0.000 A 
ATOM      4  N   UNL     1       7.345   5.972  16.305  0.00  0.00    +0.000 NA
ATOM      5  C   UNL     1       6.299   6.549  16.930  0.00  0.00    +0.000 A 
ATOM      6  C   UNL     1       5.036   5.978  17.093  0.00  0.00    +0.000 A 
ENDROOT
BRANCH   6   7
ATOM      7  C   UNL     1       3.970   6.694  17.837  0.00  0.00    +0.000 A 
ATOM      8  C   UNL     1       3.428   6.210  19.033  0.00  0.00    +0.000 A 
ATOM      9  C   UNL     1       2.442   6.915  19.744  0.00  0.00    +0.000 A 
ATOM     10  C   UNL     1       1.915   8.128  19.289  0.00  0.00    +0.000 A 
ATOM     11  C   UNL     1       2.428   8.594  18.073  0.00  0.00    +0.000 A 
ATOM     12  C   UNL     1       3.431   7.904  17.369  0.00  0.00    +0.000 A 
BRANCH  10  13
ATOM     13  N   UNL     1       0.936   8.805  19.993  0.00  0.00    +0.000 N 
ATOM     14  C   UNL     1       0.623   8.468  21.378  0.00  0.00    +0.000 C 
ATOM     15  C   UNL     1       0.271   9.989  19.465  0.00  0.00    +0.000 C 
ENDBRANCH  10  13
ENDBRANCH   6   7
BRANCH   1  16
ATOM     16  N   UNL     1       3.697   4.012  16.562  0.00  0.00    +0.000 N 
ATOM     17  H   UNL     1       3.019   4.592  17.055  0.00  0.00    +0.000 HD
BRANCH  16  18
ATOM     18  C   UNL     1       3.797   2.679  17.150  0.00  0.00    +0.000 C 
BRANCH  18  23
ATOM     19  C   UNL     1       1.209   2.596  22.245  0.00  0.00    +0.000 C 
ATOM     20  C   UNL     1       1.888   2.592  20.911  0.00  0.00    +0.000 A 
ATOM     21  C   UNL     1       1.159   2.641  19.728  0.00  0.00    +0.000 A 
ATOM     22  N   UNL     1       1.733   2.662  18.503  0.00  0.00    +0.000 NA
ATOM     23  C   UNL     1       3.096   2.648  18.490  0.00  0.00    +0.000 A 
ATOM     24  C   UNL     1       3.824   2.575  19.675  0.00  0.00    +0.000 A 
ATOM     25  N   UNL     1       3.242   2.554  20.900  0.00  0.00    +0.000 NA
ENDBRANCH  18  23
ENDBRANCH  16  18
ENDBRANCH   1  16
TORSDOF 5
ENDMDL
MODEL 4
REMARK VINA RESULT:      -7.5      0.446      1.225
REMARK  Name = 
REMARK  8 active torsions:
REMARK  status: ('A' for Active; 'I' for Inactive)
REMARK    1  A    between atoms: C_1  and  C_2
REMARK    2  A    between atoms: C_5  and  C_6
REMARK    3  A    between atoms: C_6  and  N_7
REMARK    4  A    between atoms: N_7  and  C_8
REMARK    5  A    between atoms: C_13  and  C_14
REMARK    6  A    between atoms: C_17  and  N_18
REMARK    7  A    between atoms: N_18  and  C_19
REMARK    8  A    between atoms: N_18  and  C_20
REMARK                            x       y       z     vdW  Elec       q    Type
REMARK                         _______ _______ _______ _____ _____    ______ ____
ROOT
ATOM      1  C   UNL     1       3.578   4.894  19.779  0.00  0.00    +0.000 A 
ATOM      2  N   UNL     1       3.841   3.581  19.960  0.00  0.00    +0.000 NA
ATOM      3  C   UNL     1       2.825   2.796  20.332  0.00  0.00    +0.000 A 
ATOM      4  N   UNL     1       1.582   3.198  20.592  0.00  0.00    +0.000 NA
ATOM      5  C   UNL     1       1.361   4.518  20.425  0.00  0.00    +0.000 A 
ATOM      6  C   UNL     1       2.303   5.447  19.983  0.00  0.00    +0.000 A 
ENDROOT
BRANCH   6   7
ATOM      7  C   UNL     1       1.933   6.874  19.799  0.00  0.00    +0.000 A 
ATOM      8  C   UNL     1       2.155   7.563  18.602  0.00  0.00    +0.000 A 
ATOM      9  C   UNL     1       1.769   8.903  18.430  0.00  0.00    +0.000 A 
ATOM     10  C   UNL     1       1.169   9.645  19.453  0.00  0.00    +0.000 A 
ATOM     11  C   UNL     1       0.982   8.969  20.664  0.00  0.00    +0.000 A 
ATOM     12  C   UNL     1       1.345   7.620  20.833  0.00  0.00    +0.000 A 
BRANCH  10  13
ATOM     13  N   UNL     1       0.805  10.967  19.274  0.00  0.00    +0.000 N 
ATOM     14  C   UNL     1      -0.408  11.333  18.552  0.00  0.00    +0.000 C 
ATOM     15  C   UNL     1       1.512  12.066  19.920  0.00  0.00    +0.000 C 
ENDBRANCH  10  13
ENDBRANCH   6   7
BRANCH   1  16
ATOM     16  N   UNL     1       4.632   5.703  19.313  0.00  0.00    +0.000 N 
ATOM     17  H   UNL     1       4.320   6.186  18.472  0.00  0.00    +0.000 HD
BRANCH  16  18
ATOM     18  C   UNL     1       5.904   5.018  19.102  0.00  0.00    +0.000 C 
BRANCH  18  23
ATOM     19  C   UNL     1       7.166   4.787  13.533  0.00  0.00    +0.000 C 
ATOM     20  C   UNL     1       6.818   4.866  14.987  0.00  0.00    +0.000 A 
ATOM     21  C   UNL     1       5.898   3.994  15.559  0.00  0.00    +0.000 A 
ATOM     22  N   UNL     1       5.571   4.016  16.872  0.00  0.00    +0.000 NA
ATOM     23  C   UNL     1       6.219   4.950  17.625  0.00  0.00    +0.000 A 
ATOM     24  C   UNL     1       7.123   5.837  17.046  0.00  0.00    +0.000 A 
ATOM     25  N   UNL     1       7.445   5.810  15.728  0.00  0.00    +0.000 NA
ENDBRANCH  18  23
ENDBRANCH  16  18
ENDBRANCH   1  16
TORSDOF 5
ENDMDL
MODEL 5
REMARK VINA RESULT:      -7.4      0.956      1.366
REMARK  Name = 
REMARK  8 active torsions:
REMARK  status: ('A' for Active; 'I' for Inactive)
REMARK    1  A    between atoms: C_1  and  C_2
REMARK    2  A    between atoms: C_5  and  C_6
REMARK    3  A    between atoms: C_6  and  N_7
REMARK    4  A    between atoms: N_7  and  C_8
REMARK    5  A    between atoms: C_13  and  C_14
REMARK    6  A    between atoms: C_17  and  N_18
REMARK    7  A    between atoms: N_18  and  C_19
REMARK    8  A    between atoms: N_18  and  C_20
REMARK                            x       y       z     vdW  Elec       q    Type
REMARK                         _______ _______ _______ _____ _____    ______ ____
ROOT
ATOM      1  C   UNL     1       3.690   4.270  19.032  0.00  0.00    +0.000 A 
ATOM      2  N   UNL     1       3.892   2.938  18.932  0.00  0.00    +0.000 NA
ATOM      3  C   UNL     1       2.815   2.147  18.978  0.00  0.00    +0.000 A 
ATOM      4  N   UNL     1       1.559   2.549  19.165  0.00  0.00    +0.000 NA
ATOM      5  C   UNL     1       1.397   3.882  19.287  0.00  0.00    +0.000 A 
ATOM      6  C   UNL     1       2.414   4.833  19.199  0.00  0.00    +0.000 A 
ENDROOT
BRANCH   6   7
ATOM      7  C   UNL     1       2.108   6.282  19.309  0.00  0.00    +0.000 A 
ATOM      8  C   UNL     1       2.219   7.162  18.227  0.00  0.00    +0.000 A 
ATOM      9  C   UNL     1       1.895   8.525  18.338  0.00  0.00    +0.000 A 
ATOM     10  C   UNL     1       1.473   9.098  19.542  0.00  0.00    +0.000 A 
ATOM     11  C   UNL     1       1.399   8.227  20.635  0.00  0.00    +0.000 A 
ATOM     12  C   UNL     1       1.700   6.857  20.524  0.00  0.00    +0.000 A 
BRANCH  10  13
ATOM     13  N   UNL     1       1.169  10.443  19.639  0.00  0.00    +0.000 N 
ATOM     14  C   UNL     1       1.625  11.402  18.639  0.00  0.00    +0.000 C 
ATOM     15  C   UNL     1       0.252  10.967  20.644  0.00  0.00    +0.000 C 
ENDBRANCH  10  13
ENDBRANCH   6   7
BRANCH   1  16
ATOM     16  N   UNL     1       4.818   5.104  18.907  0.00  0.00    +0.000 N 
ATOM     17  H   UNL     1       4.604   5.835  18.231  0.00  0.00    +0.000 HD
BRANCH  16  18
ATOM     18  C   UNL     1       6.070   4.422  18.590  0.00  0.00    +0.000 C 
BRANCH  18  23
ATOM     19  C   UNL     1       7.342   5.039  13.052  0.00  0.00    +0.000 C 
ATOM     20  C   UNL     1       6.990   4.895  14.500  0.00  0.00    +0.000 A 
ATOM     21  C   UNL     1       6.124   3.900  14.939  0.00  0.00    +0.000 A 
ATOM     22  N   UNL     1       5.797   3.721  16.240  0.00  0.00    +0.000 NA
ATOM     23  C   UNL     1       6.388   4.578  17.120  0.00  0.00    +0.000 A 
ATOM     24  C   UNL     1       7.237   5.589  16.676  0.00  0.00    +0.000 A 
ATOM     25  N   UNL     1       7.560   5.763  15.370  0.00  0.00    +0.000 NA
ENDBRANCH  18  23
ENDBRANCH  16  18
ENDBRANCH   1  16
TORSDOF 5
ENDMDL
MODEL 6
REMARK VINA RESULT:      -7.4      2.044      2.972
REMARK  Name = 
REMARK  8 active torsions:
REMARK  status: ('A' for Active; 'I' for Inactive)
REMARK    1  A    between atoms: C_1  and  C_2
REMARK    2  A    between atoms: C_5  and  C_6
REMARK    3  A    between atoms: C_6  and  N_7
REMARK    4  A    between atoms: N_7  and  C_8
REMARK    5  A    between atoms: C_13  and  C_14
REMARK    6  A    between atoms: C_17  and  N_18
REMARK    7  A    between atoms: N_18  and  C_19
REMARK    8  A    between atoms: N_18  and  C_20
REMARK                            x       y       z     vdW  Elec       q    Type
REMARK                         _______ _______ _______ _____ _____    ______ ____
ROOT
ATOM      1  C   UNL     1       3.929   3.843  18.854  0.00  0.00    +0.000 A 
ATOM      2  N   UNL     1       4.165   2.536  18.601  0.00  0.00    +0.000 NA
ATOM      3  C   UNL     1       3.117   1.777  18.262  0.00  0.00    +0.000 A 
ATOM      4  N   UNL     1       1.849   2.178  18.201  0.00  0.00    +0.000 NA
ATOM      5  C   UNL     1       1.647   3.481  18.484  0.00  0.00    +0.000 A 
ATOM      6  C   UNL     1       2.644   4.408  18.792  0.00  0.00    +0.000 A 
ENDROOT
BRANCH   6   7
ATOM      7  C   UNL     1       2.304   5.830  19.048  0.00  0.00    +0.000 A 
ATOM      8  C   UNL     1       2.440   6.826  18.075  0.00  0.00    +0.000 A 
ATOM      9  C   UNL     1       2.083   8.163  18.321  0.00  0.00    +0.000 A 
ATOM     10  C   UNL     1       1.601   8.592  19.562  0.00  0.00    +0.000 A 
ATOM     11  C   UNL     1       1.503   7.604  20.549  0.00  0.00    +0.000 A 
ATOM     12  C   UNL     1       1.836   6.261  20.301  0.00  0.00    +0.000 A 
BRANCH  10  13
ATOM     13  N   UNL     1       1.266   9.914  19.793  0.00  0.00    +0.000 N 
ATOM     14  C   UNL     1       0.948  10.396  21.133  0.00  0.00    +0.000 C 
ATOM     15  C   UNL     1       1.360  10.936  18.759  0.00  0.00    +0.000 C 
ENDBRANCH  10  13
ENDBRANCH   6   7
BRANCH   1  16
ATOM     16  N   UNL     1       5.044   4.656  19.135  0.00  0.00    +0.000 N 
ATOM     17  H   UNL     1       4.713   5.600  19.328  0.00  0.00    +0.000 HD
BRANCH  16  18
ATOM     18  C   UNL     1       6.097   4.647  18.124  0.00  0.00    +0.000 C 
BRANCH  18  23
ATOM     19  C   UNL     1       8.671   9.748  17.970  0.00  0.00    +0.000 C 
ATOM     20  C   UNL     1       8.011   8.404  17.991  0.00  0.00    +0.000 A 
ATOM     21  C   UNL     1       8.432   7.405  18.863  0.00  0.00    +0.000 A 
ATOM     22  N   UNL     1       7.850   6.185  18.930  0.00  0.00    +0.000 NA
ATOM     23  C   UNL     1       6.796   5.988  18.089  0.00  0.00    +0.000 A 
ATOM     24  C   UNL     1       6.391   6.980  17.200  0.00  0.00    +0.000 A 
ATOM     25  N   UNL     1       6.979   8.202  17.137  0.00  0.00    +0.000 NA
ENDBRANCH  18  23
ENDBRANCH  16  18
ENDBRANCH   1  16
TORSDOF 5
ENDMDL
MODEL 7
REMARK VINA RESULT:      -7.4      1.678      5.228
REMARK  Name = 
REMARK  8 active torsions:
REMARK  status: ('A' for Active; 'I' for Inactive)
REMARK    1  A    between atoms: C_1  and  C_2
REMARK    2  A    between atoms: C_5  and  C_6
REMARK    3  A    between atoms: C_6  and  N_7
REMARK    4  A    between atoms: N_7  and  C_8
REMARK    5  A    between atoms: C_13  and  C_14
REMARK    6  A    between atoms: C_17  and  N_18
REMARK    7  A    between atoms: N_18  and  C_19
REMARK    8  A    between atoms: N_18  and  C_20
REMARK                            x       y       z     vdW  Elec       q    Type
REMARK                         _______ _______ _______ _____ _____    ______ ____
ROOT
ATOM      1  C   UNL     1       4.885   4.708  16.499  0.00  0.00    +0.000 A 
ATOM      2  N   UNL     1       5.896   4.088  15.852  0.00  0.00    +0.000 NA
ATOM      3  C   UNL     1       7.077   4.713  15.817  0.00  0.00    +0.000 A 
ATOM      4  N   UNL     1       7.339   5.918  16.318  0.00  0.00    +0.000 NA
ATOM      5  C   UNL     1       6.301   6.519  16.934  0.00  0.00    +0.000 A 
ATOM      6  C   UNL     1       5.030   5.968  17.104  0.00  0.00    +0.000 A 
ENDROOT
BRANCH   6   7
ATOM      7  C   UNL     1       3.973   6.710  17.837  0.00  0.00    +0.000 A 
ATOM      8  C   UNL     1       3.400   7.889  17.347  0.00  0.00    +0.000 A 
ATOM      9  C   UNL     1       2.378   8.564  18.036  0.00  0.00    +0.000 A 
ATOM     10  C   UNL     1       1.888   8.120  19.269  0.00  0.00    +0.000 A 
ATOM     11  C   UNL     1       2.488   6.963  19.779  0.00  0.00    +0.000 A 
ATOM     12  C   UNL     1       3.496   6.271  19.083  0.00  0.00    +0.000 A 
BRANCH  10  13
ATOM     13  N   UNL     1       0.890   8.801  19.941  0.00  0.00    +0.000 N 
ATOM     14  C   UNL     1       0.517   8.453  21.308  0.00  0.00    +0.000 C 
ATOM     15  C   UNL     1       0.260   9.998  19.400  0.00  0.00    +0.000 C 
ENDBRANCH  10  13
ENDBRANCH   6   7
BRANCH   1  16
ATOM     16  N   UNL     1       3.663   4.014  16.601  0.00  0.00    +0.000 N 
ATOM     17  H   UNL     1       2.999   4.603  17.101  0.00  0.00    +0.000 HD
BRANCH  16  18
ATOM     18  C   UNL     1       3.748   2.678  17.183  0.00  0.00    +0.000 C 
BRANCH  18  23
ATOM     19  C   UNL     1       1.171   2.570  22.284  0.00  0.00    +0.000 C 
ATOM     20  C   UNL     1       1.843   2.624  20.947  0.00  0.00    +0.000 A 
ATOM     21  C   UNL     1       3.228   2.670  20.835  0.00  0.00    +0.000 A 
ATOM     22  N   UNL     1       3.876   2.698  19.648  0.00  0.00    +0.000 NA
ATOM     23  C   UNL     1       3.081   2.660  18.541  0.00  0.00    +0.000 A 
ATOM     24  C   UNL     1       1.694   2.638  18.655  0.00  0.00    +0.000 A 
ATOM     25  N   UNL     1       1.050   2.611  19.849  0.00  0.00    +0.000 NA
ENDBRANCH  18  23
ENDBRANCH  16  18
ENDBRANCH   1  16
TORSDOF 5
ENDMDL
MODEL 8
REMARK VINA RESULT:      -7.4      1.496      2.338
REMARK  Name = 
REMARK  8 active torsions:
REMARK  status: ('A' for Active; 'I' for Inactive)
REMARK    1  A    between atoms: C_1  and  C_2
REMARK    2  A    between atoms: C_5  and  C_6
REMARK    3  A    between atoms: C_6  and  N_7
REMARK    4  A    between atoms: N_7  and  C_8
REMARK    5  A    between atoms: C_13  and  C_14
REMARK    6  A    between atoms: C_17  and  N_18
REMARK    7  A    between atoms: N_18  and  C_19
REMARK    8  A    between atoms: N_18  and  C_20
REMARK                            x       y       z     vdW  Elec       q    Type
REMARK                         _______ _______ _______ _____ _____    ______ ____
ROOT
ATOM      1  C   UNL     1       2.752   4.017  19.140  0.00  0.00    +0.000 A 
ATOM      2  N   UNL     1       2.959   2.746  19.552  0.00  0.00    +0.000 NA
ATOM      3  C   UNL     1       2.738   2.475  20.842  0.00  0.00    +0.000 A 
ATOM      4  N   UNL     1       2.381   3.355  21.776  0.00  0.00    +0.000 NA
ATOM      5  C   UNL     1       2.208   4.618  21.335  0.00  0.00    +0.000 A 
ATOM      6  C   UNL     1       2.341   5.039  20.011  0.00  0.00    +0.000 A 
ENDROOT
BRANCH   6   7
ATOM      7  C   UNL     1       2.086   6.453  19.637  0.00  0.00    +0.000 A 
ATOM      8  C   UNL     1       2.363   6.958  18.361  0.00  0.00    +0.000 A 
ATOM      9  C   UNL     1       2.086   8.291  18.011  0.00  0.00    +0.000 A 
ATOM     10  C   UNL     1       1.547   9.207  18.920  0.00  0.00    +0.000 A 
ATOM     11  C   UNL     1       1.306   8.713  20.208  0.00  0.00    +0.000 A 
ATOM     12  C   UNL     1       1.559   7.375  20.557  0.00  0.00    +0.000 A 
BRANCH  10  13
ATOM     13  N   UNL     1       1.291  10.518  18.564  0.00  0.00    +0.000 N 
ATOM     14  C   UNL     1       0.002  11.145  18.838  0.00  0.00    +0.000 C 
ATOM     15  C   UNL     1       2.325  11.402  18.043  0.00  0.00    +0.000 C 
ENDBRANCH  10  13
ENDBRANCH   6   7
BRANCH   1  16
ATOM     16  N   UNL     1       2.912   4.283  17.766  0.00  0.00    +0.000 N 
ATOM     17  H   UNL     1       2.121   3.880  17.267  0.00  0.00    +0.000 HD
BRANCH  16  18
ATOM     18  C   UNL     1       4.187   3.862  17.190  0.00  0.00    +0.000 C 
BRANCH  18  23
ATOM     19  C   UNL     1       8.023   8.064  17.737  0.00  0.00    +0.000 C 
ATOM     20  C   UNL     1       7.034   6.951  17.578  0.00  0.00    +0.000 A 
ATOM     21  C   UNL     1       6.960   5.911  18.499  0.00  0.00    +0.000 A 
ATOM     22  N   UNL     1       6.068   4.898  18.405  0.00  0.00    +0.000 NA
ATOM     23  C   UNL     1       5.214   4.961  17.344  0.00  0.00    +0.000 A 
ATOM     24  C   UNL     1       5.305   5.990  16.410  0.00  0.00    +0.000 A 
ATOM     25  N   UNL     1       6.202   7.002  16.509  0.00  0.00    +0.000 NA
ENDBRANCH  18  23
ENDBRANCH  16  18
ENDBRANCH   1  16
TORSDOF 5
ENDMDL
MODEL 9
REMARK VINA RESULT:      -7.4      1.946      2.704
REMARK  Name = 
REMARK  8 active torsions:
REMARK  status: ('A' for Active; 'I' for Inactive)
REMARK    1  A    between atoms: C_1  and  C_2
REMARK    2  A    between atoms: C_5  and  C_6
REMARK    3  A    between atoms: C_6  and  N_7
REMARK    4  A    between atoms: N_7  and  C_8
REMARK    5  A    between atoms: C_13  and  C_14
REMARK    6  A    between atoms: C_17  and  N_18
REMARK    7  A    between atoms: N_18  and  C_19
REMARK    8  A    between atoms: N_18  and  C_20
REMARK                            x       y       z     vdW  Elec       q    Type
REMARK                         _______ _______ _______ _____ _____    ______ ____
ROOT
ATOM      1  C   UNL     1       3.838   3.698  19.069  0.00  0.00    +0.000 A 
ATOM      2  N   UNL     1       4.061   2.380  18.873  0.00  0.00    +0.000 NA
ATOM      3  C   UNL     1       3.000   1.607  18.622  0.00  0.00    +0.000 A 
ATOM      4  N   UNL     1       1.730   2.008  18.596  0.00  0.00    +0.000 NA
ATOM      5  C   UNL     1       1.541   3.324  18.821  0.00  0.00    +0.000 A 
ATOM      6  C   UNL     1       2.552   4.263  19.035  0.00  0.00    +0.000 A 
ENDROOT
BRANCH   6   7
ATOM      7  C   UNL     1       2.224   5.698  19.233  0.00  0.00    +0.000 A 
ATOM      8  C   UNL     1       1.710   6.197  20.435  0.00  0.00    +0.000 A 
ATOM      9  C   UNL     1       1.435   7.562  20.618  0.00  0.00    +0.000 A 
ATOM     10  C   UNL     1       1.627   8.507  19.604  0.00  0.00    +0.000 A 
ATOM     11  C   UNL     1       2.104   8.003  18.388  0.00  0.00    +0.000 A 
ATOM     12  C   UNL     1       2.402   6.641  18.207  0.00  0.00    +0.000 A 
BRANCH  10  13
ATOM     13  N   UNL     1       1.341   9.846  19.795  0.00  0.00    +0.000 N 
ATOM     14  C   UNL     1       1.395  10.802  18.695  0.00  0.00    +0.000 C 
ATOM     15  C   UNL     1       0.819  10.361  21.054  0.00  0.00    +0.000 C 
ENDBRANCH  10  13
ENDBRANCH   6   7
BRANCH   1  16
ATOM     16  N   UNL     1       4.964   4.522  19.258  0.00  0.00    +0.000 N 
ATOM     17  H   UNL     1       4.642   5.465  19.470  0.00  0.00    +0.000 HD
BRANCH  16  18
ATOM     18  C   UNL     1       5.936   4.514  18.169  0.00  0.00    +0.000 C 
BRANCH  18  23
ATOM     19  C   UNL     1       8.579   9.574  17.896  0.00  0.00    +0.000 C 
ATOM     20  C   UNL     1       7.901   8.240  17.948  0.00  0.00    +0.000 A 
ATOM     21  C   UNL     1       8.329   7.245  18.819  0.00  0.00    +0.000 A 
ATOM     22  N   UNL     1       7.731   6.034  18.914  0.00  0.00    +0.000 NA
ATOM     23  C   UNL     1       6.653   5.844  18.102  0.00  0.00    +0.000 A 
ATOM     24  C   UNL     1       6.241   6.833  17.213  0.00  0.00    +0.000 A 
ATOM     25  N   UNL     1       6.845   8.045  17.122  0.00  0.00    +0.000 NA
ENDBRANCH  18  23
ENDBRANCH  16  18
ENDBRANCH   1  16
TORSDOF 5
ENDMDL
