MODEL 1
REMARK VINA RESULT:      -7.3      0.000      0.000
REMARK  Name = 
REMARK  8 active torsions:
REMARK  status: ('A' for Active; 'I' for Inactive)
REMARK    1  A    between atoms: C_1  and  C_2
REMARK    2  A    between atoms: C_2  and  N_3
REMARK    3  A    between atoms: N_3  and  C_4
REMARK    4  A    between atoms: N_3  and  C_12
REMARK    5  A    between atoms: C_4  and  C_5
REMARK    6  A    between atoms: C_12  and  N_13
REMARK    7  A    between atoms: C_15  and  C_16
REMARK    8  A    between atoms: C_18  and  C_19
REMARK                            x       y       z     vdW  Elec       q    Type
REMARK                         _______ _______ _______ _____ _____    ______ ____
ROOT
ATOM      1  C   UNL     1       4.910   5.180  18.313  0.00  0.00    +0.000 C 
ENDROOT
BRANCH   1   2
ATOM      2  N   UNL     1       3.893   6.212  18.485  0.00  0.00    +0.000 N 
ATOM      3  N   UNL     1       3.093   6.089  19.632  0.00  0.00    +0.000 NA
ATOM      4  C   UNL     1       2.194   6.981  19.927  0.00  0.00    +0.000 A 
ATOM      5  C   UNL     1       1.361   6.775  21.154  0.00  0.00    +0.000 C 
ATOM      6  C   UNL     1       2.034   8.118  19.074  0.00  0.00    +0.000 A 
ATOM      7  C   UNL     1       1.250   9.243  19.110  0.00  0.00    +0.000 A 
ATOM      8  C   UNL     1       0.235   9.807  20.019  0.00  0.00    +0.000 C 
ATOM      9  O   UNL     1       1.529   9.999  18.005  0.00  0.00    +0.000 OA
ATOM     10  N   UNL     1       2.495   9.365  17.233  0.00  0.00    +0.000 NA
ATOM     11  C   UNL     1       2.788   8.239  17.896  0.00  0.00    +0.000 A 
ATOM     12  C   UNL     1       3.760   7.230  17.511  0.00  0.00    +0.000 A 
ATOM     13  O   UNL     1       4.383   7.263  16.456  0.00  0.00    +0.000 OA
ENDBRANCH   1   2
BRANCH   1  14
ATOM     14  N   UNL     1       4.452   4.103  17.414  0.00  0.00    +0.000 NA
BRANCH  14  16
ATOM     15  C   UNL     1       6.716   4.511  16.349  0.00  0.00    +0.000 C 
ATOM     16  C   UNL     1       5.287   3.990  16.212  0.00  0.00    +0.000 C 
ENDBRANCH  14  16
BRANCH  14  17
ATOM     17  C   UNL     1       4.114   2.840  18.093  0.00  0.00    +0.000 C 
BRANCH  17  18
ATOM     18  C   UNL     1       3.104   2.840  19.228  0.00  0.00    +0.000 A 
ATOM     19  C   UNL     1       3.424   2.440  20.536  0.00  0.00    +0.000 A 
ATOM     20  C   UNL     1       2.521   2.550  21.590  0.00  0.00    +0.000 A 
ATOM     21  C   UNL     1       1.244   3.031  21.356  0.00  0.00    +0.000 A 
ATOM     22  C   UNL     1       0.870   3.380  20.060  0.00  0.00    +0.000 A 
ATOM     23  C   UNL     1       1.787   3.285  19.005  0.00  0.00    +0.000 A 
ATOM     24 CL   UNL     1       1.228   3.748  17.433  0.00  0.00    +0.000 Cl
ENDBRANCH  17  18
ENDBRANCH  14  17
ENDBRANCH   1  14
TORSDOF 5
ENDMDL
MODEL 2
REMARK VINA RESULT:      -7.1      3.065      5.709
REMARK  Name = 
REMARK  8 active torsions:
REMARK  status: ('A' for Active; 'I' for Inactive)
REMARK    1  A    between atoms: C_1  and  C_2
REMARK    2  A    between atoms: C_2  and  N_3
REMARK    3  A    between atoms: N_3  and  C_4
REMARK    4  A    between atoms: N_3  and  C_12
REMARK    5  A    between atoms: C_4  and  C_5
REMARK    6  A    between atoms: C_12  and  N_13
REMARK    7  A    between atoms: C_15  and  C_16
REMARK    8  A    between atoms: C_18  and  C_19
REMARK                            x       y       z     vdW  Elec       q    Type
REMARK                         _______ _______ _______ _____ _____    ______ ____
ROOT
ATOM      1  C   UNL     1       5.051   6.352  15.937  0.00  0.00    +0.000 C 
ENDROOT
BRANCH   1   2
ATOM      2  N   UNL     1       4.255   5.902  17.073  0.00  0.00    +0.000 N 
ATOM      3  N   UNL     1       4.269   4.520  17.313  0.00  0.00    +0.000 NA
ATOM      4  C   UNL     1       3.648   4.005  18.333  0.00  0.00    +0.000 A 
ATOM      5  C   UNL     1       3.686   2.519  18.516  0.00  0.00    +0.000 C 
ATOM      6  C   UNL     1       2.954   4.870  19.237  0.00  0.00    +0.000 A 
ATOM      7  C   UNL     1       2.263   4.683  20.406  0.00  0.00    +0.000 A 
ATOM      8  C   UNL     1       1.921   3.538  21.272  0.00  0.00    +0.000 C 
ATOM      9  O   UNL     1       1.807   5.898  20.838  0.00  0.00    +0.000 OA
ATOM     10  N   UNL     1       2.192   6.889  19.943  0.00  0.00    +0.000 NA
ATOM     11  C   UNL     1       2.885   6.251  18.991  0.00  0.00    +0.000 A 
ATOM     12  C   UNL     1       3.521   6.847  17.829  0.00  0.00    +0.000 A 
ATOM     13  O   UNL     1       3.421   8.034  17.542  0.00  0.00    +0.000 OA
ENDBRANCH   1   2
BRANCH   1  14
ATOM     14  N   UNL     1       6.494   6.365  16.249  0.00  0.00    +0.000 NA
BRANCH  14  16
ATOM     15  C   UNL     1       7.592   5.758  18.452  0.00  0.00    +0.000 C 
ATOM     16  C   UNL     1       6.758   6.747  17.641  0.00  0.00    +0.000 C 
ENDBRANCH  14  16
BRANCH  14  17
ATOM     17  C   UNL     1       7.243   5.203  15.739  0.00  0.00    +0.000 C 
BRANCH  17  18
ATOM     18  C   UNL     1       6.875   4.600  14.394  0.00  0.00    +0.000 A 
ATOM     19  C   UNL     1       5.806   3.704  14.224  0.00  0.00    +0.000 A 
ATOM     20  C   UNL     1       5.410   3.246  12.970  0.00  0.00    +0.000 A 
ATOM     21  C   UNL     1       6.106   3.643  11.841  0.00  0.00    +0.000 A 
ATOM     22  C   UNL     1       7.211   4.481  11.975  0.00  0.00    +0.000 A 
ATOM     23  C   UNL     1       7.594   4.956  13.237  0.00  0.00    +0.000 A 
ATOM     24 CL   UNL     1       8.976   5.998  13.299  0.00  0.00    +0.000 Cl
ENDBRANCH  17  18
ENDBRANCH  14  17
ENDBRANCH   1  14
TORSDOF 5
ENDMDL
MODEL 3
REMARK VINA RESULT:      -7.0      2.722      5.920
REMARK  Name = 
REMARK  8 active torsions:
REMARK  status: ('A' for Active; 'I' for Inactive)
REMARK    1  A    between atoms: C_1  and  C_2
REMARK    2  A    between atoms: C_2  and  N_3
REMARK    3  A    between atoms: N_3  and  C_4
REMARK    4  A    between atoms: N_3  and  C_12
REMARK    5  A    between atoms: C_4  and  C_5
REMARK    6  A    between atoms: C_12  and  N_13
REMARK    7  A    between atoms: C_15  and  C_16
REMARK    8  A    between atoms: C_18  and  C_19
REMARK                            x       y       z     vdW  Elec       q    Type
REMARK                         _______ _______ _______ _____ _____    ______ ____
ROOT
ATOM      1  C   UNL     1       3.850   4.590  20.426  0.00  0.00    +0.000 C 
ENDROOT
BRANCH   1   2
ATOM      2  N   UNL     1       4.507   4.436  19.133  0.00  0.00    +0.000 N 
ATOM      3  N   UNL     1       3.708   3.907  18.107  0.00  0.00    +0.000 NA
ATOM      4  C   UNL     1       4.162   3.780  16.896  0.00  0.00    +0.000 A 
ATOM      5  C   UNL     1       3.262   3.186  15.855  0.00  0.00    +0.000 C 
ATOM      6  C   UNL     1       5.495   4.207  16.601  0.00  0.00    +0.000 A 
ATOM      7  C   UNL     1       6.254   4.271  15.461  0.00  0.00    +0.000 A 
ATOM      8  C   UNL     1       6.064   3.949  14.034  0.00  0.00    +0.000 C 
ATOM      9  O   UNL     1       7.482   4.777  15.787  0.00  0.00    +0.000 OA
ATOM     10  N   UNL     1       7.535   5.040  17.151  0.00  0.00    +0.000 NA
ATOM     11  C   UNL     1       6.330   4.695  17.620  0.00  0.00    +0.000 A 
ATOM     12  C   UNL     1       5.869   4.794  18.995  0.00  0.00    +0.000 A 
ATOM     13  O   UNL     1       6.589   5.145  19.921  0.00  0.00    +0.000 OA
ENDBRANCH   1   2
BRANCH   1  14
ATOM     14  N   UNL     1       2.403   4.844  20.281  0.00  0.00    +0.000 NA
BRANCH  14  16
ATOM     15  C   UNL     1       0.770   3.021  19.622  0.00  0.00    +0.000 C 
ATOM     16  C   UNL     1       1.593   3.701  20.715  0.00  0.00    +0.000 C 
ENDBRANCH  14  16
BRANCH  14  17
ATOM     17  C   UNL     1       1.963   6.170  20.750  0.00  0.00    +0.000 C 
BRANCH  17  18
ATOM     18  C   UNL     1       1.964   7.348  19.790  0.00  0.00    +0.000 A 
ATOM     19  C   UNL     1       2.554   7.297  18.516  0.00  0.00    +0.000 A 
ATOM     20  C   UNL     1       2.451   8.345  17.605  0.00  0.00    +0.000 A 
ATOM     21  C   UNL     1       1.782   9.502  17.961  0.00  0.00    +0.000 A 
ATOM     22  C   UNL     1       1.236   9.615  19.238  0.00  0.00    +0.000 A 
ATOM     23  C   UNL     1       1.326   8.552  20.145  0.00  0.00    +0.000 A 
ATOM     24 CL   UNL     1       0.610   8.787  21.705  0.00  0.00    +0.000 Cl
ENDBRANCH  17  18
ENDBRANCH  14  17
ENDBRANCH   1  14
TORSDOF 5
ENDMDL
MODEL 4
REMARK VINA RESULT:      -6.8      3.118      6.984
REMARK  Name = 
REMARK  8 active torsions:
REMARK  status: ('A' for Active; 'I' for Inactive)
REMARK    1  A    between atoms: C_1  and  C_2
REMARK    2  A    between atoms: C_2  and  N_3
REMARK    3  A    between atoms: N_3  and  C_4
REMARK    4  A    between atoms: N_3  and  C_12
REMARK    5  A    between atoms: C_4  and  C_5
REMARK    6  A    between atoms: C_12  and  N_13
REMARK    7  A    between atoms: C_15  and  C_16
REMARK    8  A    between atoms: C_18  and  C_19
REMARK                            x       y       z     vdW  Elec       q    Type
REMARK                         _______ _______ _______ _____ _____    ______ ____
ROOT
ATOM      1  C   UNL     1       1.687   8.311  20.854  0.00  0.00    +0.000 C 
ENDROOT
BRANCH   1   2
ATOM      2  N   UNL     1       1.992   7.050  20.188  0.00  0.00    +0.000 N 
ATOM      3  N   UNL     1       1.579   5.892  20.865  0.00  0.00    +0.000 NA
ATOM      4  C   UNL     1       1.739   4.712  20.344  0.00  0.00    +0.000 A 
ATOM      5  C   UNL     1       1.295   3.518  21.133  0.00  0.00    +0.000 C 
ATOM      6  C   UNL     1       2.330   4.596  19.047  0.00  0.00    +0.000 A 
ATOM      7  C   UNL     1       2.591   3.550  18.199  0.00  0.00    +0.000 A 
ATOM      8  C   UNL     1       2.386   2.089  18.213  0.00  0.00    +0.000 C 
ATOM      9  O   UNL     1       3.181   4.046  17.070  0.00  0.00    +0.000 OA
ATOM     10  N   UNL     1       3.318   5.425  17.177  0.00  0.00    +0.000 NA
ATOM     11  C   UNL     1       2.796   5.736  18.371  0.00  0.00    +0.000 A 
ATOM     12  C   UNL     1       2.682   7.062  18.952  0.00  0.00    +0.000 A 
ATOM     13  O   UNL     1       3.141   8.069  18.427  0.00  0.00    +0.000 OA
ENDBRANCH   1   2
BRANCH   1  14
ATOM     14  N   UNL     1       0.336   8.799  20.514  0.00  0.00    +0.000 NA
BRANCH  14  16
ATOM     15  C   UNL     1      -0.387   9.636  22.795  0.00  0.00    +0.000 C 
ATOM     16  C   UNL     1      -0.601   8.665  21.636  0.00  0.00    +0.000 C 
ENDBRANCH  14  16
BRANCH  14  17
ATOM     17  C   UNL     1       0.310  10.083  19.793  0.00  0.00    +0.000 C 
BRANCH  17  18
ATOM     18  C   UNL     1      -0.850  10.406  18.866  0.00  0.00    +0.000 A 
ATOM     19  C   UNL     1      -1.062   9.741  17.646  0.00  0.00    +0.000 A 
ATOM     20  C   UNL     1      -2.188   9.969  16.860  0.00  0.00    +0.000 A 
ATOM     21  C   UNL     1      -3.125  10.907  17.256  0.00  0.00    +0.000 A 
ATOM     22  C   UNL     1      -2.919  11.631  18.429  0.00  0.00    +0.000 A 
ATOM     23  C   UNL     1      -1.794  11.386  19.227  0.00  0.00    +0.000 A 
ATOM     24 CL   UNL     1      -1.631  12.333  20.667  0.00  0.00    +0.000 Cl
ENDBRANCH  17  18
ENDBRANCH  14  17
ENDBRANCH   1  14
TORSDOF 5
ENDMDL
MODEL 5
REMARK VINA RESULT:      -6.8      2.736      5.588
REMARK  Name = 
REMARK  8 active torsions:
REMARK  status: ('A' for Active; 'I' for Inactive)
REMARK    1  A    between atoms: C_1  and  C_2
REMARK    2  A    between atoms: C_2  and  N_3
REMARK    3  A    between atoms: N_3  and  C_4
REMARK    4  A    between atoms: N_3  and  C_12
REMARK    5  A    between atoms: C_4  and  C_5
REMARK    6  A    between atoms: C_12  and  N_13
REMARK    7  A    between atoms: C_15  and  C_16
REMARK    8  A    between atoms: C_18  and  C_19
REMARK                            x       y       z     vdW  Elec       q    Type
REMARK                         _______ _______ _______ _____ _____    ______ ____
ROOT
ATOM      1  C   UNL     1       5.066   6.721  16.174  0.00  0.00    +0.000 C 
ENDROOT
BRANCH   1   2
ATOM      2  N   UNL     1       4.292   6.211  17.300  0.00  0.00    +0.000 N 
ATOM      3  N   UNL     1       4.501   4.861  17.618  0.00  0.00    +0.000 NA
ATOM      4  C   UNL     1       3.915   4.308  18.638  0.00  0.00    +0.000 A 
ATOM      5  C   UNL     1       4.167   2.856  18.905  0.00  0.00    +0.000 C 
ATOM      6  C   UNL     1       3.058   5.102  19.464  0.00  0.00    +0.000 A 
ATOM      7  C   UNL     1       2.347   4.869  20.614  0.00  0.00    +0.000 A 
ATOM      8  C   UNL     1       2.139   3.730  21.528  0.00  0.00    +0.000 C 
ATOM      9  O   UNL     1       1.695   6.021  20.958  0.00  0.00    +0.000 OA
ATOM     10  N   UNL     1       1.970   7.014  20.026  0.00  0.00    +0.000 NA
ATOM     11  C   UNL     1       2.795   6.442  19.140  0.00  0.00    +0.000 A 
ATOM     12  C   UNL     1       3.389   7.071  17.972  0.00  0.00    +0.000 A 
ATOM     13  O   UNL     1       3.128   8.213  17.617  0.00  0.00    +0.000 OA
ENDBRANCH   1   2
BRANCH   1  14
ATOM     14  N   UNL     1       6.519   6.613  16.412  0.00  0.00    +0.000 NA
BRANCH  14  16
ATOM     15  C   UNL     1       7.906   8.244  17.769  0.00  0.00    +0.000 C 
ATOM     16  C   UNL     1       6.900   7.095  17.744  0.00  0.00    +0.000 C 
ENDBRANCH  14  16
BRANCH  14  17
ATOM     17  C   UNL     1       7.117   5.336  15.985  0.00  0.00    +0.000 C 
BRANCH  17  18
ATOM     18  C   UNL     1       7.010   4.901  14.533  0.00  0.00    +0.000 A 
ATOM     19  C   UNL     1       7.733   5.515  13.496  0.00  0.00    +0.000 A 
ATOM     20  C   UNL     1       7.711   5.036  12.188  0.00  0.00    +0.000 A 
ATOM     21  C   UNL     1       6.925   3.941  11.870  0.00  0.00    +0.000 A 
ATOM     22  C   UNL     1       6.147   3.344  12.859  0.00  0.00    +0.000 A 
ATOM     23  C   UNL     1       6.186   3.817  14.177  0.00  0.00    +0.000 A 
ATOM     24 CL   UNL     1       5.188   3.003  15.334  0.00  0.00    +0.000 Cl
ENDBRANCH  17  18
ENDBRANCH  14  17
ENDBRANCH   1  14
TORSDOF 5
ENDMDL
MODEL 6
REMARK VINA RESULT:      -6.7      2.590      5.847
REMARK  Name = 
REMARK  8 active torsions:
REMARK  status: ('A' for Active; 'I' for Inactive)
REMARK    1  A    between atoms: C_1  and  C_2
REMARK    2  A    between atoms: C_2  and  N_3
REMARK    3  A    between atoms: N_3  and  C_4
REMARK    4  A    between atoms: N_3  and  C_12
REMARK    5  A    between atoms: C_4  and  C_5
REMARK    6  A    between atoms: C_12  and  N_13
REMARK    7  A    between atoms: C_15  and  C_16
REMARK    8  A    between atoms: C_18  and  C_19
REMARK                            x       y       z     vdW  Elec       q    Type
REMARK                         _______ _______ _______ _____ _____    ______ ____
ROOT
ATOM      1  C   UNL     1       3.434   3.465  19.672  0.00  0.00    +0.000 C 
ENDROOT
BRANCH   1   2
ATOM      2  N   UNL     1       4.245   3.859  18.526  0.00  0.00    +0.000 N 
ATOM      3  N   UNL     1       5.499   4.409  18.831  0.00  0.00    +0.000 NA
ATOM      4  C   UNL     1       6.337   4.742  17.895  0.00  0.00    +0.000 A 
ATOM      5  C   UNL     1       7.649   5.345  18.292  0.00  0.00    +0.000 C 
ATOM      6  C   UNL     1       5.978   4.522  16.527  0.00  0.00    +0.000 A 
ATOM      7  C   UNL     1       6.617   4.696  15.326  0.00  0.00    +0.000 A 
ATOM      8  C   UNL     1       7.942   5.167  14.882  0.00  0.00    +0.000 C 
ATOM      9  O   UNL     1       5.769   4.309  14.326  0.00  0.00    +0.000 OA
ATOM     10  N   UNL     1       4.562   3.887  14.870  0.00  0.00    +0.000 NA
ATOM     11  C   UNL     1       4.710   4.018  16.194  0.00  0.00    +0.000 A 
ATOM     12  C   UNL     1       3.731   3.692  17.217  0.00  0.00    +0.000 A 
ATOM     13  O   UNL     1       2.592   3.320  16.964  0.00  0.00    +0.000 OA
ENDBRANCH   1   2
BRANCH   1  14
ATOM     14  N   UNL     1       2.269   4.355  19.854  0.00  0.00    +0.000 NA
BRANCH  14  16
ATOM     15  C   UNL     1       1.437   2.720  21.604  0.00  0.00    +0.000 C 
ATOM     16  C   UNL     1       1.120   3.653  20.437  0.00  0.00    +0.000 C 
ENDBRANCH  14  16
BRANCH  14  17
ATOM     17  C   UNL     1       2.588   5.673  20.429  0.00  0.00    +0.000 C 
BRANCH  17  18
ATOM     18  C   UNL     1       2.387   6.928  19.596  0.00  0.00    +0.000 A 
ATOM     19  C   UNL     1       2.895   7.072  18.294  0.00  0.00    +0.000 A 
ATOM     20  C   UNL     1       2.609   8.181  17.502  0.00  0.00    +0.000 A 
ATOM     21  C   UNL     1       1.833   9.207  18.009  0.00  0.00    +0.000 A 
ATOM     22  C   UNL     1       1.362   9.130  19.318  0.00  0.00    +0.000 A 
ATOM     23  C   UNL     1       1.636   8.004  20.106  0.00  0.00    +0.000 A 
ATOM     24 CL   UNL     1       1.001   7.999  21.717  0.00  0.00    +0.000 Cl
ENDBRANCH  17  18
ENDBRANCH  14  17
ENDBRANCH   1  14
TORSDOF 5
ENDMDL
MODEL 7
REMARK VINA RESULT:      -6.7      1.199      1.633
REMARK  Name = 
REMARK  8 active torsions:
REMARK  status: ('A' for Active; 'I' for Inactive)
REMARK    1  A    between atoms: C_1  and  C_2
REMARK    2  A    between atoms: C_2  and  N_3
REMARK    3  A    between atoms: N_3  and  C_4
REMARK    4  A    between atoms: N_3  and  C_12
REMARK    5  A    between atoms: C_4  and  C_5
REMARK    6  A    between atoms: C_12  and  N_13
REMARK    7  A    between atoms: C_15  and  C_16
REMARK    8  A    between atoms: C_18  and  C_19
REMARK                            x       y       z     vdW  Elec       q    Type
REMARK                         _______ _______ _______ _____ _____    ______ ____
ROOT
ATOM      1  C   UNL     1       5.202   5.431  18.127  0.00  0.00    +0.000 C 
ENDROOT
BRANCH   1   2
ATOM      2  N   UNL     1       4.097   6.360  18.340  0.00  0.00    +0.000 N 
ATOM      3  N   UNL     1       3.316   6.120  19.480  0.00  0.00    +0.000 NA
ATOM      4  C   UNL     1       2.341   6.915  19.811  0.00  0.00    +0.000 A 
ATOM      5  C   UNL     1       1.533   6.585  21.028  0.00  0.00    +0.000 C 
ATOM      6  C   UNL     1       2.077   8.067  19.005  0.00  0.00    +0.000 A 
ATOM      7  C   UNL     1       1.196   9.115  19.086  0.00  0.00    +0.000 A 
ATOM      8  C   UNL     1       0.137   9.548  20.017  0.00  0.00    +0.000 C 
ATOM      9  O   UNL     1       1.402   9.937  18.013  0.00  0.00    +0.000 OA
ATOM     10  N   UNL     1       2.419   9.424  17.217  0.00  0.00    +0.000 NA
ATOM     11  C   UNL     1       2.814   8.303  17.833  0.00  0.00    +0.000 A 
ATOM     12  C   UNL     1       3.871   7.401  17.408  0.00  0.00    +0.000 A 
ATOM     13  O   UNL     1       4.485   7.533  16.356  0.00  0.00    +0.000 OA
ENDBRANCH   1   2
BRANCH   1  14
ATOM     14  N   UNL     1       4.975   4.570  16.949  0.00  0.00    +0.000 NA
BRANCH  14  16
ATOM     15  C   UNL     1       5.839   4.088  14.615  0.00  0.00    +0.000 C 
ATOM     16  C   UNL     1       6.126   4.563  16.038  0.00  0.00    +0.000 C 
ENDBRANCH  14  16
BRANCH  14  17
ATOM     17  C   UNL     1       4.377   3.259  17.254  0.00  0.00    +0.000 C 
BRANCH  17  18
ATOM     18  C   UNL     1       3.143   3.180  18.137  0.00  0.00    +0.000 A 
ATOM     19  C   UNL     1       1.889   3.676  17.744  0.00  0.00    +0.000 A 
ATOM     20  C   UNL     1       0.743   3.498  18.515  0.00  0.00    +0.000 A 
ATOM     21  C   UNL     1       0.827   2.846  19.733  0.00  0.00    +0.000 A 
ATOM     22  C   UNL     1       2.064   2.394  20.185  0.00  0.00    +0.000 A 
ATOM     23  C   UNL     1       3.212   2.558  19.399  0.00  0.00    +0.000 A 
ATOM     24 CL   UNL     1       4.701   1.956  20.045  0.00  0.00    +0.000 Cl
ENDBRANCH  17  18
ENDBRANCH  14  17
ENDBRANCH   1  14
TORSDOF 5
ENDMDL
MODEL 8
REMARK VINA RESULT:      -6.7      2.518      4.465
REMARK  Name = 
REMARK  8 active torsions:
REMARK  status: ('A' for Active; 'I' for Inactive)
REMARK    1  A    between atoms: C_1  and  C_2
REMARK    2  A    between atoms: C_2  and  N_3
REMARK    3  A    between atoms: N_3  and  C_4
REMARK    4  A    between atoms: N_3  and  C_12
REMARK    5  A    between atoms: C_4  and  C_5
REMARK    6  A    between atoms: C_12  and  N_13
REMARK    7  A    between atoms: C_15  and  C_16
REMARK    8  A    between atoms: C_18  and  C_19
REMARK                            x       y       z     vdW  Elec       q    Type
REMARK                         _______ _______ _______ _____ _____    ______ ____
ROOT
ATOM      1  C   UNL     1       2.582   4.447  18.514  0.00  0.00    +0.000 C 
ENDROOT
BRANCH   1   2
ATOM      2  N   UNL     1       2.257   5.771  19.033  0.00  0.00    +0.000 N 
ATOM      3  N   UNL     1       2.462   6.837  18.143  0.00  0.00    +0.000 NA
ATOM      4  C   UNL     1       2.152   8.056  18.468  0.00  0.00    +0.000 A 
ATOM      5  C   UNL     1       2.418   9.148  17.478  0.00  0.00    +0.000 C 
ATOM      6  C   UNL     1       1.571   8.311  19.751  0.00  0.00    +0.000 A 
ATOM      7  C   UNL     1       1.086   9.428  20.382  0.00  0.00    +0.000 A 
ATOM      8  C   UNL     1       0.926  10.856  20.049  0.00  0.00    +0.000 C 
ATOM      9  O   UNL     1       0.645   9.065  21.624  0.00  0.00    +0.000 OA
ATOM     10  N   UNL     1       0.848   7.703  21.816  0.00  0.00    +0.000 NA
ATOM     11  C   UNL     1       1.401   7.268  20.676  0.00  0.00    +0.000 A 
ATOM     12  C   UNL     1       1.792   5.905  20.363  0.00  0.00    +0.000 A 
ATOM     13  O   UNL     1       1.727   4.984  21.169  0.00  0.00    +0.000 OA
ENDBRANCH   1   2
BRANCH   1  14
ATOM     14  N   UNL     1       3.990   4.085  18.772  0.00  0.00    +0.000 NA
BRANCH  14  16
ATOM     15  C   UNL     1       2.906   1.827  19.162  0.00  0.00    +0.000 C 
ATOM     16  C   UNL     1       4.123   2.734  19.330  0.00  0.00    +0.000 C 
ENDBRANCH  14  16
BRANCH  14  17
ATOM     17  C   UNL     1       4.922   4.437  17.687  0.00  0.00    +0.000 C 
BRANCH  17  18
ATOM     18  C   UNL     1       6.008   5.472  17.932  0.00  0.00    +0.000 A 
ATOM     19  C   UNL     1       6.954   5.358  18.964  0.00  0.00    +0.000 A 
ATOM     20  C   UNL     1       8.010   6.254  19.108  0.00  0.00    +0.000 A 
ATOM     21  C   UNL     1       8.129   7.324  18.238  0.00  0.00    +0.000 A 
ATOM     22  C   UNL     1       7.175   7.505  17.239  0.00  0.00    +0.000 A 
ATOM     23  C   UNL     1       6.124   6.591  17.086  0.00  0.00    +0.000 A 
ATOM     24 CL   UNL     1       4.993   6.900  15.811  0.00  0.00    +0.000 Cl
ENDBRANCH  17  18
ENDBRANCH  14  17
ENDBRANCH   1  14
TORSDOF 5
ENDMDL
MODEL 9
REMARK VINA RESULT:      -6.7      2.757      5.736
REMARK  Name = 
REMARK  8 active torsions:
REMARK  status: ('A' for Active; 'I' for Inactive)
REMARK    1  A    between atoms: C_1  and  C_2
REMARK    2  A    between atoms: C_2  and  N_3
REMARK    3  A    between atoms: N_3  and  C_4
REMARK    4  A    between atoms: N_3  and  C_12
REMARK    5  A    between atoms: C_4  and  C_5
REMARK    6  A    between atoms: C_12  and  N_13
REMARK    7  A    between atoms: C_15  and  C_16
REMARK    8  A    between atoms: C_18  and  C_19
REMARK                            x       y       z     vdW  Elec       q    Type
REMARK                         _______ _______ _______ _____ _____    ______ ____
ROOT
ATOM      1  C   UNL     1       2.468   4.196  18.557  0.00  0.00    +0.000 C 
ENDROOT
BRANCH   1   2
ATOM      2  N   UNL     1       3.786   4.796  18.381  0.00  0.00    +0.000 N 
ATOM      3  N   UNL     1       3.906   5.687  17.304  0.00  0.00    +0.000 NA
ATOM      4  C   UNL     1       5.014   6.331  17.081  0.00  0.00    +0.000 A 
ATOM      5  C   UNL     1       5.079   7.250  15.900  0.00  0.00    +0.000 C 
ATOM      6  C   UNL     1       6.122   6.140  17.965  0.00  0.00    +0.000 A 
ATOM      7  C   UNL     1       7.379   6.680  18.061  0.00  0.00    +0.000 A 
ATOM      8  C   UNL     1       8.164   7.691  17.328  0.00  0.00    +0.000 C 
ATOM      9  O   UNL     1       8.015   6.106  19.127  0.00  0.00    +0.000 OA
ATOM     10  N   UNL     1       7.176   5.178  19.732  0.00  0.00    +0.000 NA
ATOM     11  C   UNL     1       6.042   5.217  19.021  0.00  0.00    +0.000 A 
ATOM     12  C   UNL     1       4.837   4.441  19.260  0.00  0.00    +0.000 A 
ATOM     13  O   UNL     1       4.754   3.576  20.123  0.00  0.00    +0.000 OA
ENDBRANCH   1   2
BRANCH   1  14
ATOM     14  N   UNL     1       1.620   4.991  19.468  0.00  0.00    +0.000 NA
BRANCH  14  16
ATOM     15  C   UNL     1       1.199   2.654  20.356  0.00  0.00    +0.000 C 
ATOM     16  C   UNL     1       0.905   4.151  20.436  0.00  0.00    +0.000 C 
ENDBRANCH  14  16
BRANCH  14  17
ATOM     17  C   UNL     1       2.265   6.201  20.006  0.00  0.00    +0.000 C 
BRANCH  17  18
ATOM     18  C   UNL     1       1.876   7.567  19.466  0.00  0.00    +0.000 A 
ATOM     19  C   UNL     1       2.000   7.917  18.111  0.00  0.00    +0.000 A 
ATOM     20  C   UNL     1       1.537   9.131  17.610  0.00  0.00    +0.000 A 
ATOM     21  C   UNL     1       0.969  10.057  18.467  0.00  0.00    +0.000 A 
ATOM     22  C   UNL     1       0.885   9.772  19.828  0.00  0.00    +0.000 A 
ATOM     23  C   UNL     1       1.335   8.542  20.326  0.00  0.00    +0.000 A 
ATOM     24 CL   UNL     1       1.182   8.280  22.030  0.00  0.00    +0.000 Cl
ENDBRANCH  17  18
ENDBRANCH  14  17
ENDBRANCH   1  14
TORSDOF 5
ENDMDL
