MODEL 1
REMARK VINA RESULT:      -7.6      0.000      0.000
REMARK  Name = 
REMARK  10 active torsions:
REMARK  status: ('A' for Active; 'I' for Inactive)
REMARK    1  A    between atoms: C_1  and  C_2
REMARK    2  A    between atoms: C_2  and  C_3
REMARK    3  A    between atoms: C_2  and  C_4
REMARK    4  A    between atoms: C_4  and  N_5
REMARK    5  A    between atoms: N_5  and  C_6
REMARK    6  A    between atoms: C_6  and  C_7
REMARK    7  A    between atoms: C_10  and  C_11
REMARK    8  A    between atoms: C_11  and  C_13
REMARK    9  A    between atoms: C_16  and  S_17
REMARK   10  A    between atoms: S_17  and  N_18
REMARK                            x       y       z     vdW  Elec       q    Type
REMARK                         _______ _______ _______ _____ _____    ______ ____
ROOT
ATOM      1  C   UNL     1       0.883   9.827  19.009  0.00  0.00    +0.000 A 
ATOM      2  C   UNL     1       0.880   9.205  20.268  0.00  0.00    +0.000 A 
ATOM      3  C   UNL     1       1.539   7.991  20.447  0.00  0.00    +0.000 A 
ATOM      4  C   UNL     1       2.224   7.398  19.375  0.00  0.00    +0.000 A 
ATOM      5  C   UNL     1       2.266   8.055  18.129  0.00  0.00    +0.000 A 
ATOM      6  C   UNL     1       1.596   9.258  17.952  0.00  0.00    +0.000 A 
ENDROOT
BRANCH   4   7
ATOM      7  C   UNL     1       2.810   6.050  19.535  0.00  0.00    +0.000 C 
ATOM      8  O   UNL     1       2.579   5.411  20.535  0.00  0.00    +0.000 OA
BRANCH   7   9
ATOM      9  C   UNL     1       3.591   5.437  18.452  0.00  0.00    +0.000 A 
ATOM     10  C   UNL     1       3.166   4.320  17.739  0.00  0.00    +0.000 A 
ATOM     11  S   UNL     1       4.370   3.913  16.641  0.00  0.00    +0.000 S 
ATOM     12  C   UNL     1       5.433   5.129  17.103  0.00  0.00    +0.000 A 
ATOM     13  C   UNL     1       4.858   5.896  18.092  0.00  0.00    +0.000 A 
BRANCH  12  14
ATOM     14  S   UNL     1       7.078   5.351  16.475  0.00  0.00    +0.000 S 
ATOM     15  O   UNL     1       7.668   6.725  16.831  0.00  0.00    +0.000 OA
ATOM     16  O   UNL     1       8.090   4.391  17.114  0.00  0.00    +0.000 OA
BRANCH  14  17
ATOM     17  N   UNL     1       7.299   5.177  14.739  0.00  0.00    +0.000 NA
ATOM     18  H   UNL     1       6.923   6.043  14.291  0.00  0.00    +0.000 HD
ATOM     19  H   UNL     1       6.699   4.378  14.435  0.00  0.00    +0.000 HD
ENDBRANCH  14  17
ENDBRANCH  12  14
ENDBRANCH   7   9
ENDBRANCH   4   7
BRANCH   1  20
ATOM     20  C   UNL     1       0.157  11.107  18.777  0.00  0.00    +0.000 C 
BRANCH  20  21
ATOM     21  N   UNL     1      -1.268  10.868  18.606  0.00  0.00    +0.000 NA
ATOM     22  H   UNL     1      -1.620  10.383  19.463  0.00  0.00    +0.000 HD
BRANCH  21  23
ATOM     23  C   UNL     1      -1.533  10.026  17.431  0.00  0.00    +0.000 C 
BRANCH  23  25
ATOM     24  C   UNL     1      -3.577  11.394  17.684  0.00  0.00    +0.000 C 
ATOM     25  C   UNL     1      -3.014  10.112  17.069  0.00  0.00    +0.000 C 
ATOM     26  C   UNL     1      -3.221  10.109  15.548  0.00  0.00    +0.000 C 
ENDBRANCH  23  25
ENDBRANCH  21  23
ENDBRANCH  20  21
ENDBRANCH   1  20
TORSDOF 8
ENDMDL
MODEL 2
REMARK VINA RESULT:      -7.6      0.949      1.312
REMARK  Name = 
REMARK  10 active torsions:
REMARK  status: ('A' for Active; 'I' for Inactive)
REMARK    1  A    between atoms: C_1  and  C_2
REMARK    2  A    between atoms: C_2  and  C_3
REMARK    3  A    between atoms: C_2  and  C_4
REMARK    4  A    between atoms: C_4  and  N_5
REMARK    5  A    between atoms: N_5  and  C_6
REMARK    6  A    between atoms: C_6  and  C_7
REMARK    7  A    between atoms: C_10  and  C_11
REMARK    8  A    between atoms: C_11  and  C_13
REMARK    9  A    between atoms: C_16  and  S_17
REMARK   10  A    between atoms: S_17  and  N_18
REMARK                            x       y       z     vdW  Elec       q    Type
REMARK                         _______ _______ _______ _____ _____    ______ ____
ROOT
ATOM      1  C   UNL     1       1.024   9.781  19.002  0.00  0.00    +0.000 A 
ATOM      2  C   UNL     1       1.013   9.186  20.274  0.00  0.00    +0.000 A 
ATOM      3  C   UNL     1       1.613   7.944  20.466  0.00  0.00    +0.000 A 
ATOM      4  C   UNL     1       2.247   7.295  19.395  0.00  0.00    +0.000 A 
ATOM      5  C   UNL     1       2.299   7.924  18.134  0.00  0.00    +0.000 A 
ATOM      6  C   UNL     1       1.687   9.155  17.944  0.00  0.00    +0.000 A 
ENDROOT
BRANCH   4   7
ATOM      7  C   UNL     1       2.767   5.922  19.572  0.00  0.00    +0.000 C 
ATOM      8  O   UNL     1       2.454   5.286  20.552  0.00  0.00    +0.000 OA
BRANCH   7   9
ATOM      9  C   UNL     1       3.582   5.286  18.529  0.00  0.00    +0.000 A 
ATOM     10  C   UNL     1       3.192   4.137  17.848  0.00  0.00    +0.000 A 
ATOM     11  S   UNL     1       4.425   3.714  16.789  0.00  0.00    +0.000 S 
ATOM     12  C   UNL     1       5.456   4.965  17.229  0.00  0.00    +0.000 A 
ATOM     13  C   UNL     1       4.847   5.756  18.177  0.00  0.00    +0.000 A 
BRANCH  12  14
ATOM     14  S   UNL     1       7.110   5.196  16.627  0.00  0.00    +0.000 S 
ATOM     15  O   UNL     1       8.128   4.280  17.326  0.00  0.00    +0.000 OA
ATOM     16  O   UNL     1       7.266   4.789  15.157  0.00  0.00    +0.000 OA
BRANCH  14  17
ATOM     17  N   UNL     1       7.780   6.819  16.738  0.00  0.00    +0.000 NA
ATOM     18  H   UNL     1       8.310   6.995  15.855  0.00  0.00    +0.000 HD
ATOM     19  H   UNL     1       8.468   6.810  17.524  0.00  0.00    +0.000 HD
ENDBRANCH  14  17
ENDBRANCH  12  14
ENDBRANCH   7   9
ENDBRANCH   4   7
BRANCH   1  20
ATOM     20  C   UNL     1       0.360  11.092  18.756  0.00  0.00    +0.000 C 
BRANCH  20  21
ATOM     21  N   UNL     1      -0.712  10.952  17.781  0.00  0.00    +0.000 NA
ATOM     22  H   UNL     1      -0.317  11.153  16.834  0.00  0.00    +0.000 HD
BRANCH  21  23
ATOM     23  C   UNL     1      -1.811  11.888  18.055  0.00  0.00    +0.000 C 
BRANCH  23  25
ATOM     24  C   UNL     1      -2.952   9.818  17.330  0.00  0.00    +0.000 C 
ATOM     25  C   UNL     1      -3.108  11.333  17.471  0.00  0.00    +0.000 C 
ATOM     26  C   UNL     1      -4.314  11.669  18.359  0.00  0.00    +0.000 C 
ENDBRANCH  23  25
ENDBRANCH  21  23
ENDBRANCH  20  21
ENDBRANCH   1  20
TORSDOF 8
ENDMDL
MODEL 3
REMARK VINA RESULT:      -7.4      1.139      1.620
REMARK  Name = 
REMARK  10 active torsions:
REMARK  status: ('A' for Active; 'I' for Inactive)
REMARK    1  A    between atoms: C_1  and  C_2
REMARK    2  A    between atoms: C_2  and  C_3
REMARK    3  A    between atoms: C_2  and  C_4
REMARK    4  A    between atoms: C_4  and  N_5
REMARK    5  A    between atoms: N_5  and  C_6
REMARK    6  A    between atoms: C_6  and  C_7
REMARK    7  A    between atoms: C_10  and  C_11
REMARK    8  A    between atoms: C_11  and  C_13
REMARK    9  A    between atoms: C_16  and  S_17
REMARK   10  A    between atoms: S_17  and  N_18
REMARK                            x       y       z     vdW  Elec       q    Type
REMARK                         _______ _______ _______ _____ _____    ______ ____
ROOT
ATOM      1  C   UNL     1       1.029   9.835  19.661  0.00  0.00    +0.000 A 
ATOM      2  C   UNL     1       1.594   9.229  18.527  0.00  0.00    +0.000 A 
ATOM      3  C   UNL     1       2.047   7.914  18.594  0.00  0.00    +0.000 A 
ATOM      4  C   UNL     1       1.921   7.186  19.788  0.00  0.00    +0.000 A 
ATOM      5  C   UNL     1       1.304   7.785  20.905  0.00  0.00    +0.000 A 
ATOM      6  C   UNL     1       0.867   9.100  20.838  0.00  0.00    +0.000 A 
ENDROOT
BRANCH   4   7
ATOM      7  C   UNL     1       2.521   5.838  19.892  0.00  0.00    +0.000 C 
ATOM      8  O   UNL     1       2.202   5.110  20.803  0.00  0.00    +0.000 OA
BRANCH   7   9
ATOM      9  C   UNL     1       3.429   5.337  18.852  0.00  0.00    +0.000 A 
ATOM     10  C   UNL     1       3.057   4.389  17.903  0.00  0.00    +0.000 A 
ATOM     11  S   UNL     1       4.395   4.055  16.946  0.00  0.00    +0.000 S 
ATOM     12  C   UNL     1       5.443   5.083  17.763  0.00  0.00    +0.000 A 
ATOM     13  C   UNL     1       4.764   5.733  18.769  0.00  0.00    +0.000 A 
BRANCH  12  14
ATOM     14  S   UNL     1       7.180   5.254  17.437  0.00  0.00    +0.000 S 
ATOM     15  O   UNL     1       8.049   4.896  18.654  0.00  0.00    +0.000 OA
ATOM     16  O   UNL     1       7.683   4.265  16.379  0.00  0.00    +0.000 OA
BRANCH  14  17
ATOM     17  N   UNL     1       7.739   6.835  16.906  0.00  0.00    +0.000 NA
ATOM     18  H   UNL     1       6.929   7.491  16.980  0.00  0.00    +0.000 HD
ATOM     19  H   UNL     1       7.983   6.746  15.894  0.00  0.00    +0.000 HD
ENDBRANCH  14  17
ENDBRANCH  12  14
ENDBRANCH   7   9
ENDBRANCH   4   7
BRANCH   1  20
ATOM     20  C   UNL     1       0.567  11.251  19.632  0.00  0.00    +0.000 C 
BRANCH  20  21
ATOM     21  N   UNL     1       0.266  11.667  18.270  0.00  0.00    +0.000 NA
ATOM     22  H   UNL     1       0.899  12.463  18.027  0.00  0.00    +0.000 HD
BRANCH  21  23
ATOM     23  C   UNL     1      -1.131  12.103  18.139  0.00  0.00    +0.000 C 
BRANCH  23  25
ATOM     24  C   UNL     1      -3.497  11.407  18.316  0.00  0.00    +0.000 C 
ATOM     25  C   UNL     1      -2.055  10.897  18.286  0.00  0.00    +0.000 C 
ATOM     26  C   UNL     1      -1.862   9.897  17.137  0.00  0.00    +0.000 C 
ENDBRANCH  23  25
ENDBRANCH  21  23
ENDBRANCH  20  21
ENDBRANCH   1  20
TORSDOF 8
ENDMDL
MODEL 4
REMARK VINA RESULT:      -7.3      3.976      8.357
REMARK  Name = 
REMARK  10 active torsions:
REMARK  status: ('A' for Active; 'I' for Inactive)
REMARK    1  A    between atoms: C_1  and  C_2
REMARK    2  A    between atoms: C_2  and  C_3
REMARK    3  A    between atoms: C_2  and  C_4
REMARK    4  A    between atoms: C_4  and  N_5
REMARK    5  A    between atoms: N_5  and  C_6
REMARK    6  A    between atoms: C_6  and  C_7
REMARK    7  A    between atoms: C_10  and  C_11
REMARK    8  A    between atoms: C_11  and  C_13
REMARK    9  A    between atoms: C_16  and  S_17
REMARK   10  A    between atoms: S_17  and  N_18
REMARK                            x       y       z     vdW  Elec       q    Type
REMARK                         _______ _______ _______ _____ _____    ______ ____
ROOT
ATOM      1  C   UNL     1       5.894   5.070  15.581  0.00  0.00    +0.000 A 
ATOM      2  C   UNL     1       6.124   6.151  16.447  0.00  0.00    +0.000 A 
ATOM      3  C   UNL     1       5.349   6.300  17.595  0.00  0.00    +0.000 A 
ATOM      4  C   UNL     1       4.352   5.359  17.898  0.00  0.00    +0.000 A 
ATOM      5  C   UNL     1       4.165   4.248  17.050  0.00  0.00    +0.000 A 
ATOM      6  C   UNL     1       4.930   4.113  15.900  0.00  0.00    +0.000 A 
ENDROOT
BRANCH   4   7
ATOM      7  C   UNL     1       3.448   5.592  19.045  0.00  0.00    +0.000 C 
ATOM      8  O   UNL     1       3.431   4.806  19.963  0.00  0.00    +0.000 OA
BRANCH   7   9
ATOM      9  C   UNL     1       2.637   6.814  19.126  0.00  0.00    +0.000 A 
ATOM     10  C   UNL     1       2.577   7.762  18.108  0.00  0.00    +0.000 A 
ATOM     11  S   UNL     1       1.591   9.019  18.622  0.00  0.00    +0.000 S 
ATOM     12  C   UNL     1       1.280   8.374  20.142  0.00  0.00    +0.000 A 
ATOM     13  C   UNL     1       1.905   7.153  20.263  0.00  0.00    +0.000 A 
BRANCH  12  14
ATOM     14  S   UNL     1       0.355   9.172  21.430  0.00  0.00    +0.000 S 
ATOM     15  O   UNL     1      -0.413  10.406  20.929  0.00  0.00    +0.000 OA
ATOM     16  O   UNL     1      -0.773   8.291  21.981  0.00  0.00    +0.000 OA
BRANCH  14  17
ATOM     17  N   UNL     1       1.256   9.716  22.839  0.00  0.00    +0.000 NA
ATOM     18  H   UNL     1       0.628  10.351  23.381  0.00  0.00    +0.000 HD
ATOM     19  H   UNL     1       2.056  10.287  22.486  0.00  0.00    +0.000 HD
ENDBRANCH  14  17
ENDBRANCH  12  14
ENDBRANCH   7   9
ENDBRANCH   4   7
BRANCH   1  20
ATOM     20  C   UNL     1       6.682   4.903  14.328  0.00  0.00    +0.000 C 
BRANCH  20  21
ATOM     21  N   UNL     1       6.502   3.566  13.781  0.00  0.00    +0.000 NA
ATOM     22  H   UNL     1       7.363   3.011  13.993  0.00  0.00    +0.000 HD
BRANCH  21  23
ATOM     23  C   UNL     1       6.299   3.605  12.326  0.00  0.00    +0.000 C 
BRANCH  23  25
ATOM     24  C   UNL     1       4.190   3.196  11.102  0.00  0.00    +0.000 C 
ATOM     25  C   UNL     1       5.292   2.529  11.926  0.00  0.00    +0.000 C 
ATOM     26  C   UNL     1       5.961   1.406  11.120  0.00  0.00    +0.000 C 
ENDBRANCH  23  25
ENDBRANCH  21  23
ENDBRANCH  20  21
ENDBRANCH   1  20
TORSDOF 8
ENDMDL
MODEL 5
REMARK VINA RESULT:      -7.3      2.097      2.926
REMARK  Name = 
REMARK  10 active torsions:
REMARK  status: ('A' for Active; 'I' for Inactive)
REMARK    1  A    between atoms: C_1  and  C_2
REMARK    2  A    between atoms: C_2  and  C_3
REMARK    3  A    between atoms: C_2  and  C_4
REMARK    4  A    between atoms: C_4  and  N_5
REMARK    5  A    between atoms: N_5  and  C_6
REMARK    6  A    between atoms: C_6  and  C_7
REMARK    7  A    between atoms: C_10  and  C_11
REMARK    8  A    between atoms: C_11  and  C_13
REMARK    9  A    between atoms: C_16  and  S_17
REMARK   10  A    between atoms: S_17  and  N_18
REMARK                            x       y       z     vdW  Elec       q    Type
REMARK                         _______ _______ _______ _____ _____    ______ ____
ROOT
ATOM      1  C   UNL     1       1.135   9.842  19.372  0.00  0.00    +0.000 A 
ATOM      2  C   UNL     1       1.659   9.211  18.233  0.00  0.00    +0.000 A 
ATOM      3  C   UNL     1       2.135   7.904  18.319  0.00  0.00    +0.000 A 
ATOM      4  C   UNL     1       2.072   7.211  19.537  0.00  0.00    +0.000 A 
ATOM      5  C   UNL     1       1.496   7.834  20.663  0.00  0.00    +0.000 A 
ATOM      6  C   UNL     1       1.036   9.141  20.576  0.00  0.00    +0.000 A 
ENDROOT
BRANCH   4   7
ATOM      7  C   UNL     1       2.697   5.875  19.655  0.00  0.00    +0.000 C 
ATOM      8  O   UNL     1       2.485   5.199  20.634  0.00  0.00    +0.000 OA
BRANCH   7   9
ATOM      9  C   UNL     1       3.497   5.321  18.555  0.00  0.00    +0.000 A 
ATOM     10  C   UNL     1       3.020   4.355  17.673  0.00  0.00    +0.000 A 
ATOM     11  S   UNL     1       4.260   3.959  16.613  0.00  0.00    +0.000 S 
ATOM     12  C   UNL     1       5.400   4.983  17.301  0.00  0.00    +0.000 A 
ATOM     13  C   UNL     1       4.828   5.679  18.343  0.00  0.00    +0.000 A 
BRANCH  12  14
ATOM     14  S   UNL     1       7.104   5.100  16.818  0.00  0.00    +0.000 S 
ATOM     15  O   UNL     1       7.333   4.700  15.351  0.00  0.00    +0.000 OA
ATOM     16  O   UNL     1       7.630   6.540  16.847  0.00  0.00    +0.000 OA
BRANCH  14  17
ATOM     17  N   UNL     1       8.263   4.159  17.750  0.00  0.00    +0.000 NA
ATOM     18  H   UNL     1       9.191   4.260  17.280  0.00  0.00    +0.000 HD
ATOM     19  H   UNL     1       7.974   3.158  17.671  0.00  0.00    +0.000 HD
ENDBRANCH  14  17
ENDBRANCH  12  14
ENDBRANCH   7   9
ENDBRANCH   4   7
BRANCH   1  20
ATOM     20  C   UNL     1       0.650  11.250  19.322  0.00  0.00    +0.000 C 
BRANCH  20  21
ATOM     21  N   UNL     1      -0.428  11.458  20.277  0.00  0.00    +0.000 NA
ATOM     22  H   UNL     1      -1.224  11.913  19.773  0.00  0.00    +0.000 HD
BRANCH  21  23
ATOM     23  C   UNL     1      -0.002  12.322  21.387  0.00  0.00    +0.000 C 
BRANCH  23  25
ATOM     24  C   UNL     1      -2.364  12.623  22.051  0.00  0.00    +0.000 C 
ATOM     25  C   UNL     1      -0.986  12.183  22.545  0.00  0.00    +0.000 C 
ATOM     26  C   UNL     1      -1.038  10.740  23.068  0.00  0.00    +0.000 C 
ENDBRANCH  23  25
ENDBRANCH  21  23
ENDBRANCH  20  21
ENDBRANCH   1  20
TORSDOF 8
ENDMDL
MODEL 6
REMARK VINA RESULT:      -7.2      1.989      2.773
REMARK  Name = 
REMARK  10 active torsions:
REMARK  status: ('A' for Active; 'I' for Inactive)
REMARK    1  A    between atoms: C_1  and  C_2
REMARK    2  A    between atoms: C_2  and  C_3
REMARK    3  A    between atoms: C_2  and  C_4
REMARK    4  A    between atoms: C_4  and  N_5
REMARK    5  A    between atoms: N_5  and  C_6
REMARK    6  A    between atoms: C_6  and  C_7
REMARK    7  A    between atoms: C_10  and  C_11
REMARK    8  A    between atoms: C_11  and  C_13
REMARK    9  A    between atoms: C_16  and  S_17
REMARK   10  A    between atoms: S_17  and  N_18
REMARK                            x       y       z     vdW  Elec       q    Type
REMARK                         _______ _______ _______ _____ _____    ______ ____
ROOT
ATOM      1  C   UNL     1       0.890   9.847  19.480  0.00  0.00    +0.000 A 
ATOM      2  C   UNL     1       0.975   9.124  20.680  0.00  0.00    +0.000 A 
ATOM      3  C   UNL     1       1.574   7.866  20.694  0.00  0.00    +0.000 A 
ATOM      4  C   UNL     1       2.110   7.329  19.513  0.00  0.00    +0.000 A 
ATOM      5  C   UNL     1       2.067   8.085  18.324  0.00  0.00    +0.000 A 
ATOM      6  C   UNL     1       1.457   9.331  18.313  0.00  0.00    +0.000 A 
ENDROOT
BRANCH   4   7
ATOM      7  C   UNL     1       2.626   5.943  19.506  0.00  0.00    +0.000 C 
ATOM      8  O   UNL     1       2.307   5.181  20.389  0.00  0.00    +0.000 OA
BRANCH   7   9
ATOM      9  C   UNL     1       3.444   5.452  18.389  0.00  0.00    +0.000 A 
ATOM     10  C   UNL     1       2.980   4.542  17.443  0.00  0.00    +0.000 A 
ATOM     11  S   UNL     1       4.238   4.205  16.383  0.00  0.00    +0.000 S 
ATOM     12  C   UNL     1       5.368   5.182  17.152  0.00  0.00    +0.000 A 
ATOM     13  C   UNL     1       4.779   5.817  18.222  0.00  0.00    +0.000 A 
BRANCH  12  14
ATOM     14  S   UNL     1       7.081   5.320  16.707  0.00  0.00    +0.000 S 
ATOM     15  O   UNL     1       7.316   5.155  15.197  0.00  0.00    +0.000 OA
ATOM     16  O   UNL     1       7.649   6.720  16.970  0.00  0.00    +0.000 OA
BRANCH  14  17
ATOM     17  N   UNL     1       8.199   4.207  17.484  0.00  0.00    +0.000 NA
ATOM     18  H   UNL     1       7.791   3.958  18.414  0.00  0.00    +0.000 HD
ATOM     19  H   UNL     1       9.083   4.736  17.657  0.00  0.00    +0.000 HD
ENDBRANCH  14  17
ENDBRANCH  12  14
ENDBRANCH   7   9
ENDBRANCH   4   7
BRANCH   1  20
ATOM     20  C   UNL     1       0.224  11.179  19.425  0.00  0.00    +0.000 C 
BRANCH  20  21
ATOM     21  N   UNL     1      -0.797  11.287  20.456  0.00  0.00    +0.000 NA
ATOM     22  H   UNL     1      -1.692  11.573  19.997  0.00  0.00    +0.000 HD
BRANCH  21  23
ATOM     23  C   UNL     1      -0.432  12.288  21.468  0.00  0.00    +0.000 C 
BRANCH  23  25
ATOM     24  C   UNL     1      -2.625  12.347  22.608  0.00  0.00    +0.000 C 
ATOM     25  C   UNL     1      -1.152  11.972  22.777  0.00  0.00    +0.000 C 
ATOM     26  C   UNL     1      -1.014  10.489  23.150  0.00  0.00    +0.000 C 
ENDBRANCH  23  25
ENDBRANCH  21  23
ENDBRANCH  20  21
ENDBRANCH   1  20
TORSDOF 8
ENDMDL
MODEL 7
REMARK VINA RESULT:      -7.2      1.818      2.520
REMARK  Name = 
REMARK  10 active torsions:
REMARK  status: ('A' for Active; 'I' for Inactive)
REMARK    1  A    between atoms: C_1  and  C_2
REMARK    2  A    between atoms: C_2  and  C_3
REMARK    3  A    between atoms: C_2  and  C_4
REMARK    4  A    between atoms: C_4  and  N_5
REMARK    5  A    between atoms: N_5  and  C_6
REMARK    6  A    between atoms: C_6  and  C_7
REMARK    7  A    between atoms: C_10  and  C_11
REMARK    8  A    between atoms: C_11  and  C_13
REMARK    9  A    between atoms: C_16  and  S_17
REMARK   10  A    between atoms: S_17  and  N_18
REMARK                            x       y       z     vdW  Elec       q    Type
REMARK                         _______ _______ _______ _____ _____    ______ ____
ROOT
ATOM      1  C   UNL     1       0.864   9.601  19.629  0.00  0.00    +0.000 A 
ATOM      2  C   UNL     1       0.916   8.853  20.817  0.00  0.00    +0.000 A 
ATOM      3  C   UNL     1       1.594   7.637  20.845  0.00  0.00    +0.000 A 
ATOM      4  C   UNL     1       2.243   7.167  19.692  0.00  0.00    +0.000 A 
ATOM      5  C   UNL     1       2.231   7.949  18.520  0.00  0.00    +0.000 A 
ATOM      6  C   UNL     1       1.542   9.153  18.493  0.00  0.00    +0.000 A 
ENDROOT
BRANCH   4   7
ATOM      7  C   UNL     1       2.848   5.817  19.690  0.00  0.00    +0.000 C 
ATOM      8  O   UNL     1       2.662   5.076  20.627  0.00  0.00    +0.000 OA
BRANCH   7   9
ATOM      9  C   UNL     1       3.595   5.330  18.522  0.00  0.00    +0.000 A 
ATOM     10  C   UNL     1       3.108   4.358  17.654  0.00  0.00    +0.000 A 
ATOM     11  S   UNL     1       4.287   4.053  16.498  0.00  0.00    +0.000 S 
ATOM     12  C   UNL     1       5.417   5.125  17.129  0.00  0.00    +0.000 A 
ATOM     13  C   UNL     1       4.885   5.766  18.225  0.00  0.00    +0.000 A 
BRANCH  12  14
ATOM     14  S   UNL     1       7.073   5.345  16.528  0.00  0.00    +0.000 S 
ATOM     15  O   UNL     1       7.644   6.733  16.863  0.00  0.00    +0.000 OA
ATOM     16  O   UNL     1       8.079   4.409  17.208  0.00  0.00    +0.000 OA
BRANCH  14  17
ATOM     17  N   UNL     1       7.329   5.133  14.800  0.00  0.00    +0.000 NA
ATOM     18  H   UNL     1       7.527   4.120  14.640  0.00  0.00    +0.000 HD
ATOM     19  H   UNL     1       8.192   5.668  14.554  0.00  0.00    +0.000 HD
ENDBRANCH  14  17
ENDBRANCH  12  14
ENDBRANCH   7   9
ENDBRANCH   4   7
BRANCH   1  20
ATOM     20  C   UNL     1       0.118  10.888  19.557  0.00  0.00    +0.000 C 
BRANCH  20  21
ATOM     21  N   UNL     1       0.478  11.626  18.355  0.00  0.00    +0.000 NA
ATOM     22  H   UNL     1       1.511  11.535  18.217  0.00  0.00    +0.000 HD
BRANCH  21  23
ATOM     23  C   UNL     1       0.130  13.049  18.476  0.00  0.00    +0.000 C 
BRANCH  23  25
ATOM     24  C   UNL     1       1.515  14.363  20.047  0.00  0.00    +0.000 C 
ATOM     25  C   UNL     1       1.408  13.874  18.602  0.00  0.00    +0.000 C 
ATOM     26  C   UNL     1       2.648  13.053  18.220  0.00  0.00    +0.000 C 
ENDBRANCH  23  25
ENDBRANCH  21  23
ENDBRANCH  20  21
ENDBRANCH   1  20
TORSDOF 8
ENDMDL
MODEL 8
REMARK VINA RESULT:      -7.2      1.292      1.494
REMARK  Name = 
REMARK  10 active torsions:
REMARK  status: ('A' for Active; 'I' for Inactive)
REMARK    1  A    between atoms: C_1  and  C_2
REMARK    2  A    between atoms: C_2  and  C_3
REMARK    3  A    between atoms: C_2  and  C_4
REMARK    4  A    between atoms: C_4  and  N_5
REMARK    5  A    between atoms: N_5  and  C_6
REMARK    6  A    between atoms: C_6  and  C_7
REMARK    7  A    between atoms: C_10  and  C_11
REMARK    8  A    between atoms: C_11  and  C_13
REMARK    9  A    between atoms: C_16  and  S_17
REMARK   10  A    between atoms: S_17  and  N_18
REMARK                            x       y       z     vdW  Elec       q    Type
REMARK                         _______ _______ _______ _____ _____    ______ ____
ROOT
ATOM      1  C   UNL     1       1.085   9.735  19.311  0.00  0.00    +0.000 A 
ATOM      2  C   UNL     1       1.110   8.950  20.474  0.00  0.00    +0.000 A 
ATOM      3  C   UNL     1       1.663   7.672  20.440  0.00  0.00    +0.000 A 
ATOM      4  C   UNL     1       2.216   7.177  19.248  0.00  0.00    +0.000 A 
ATOM      5  C   UNL     1       2.235   7.993  18.099  0.00  0.00    +0.000 A 
ATOM      6  C   UNL     1       1.669   9.259  18.135  0.00  0.00    +0.000 A 
ENDROOT
BRANCH   4   7
ATOM      7  C   UNL     1       2.683   5.775  19.183  0.00  0.00    +0.000 C 
ATOM      8  O   UNL     1       1.939   4.880  19.511  0.00  0.00    +0.000 OA
BRANCH   7   9
ATOM      9  C   UNL     1       4.006   5.448  18.635  0.00  0.00    +0.000 A 
ATOM     10  C   UNL     1       5.139   5.275  19.424  0.00  0.00    +0.000 A 
ATOM     11  S   UNL     1       6.441   4.972  18.408  0.00  0.00    +0.000 S 
ATOM     12  C   UNL     1       5.568   5.101  16.979  0.00  0.00    +0.000 A 
ATOM     13  C   UNL     1       4.243   5.343  17.265  0.00  0.00    +0.000 A 
BRANCH  12  14
ATOM     14  S   UNL     1       6.254   5.017  15.343  0.00  0.00    +0.000 S 
ATOM     15  O   UNL     1       5.554   5.968  14.358  0.00  0.00    +0.000 OA
ATOM     16  O   UNL     1       7.707   5.504  15.285  0.00  0.00    +0.000 OA
BRANCH  14  17
ATOM     17  N   UNL     1       6.255   3.442  14.559  0.00  0.00    +0.000 NA
ATOM     18  H   UNL     1       7.026   3.449  13.853  0.00  0.00    +0.000 HD
ATOM     19  H   UNL     1       5.352   3.361  14.041  0.00  0.00    +0.000 HD
ENDBRANCH  14  17
ENDBRANCH  12  14
ENDBRANCH   7   9
ENDBRANCH   4   7
BRANCH   1  20
ATOM     20  C   UNL     1       0.469  11.092  19.307  0.00  0.00    +0.000 C 
BRANCH  20  21
ATOM     21  N   UNL     1      -0.396  11.261  18.148  0.00  0.00    +0.000 NA
ATOM     22  H   UNL     1      -0.374  12.269  17.871  0.00  0.00    +0.000 HD
BRANCH  21  23
ATOM     23  C   UNL     1      -1.781  10.875  18.453  0.00  0.00    +0.000 C 
BRANCH  23  25
ATOM     24  C   UNL     1      -3.679   9.461  17.739  0.00  0.00    +0.000 C 
ATOM     25  C   UNL     1      -2.353  10.074  17.286  0.00  0.00    +0.000 C 
ATOM     26  C   UNL     1      -2.564  10.957  16.048  0.00  0.00    +0.000 C 
ENDBRANCH  23  25
ENDBRANCH  21  23
ENDBRANCH  20  21
ENDBRANCH   1  20
TORSDOF 8
ENDMDL
MODEL 9
REMARK VINA RESULT:      -7.1      1.550      2.386
REMARK  Name = 
REMARK  10 active torsions:
REMARK  status: ('A' for Active; 'I' for Inactive)
REMARK    1  A    between atoms: C_1  and  C_2
REMARK    2  A    between atoms: C_2  and  C_3
REMARK    3  A    between atoms: C_2  and  C_4
REMARK    4  A    between atoms: C_4  and  N_5
REMARK    5  A    between atoms: N_5  and  C_6
REMARK    6  A    between atoms: C_6  and  C_7
REMARK    7  A    between atoms: C_10  and  C_11
REMARK    8  A    between atoms: C_11  and  C_13
REMARK    9  A    between atoms: C_16  and  S_17
REMARK   10  A    between atoms: S_17  and  N_18
REMARK                            x       y       z     vdW  Elec       q    Type
REMARK                         _______ _______ _______ _____ _____    ______ ____
ROOT
ATOM      1  C   UNL     1       1.255   9.895  19.013  0.00  0.00    +0.000 A 
ATOM      2  C   UNL     1       1.770   9.173  17.924  0.00  0.00    +0.000 A 
ATOM      3  C   UNL     1       2.218   7.866  18.105  0.00  0.00    +0.000 A 
ATOM      4  C   UNL     1       2.136   7.263  19.369  0.00  0.00    +0.000 A 
ATOM      5  C   UNL     1       1.569   7.977  20.445  0.00  0.00    +0.000 A 
ATOM      6  C   UNL     1       1.138   9.283  20.263  0.00  0.00    +0.000 A 
ENDROOT
BRANCH   4   7
ATOM      7  C   UNL     1       2.732   5.926  19.585  0.00  0.00    +0.000 C 
ATOM      8  O   UNL     1       2.477   5.313  20.595  0.00  0.00    +0.000 OA
BRANCH   7   9
ATOM      9  C   UNL     1       3.554   5.294  18.545  0.00  0.00    +0.000 A 
ATOM     10  C   UNL     1       3.174   4.140  17.865  0.00  0.00    +0.000 A 
ATOM     11  S   UNL     1       4.413   3.723  16.811  0.00  0.00    +0.000 S 
ATOM     12  C   UNL     1       5.434   4.983  17.251  0.00  0.00    +0.000 A 
ATOM     13  C   UNL     1       4.817   5.772  18.196  0.00  0.00    +0.000 A 
BRANCH  12  14
ATOM     14  S   UNL     1       7.088   5.224  16.653  0.00  0.00    +0.000 S 
ATOM     15  O   UNL     1       8.119   4.358  17.395  0.00  0.00    +0.000 OA
ATOM     16  O   UNL     1       7.265   4.763  15.201  0.00  0.00    +0.000 OA
BRANCH  14  17
ATOM     17  N   UNL     1       7.724   6.864  16.704  0.00  0.00    +0.000 NA
ATOM     18  H   UNL     1       6.983   7.469  17.125  0.00  0.00    +0.000 HD
ATOM     19  H   UNL     1       7.858   7.168  15.714  0.00  0.00    +0.000 HD
ENDBRANCH  14  17
ENDBRANCH  12  14
ENDBRANCH   7   9
ENDBRANCH   4   7
BRANCH   1  20
ATOM     20  C   UNL     1       0.801  11.306  18.860  0.00  0.00    +0.000 C 
BRANCH  20  21
ATOM     21  N   UNL     1      -0.526  11.358  18.266  0.00  0.00    +0.000 NA
ATOM     22  H   UNL     1      -0.555  12.171  17.609  0.00  0.00    +0.000 HD
BRANCH  21  23
ATOM     23  C   UNL     1      -1.566  11.528  19.291  0.00  0.00    +0.000 C 
BRANCH  23  25
ATOM     24  C   UNL     1      -1.592  13.788  20.291  0.00  0.00    +0.000 C 
ATOM     25  C   UNL     1      -1.017  12.378  20.434  0.00  0.00    +0.000 C 
ATOM     26  C   UNL     1      -1.383  11.784  21.802  0.00  0.00    +0.000 C 
ENDBRANCH  23  25
ENDBRANCH  21  23
ENDBRANCH  20  21
ENDBRANCH   1  20
TORSDOF 8
ENDMDL
