MODEL 1
REMARK VINA RESULT:      -6.4      0.000      0.000
REMARK  Name = 
REMARK  15 active torsions:
REMARK  status: ('A' for Active; 'I' for Inactive)
REMARK    1  A    between atoms: C_1  and  N_2
REMARK    2  A    between atoms: N_2  and  C_3
REMARK    3  A    between atoms: C_3  and  C_4
REMARK    4  A    between atoms: C_4  and  O_5
REMARK    5  A    between atoms: C_6  and  C_8
REMARK    6  A    between atoms: C_8  and  C_9
REMARK    7  A    between atoms: C_9  and  C_10
REMARK    8  A    between atoms: C_10  and  O_11
REMARK    9  A    between atoms: O_11  and  C_12
REMARK   10  A    between atoms: C_17  and  C_18
REMARK   11  A    between atoms: C_18  and  N_19
REMARK   12  A    between atoms: N_19  and  C_20
REMARK   13  A    between atoms: C_20  and  C_21
REMARK   14  A    between atoms: C_21  and  O_22
REMARK   15  A    between atoms: C_21  and  C_23
REMARK                            x       y       z     vdW  Elec       q    Type
REMARK                         _______ _______ _______ _____ _____    ______ ____
ROOT
ATOM      1  C   UNL     1       3.371   3.942  19.771  0.00  0.00    +0.000 A 
ATOM      2  C   UNL     1       3.545   3.141  20.910  0.00  0.00    +0.000 A 
ATOM      3  C   UNL     1       2.456   2.686  21.652  0.00  0.00    +0.000 A 
ATOM      4  C   UNL     1       1.168   3.052  21.281  0.00  0.00    +0.000 A 
ATOM      5  C   UNL     1       0.979   3.897  20.192  0.00  0.00    +0.000 A 
ATOM      6  C   UNL     1       2.067   4.377  19.431  0.00  0.00    +0.000 A 
ENDROOT
BRANCH   1   7
ATOM      7  O   UNL     1       4.401   4.292  18.929  0.00  0.00    +0.000 OA
BRANCH   7   8
ATOM      8  C   UNL     1       4.801   3.332  17.938  0.00  0.00    +0.000 C 
BRANCH   8   9
ATOM      9  C   UNL     1       4.450   3.820  16.534  0.00  0.00    +0.000 C 
BRANCH   9  10
ATOM     10  C   UNL     1       5.670   4.454  15.866  0.00  0.00    +0.000 C 
BRANCH  10  13
ATOM     11  C   UNL     1       7.170   7.606  17.401  0.00  0.00    +0.000 C 
ATOM     12  N   UNL     1       6.938   6.206  17.081  0.00  0.00    +0.000 N 
ATOM     13  C   UNL     1       5.869   5.915  16.236  0.00  0.00    +0.000 C 
ATOM     14  O   UNL     1       5.125   6.797  15.804  0.00  0.00    +0.000 OA
BRANCH  12  15
ATOM     15  C   UNL     1       7.752   5.204  17.791  0.00  0.00    +0.000 C 
BRANCH  15  16
ATOM     16  C   UNL     1       7.960   5.535  19.274  0.00  0.00    +0.000 C 
BRANCH  16  17
ATOM     17  O   UNL     1       6.740   5.426  19.999  0.00  0.00    +0.000 OA
ATOM     18  H   UNL     1       6.097   5.001  19.400  0.00  0.00    +0.000 HD
ENDBRANCH  16  17
ENDBRANCH  15  16
ENDBRANCH  12  15
ENDBRANCH  10  13
ENDBRANCH   9  10
ENDBRANCH   8   9
ENDBRANCH   7   8
ENDBRANCH   1   7
BRANCH   6  19
ATOM     19  C   UNL     1       1.772   5.284  18.245  0.00  0.00    +0.000 C 
BRANCH  19  20
ATOM     20  N   UNL     1       2.637   6.480  18.209  0.00  0.00    +0.000 NA
ATOM     21  H   UNL     1       3.600   6.208  18.398  0.00  0.00    +0.000 HD
BRANCH  20  22
ATOM     22  C   UNL     1       2.214   7.486  19.210  0.00  0.00    +0.000 C 
BRANCH  22  23
ATOM     23  C   UNL     1       2.176   8.922  18.617  0.00  0.00    +0.000 C 
BRANCH  23  24
ATOM     24  C   UNL     1       0.910   9.658  18.976  0.00  0.00    +0.000 A 
ATOM     25  C   UNL     1      -0.139  10.035  18.153  0.00  0.00    +0.000 A 
ATOM     26  C   UNL     1      -1.125  10.773  18.851  0.00  0.00    +0.000 A 
ATOM     27 BR   UNL     1      -2.657  11.458  17.990  0.00  0.00    +0.000 Br
ATOM     28  C   UNL     1      -0.836  10.941  20.180  0.00  0.00    +0.000 A 
ATOM     29  S   UNL     1       0.643  10.182  20.594  0.00  0.00    +0.000 S 
ENDBRANCH  23  24
BRANCH  23  30
ATOM     30  O   UNL     1       2.225   8.904  17.189  0.00  0.00    +0.000 OA
ATOM     31  H   UNL     1       3.017   8.388  16.945  0.00  0.00    +0.000 HD
ENDBRANCH  23  30
ENDBRANCH  22  23
ENDBRANCH  20  22
ENDBRANCH  19  20
ENDBRANCH   6  19
TORSDOF 14
ENDMDL
MODEL 2
REMARK VINA RESULT:      -6.3      1.596      1.850
REMARK  Name = 
REMARK  15 active torsions:
REMARK  status: ('A' for Active; 'I' for Inactive)
REMARK    1  A    between atoms: C_1  and  N_2
REMARK    2  A    between atoms: N_2  and  C_3
REMARK    3  A    between atoms: C_3  and  C_4
REMARK    4  A    between atoms: C_4  and  O_5
REMARK    5  A    between atoms: C_6  and  C_8
REMARK    6  A    between atoms: C_8  and  C_9
REMARK    7  A    between atoms: C_9  and  C_10
REMARK    8  A    between atoms: C_10  and  O_11
REMARK    9  A    between atoms: O_11  and  C_12
REMARK   10  A    between atoms: C_17  and  C_18
REMARK   11  A    between atoms: C_18  and  N_19
REMARK   12  A    between atoms: N_19  and  C_20
REMARK   13  A    between atoms: C_20  and  C_21
REMARK   14  A    between atoms: C_21  and  O_22
REMARK   15  A    between atoms: C_21  and  C_23
REMARK                            x       y       z     vdW  Elec       q    Type
REMARK                         _______ _______ _______ _____ _____    ______ ____
ROOT
ATOM      1  C   UNL     1       2.144   4.128  18.740  0.00  0.00    +0.000 A 
ATOM      2  C   UNL     1       1.536   2.901  19.045  0.00  0.00    +0.000 A 
ATOM      3  C   UNL     1       1.184   2.569  20.352  0.00  0.00    +0.000 A 
ATOM      4  C   UNL     1       1.464   3.453  21.387  0.00  0.00    +0.000 A 
ATOM      5  C   UNL     1       2.123   4.648  21.113  0.00  0.00    +0.000 A 
ATOM      6  C   UNL     1       2.497   5.001  19.797  0.00  0.00    +0.000 A 
ENDROOT
BRANCH   1   7
ATOM      7  O   UNL     1       2.375   4.558  17.453  0.00  0.00    +0.000 OA
BRANCH   7   8
ATOM      8  C   UNL     1       3.330   3.823  16.672  0.00  0.00    +0.000 C 
BRANCH   8   9
ATOM      9  C   UNL     1       4.741   4.001  17.228  0.00  0.00    +0.000 C 
BRANCH   9  10
ATOM     10  C   UNL     1       5.683   4.527  16.144  0.00  0.00    +0.000 C 
BRANCH  10  13
ATOM     11  C   UNL     1       7.404   7.706  17.358  0.00  0.00    +0.000 C 
ATOM     12  N   UNL     1       7.027   6.307  17.230  0.00  0.00    +0.000 N 
ATOM     13  C   UNL     1       6.029   5.999  16.309  0.00  0.00    +0.000 C 
ATOM     14  O   UNL     1       5.459   6.872  15.653  0.00  0.00    +0.000 OA
BRANCH  12  15
ATOM     15  C   UNL     1       7.621   5.354  18.185  0.00  0.00    +0.000 C 
BRANCH  15  16
ATOM     16  C   UNL     1       7.042   5.476  19.599  0.00  0.00    +0.000 C 
BRANCH  16  17
ATOM     17  O   UNL     1       8.069   5.404  20.582  0.00  0.00    +0.000 OA
ATOM     18  H   UNL     1       8.023   4.508  20.966  0.00  0.00    +0.000 HD
ENDBRANCH  16  17
ENDBRANCH  15  16
ENDBRANCH  12  15
ENDBRANCH  10  13
ENDBRANCH   9  10
ENDBRANCH   8   9
ENDBRANCH   7   8
ENDBRANCH   1   7
BRANCH   6  19
ATOM     19  C   UNL     1       3.199   6.334  19.583  0.00  0.00    +0.000 C 
BRANCH  19  20
ATOM     20  N   UNL     1       2.410   7.270  18.757  0.00  0.00    +0.000 NA
ATOM     21  H   UNL     1       3.026   7.747  18.101  0.00  0.00    +0.000 HD
BRANCH  20  22
ATOM     22  C   UNL     1       1.720   8.281  19.592  0.00  0.00    +0.000 C 
BRANCH  22  23
ATOM     23  C   UNL     1       1.554   9.637  18.853  0.00  0.00    +0.000 C 
BRANCH  23  24
ATOM     24  C   UNL     1       0.938  10.697  19.731  0.00  0.00    +0.000 A 
ATOM     25  C   UNL     1       0.092  10.542  20.818  0.00  0.00    +0.000 A 
ATOM     26  C   UNL     1      -0.331  11.785  21.345  0.00  0.00    +0.000 A 
ATOM     27 BR   UNL     1      -1.518  11.898  22.806  0.00  0.00    +0.000 Br
ATOM     28  C   UNL     1       0.193  12.862  20.679  0.00  0.00    +0.000 A 
ATOM     29  S   UNL     1       1.225  12.363  19.407  0.00  0.00    +0.000 S 
ENDBRANCH  23  24
BRANCH  23  30
ATOM     30  O   UNL     1       0.689   9.517  17.720  0.00  0.00    +0.000 OA
ATOM     31  H   UNL     1       0.829  10.316  17.178  0.00  0.00    +0.000 HD
ENDBRANCH  23  30
ENDBRANCH  22  23
ENDBRANCH  20  22
ENDBRANCH  19  20
ENDBRANCH   6  19
TORSDOF 14
ENDMDL
MODEL 3
REMARK VINA RESULT:      -6.2      3.320      6.374
REMARK  Name = 
REMARK  15 active torsions:
REMARK  status: ('A' for Active; 'I' for Inactive)
REMARK    1  A    between atoms: C_1  and  N_2
REMARK    2  A    between atoms: N_2  and  C_3
REMARK    3  A    between atoms: C_3  and  C_4
REMARK    4  A    between atoms: C_4  and  O_5
REMARK    5  A    between atoms: C_6  and  C_8
REMARK    6  A    between atoms: C_8  and  C_9
REMARK    7  A    between atoms: C_9  and  C_10
REMARK    8  A    between atoms: C_10  and  O_11
REMARK    9  A    between atoms: O_11  and  C_12
REMARK   10  A    between atoms: C_17  and  C_18
REMARK   11  A    between atoms: C_18  and  N_19
REMARK   12  A    between atoms: N_19  and  C_20
REMARK   13  A    between atoms: C_20  and  C_21
REMARK   14  A    between atoms: C_21  and  O_22
REMARK   15  A    between atoms: C_21  and  C_23
REMARK                            x       y       z     vdW  Elec       q    Type
REMARK                         _______ _______ _______ _____ _____    ______ ____
ROOT
ATOM      1  C   UNL     1       2.280   4.545  19.050  0.00  0.00    +0.000 A 
ATOM      2  C   UNL     1       1.211   4.410  19.949  0.00  0.00    +0.000 A 
ATOM      3  C   UNL     1       1.158   3.358  20.862  0.00  0.00    +0.000 A 
ATOM      4  C   UNL     1       2.165   2.401  20.871  0.00  0.00    +0.000 A 
ATOM      5  C   UNL     1       3.201   2.484  19.945  0.00  0.00    +0.000 A 
ATOM      6  C   UNL     1       3.271   3.535  19.005  0.00  0.00    +0.000 A 
ENDROOT
BRANCH   1   7
ATOM      7  O   UNL     1       2.448   5.641  18.235  0.00  0.00    +0.000 OA
BRANCH   7   8
ATOM      8  C   UNL     1       2.790   6.887  18.863  0.00  0.00    +0.000 C 
BRANCH   8   9
ATOM      9  C   UNL     1       2.886   8.008  17.830  0.00  0.00    +0.000 C 
BRANCH   9  10
ATOM     10  C   UNL     1       1.572   8.787  17.760  0.00  0.00    +0.000 C 
BRANCH  10  13
ATOM     11  C   UNL     1       1.367  11.928  19.912  0.00  0.00    +0.000 C 
ATOM     12  N   UNL     1       1.197  10.556  19.457  0.00  0.00    +0.000 N 
ATOM     13  C   UNL     1       1.706  10.236  18.200  0.00  0.00    +0.000 C 
ATOM     14  O   UNL     1       2.245  11.081  17.484  0.00  0.00    +0.000 OA
BRANCH  12  15
ATOM     15  C   UNL     1       0.375   9.662  20.291  0.00  0.00    +0.000 C 
BRANCH  15  16
ATOM     16  C   UNL     1       0.896   9.525  21.726  0.00  0.00    +0.000 C 
BRANCH  16  17
ATOM     17  O   UNL     1       1.675   8.342  21.878  0.00  0.00    +0.000 OA
ATOM     18  H   UNL     1       1.263   7.831  22.600  0.00  0.00    +0.000 HD
ENDBRANCH  16  17
ENDBRANCH  15  16
ENDBRANCH  12  15
ENDBRANCH  10  13
ENDBRANCH   9  10
ENDBRANCH   8   9
ENDBRANCH   7   8
ENDBRANCH   1   7
BRANCH   6  19
ATOM     19  C   UNL     1       4.447   3.560  18.040  0.00  0.00    +0.000 C 
BRANCH  19  20
ATOM     20  N   UNL     1       4.051   3.927  16.665  0.00  0.00    +0.000 NA
ATOM     21  H   UNL     1       4.048   3.095  16.079  0.00  0.00    +0.000 HD
BRANCH  20  22
ATOM     22  C   UNL     1       4.977   4.925  16.081  0.00  0.00    +0.000 C 
BRANCH  22  23
ATOM     23  C   UNL     1       6.462   4.611  16.412  0.00  0.00    +0.000 C 
BRANCH  23  24
ATOM     24  C   UNL     1       7.091   5.667  17.285  0.00  0.00    +0.000 A 
ATOM     25  C   UNL     1       7.226   7.026  17.045  0.00  0.00    +0.000 A 
ATOM     26  C   UNL     1       7.938   7.680  18.078  0.00  0.00    +0.000 A 
ATOM     27 BR   UNL     1       8.315   9.527  18.017  0.00  0.00    +0.000 Br
ATOM     28  C   UNL     1       8.324   6.837  19.088  0.00  0.00    +0.000 A 
ATOM     29  S   UNL     1       7.805   5.233  18.790  0.00  0.00    +0.000 S 
ENDBRANCH  23  24
BRANCH  23  30
ATOM     30  O   UNL     1       7.263   4.553  15.229  0.00  0.00    +0.000 OA
ATOM     31  H   UNL     1       6.935   3.797  14.708  0.00  0.00    +0.000 HD
ENDBRANCH  23  30
ENDBRANCH  22  23
ENDBRANCH  20  22
ENDBRANCH  19  20
ENDBRANCH   6  19
TORSDOF 14
ENDMDL
MODEL 4
REMARK VINA RESULT:      -6.1      1.751      2.606
REMARK  Name = 
REMARK  15 active torsions:
REMARK  status: ('A' for Active; 'I' for Inactive)
REMARK    1  A    between atoms: C_1  and  N_2
REMARK    2  A    between atoms: N_2  and  C_3
REMARK    3  A    between atoms: C_3  and  C_4
REMARK    4  A    between atoms: C_4  and  O_5
REMARK    5  A    between atoms: C_6  and  C_8
REMARK    6  A    between atoms: C_8  and  C_9
REMARK    7  A    between atoms: C_9  and  C_10
REMARK    8  A    between atoms: C_10  and  O_11
REMARK    9  A    between atoms: O_11  and  C_12
REMARK   10  A    between atoms: C_17  and  C_18
REMARK   11  A    between atoms: C_18  and  N_19
REMARK   12  A    between atoms: N_19  and  C_20
REMARK   13  A    between atoms: C_20  and  C_21
REMARK   14  A    between atoms: C_21  and  O_22
REMARK   15  A    between atoms: C_21  and  C_23
REMARK                            x       y       z     vdW  Elec       q    Type
REMARK                         _______ _______ _______ _____ _____    ______ ____
ROOT
ATOM      1  C   UNL     1       3.383   4.592  19.987  0.00  0.00    +0.000 A 
ATOM      2  C   UNL     1       3.364   3.197  20.132  0.00  0.00    +0.000 A 
ATOM      3  C   UNL     1       2.165   2.489  20.203  0.00  0.00    +0.000 A 
ATOM      4  C   UNL     1       0.957   3.174  20.160  0.00  0.00    +0.000 A 
ATOM      5  C   UNL     1       0.956   4.563  20.079  0.00  0.00    +0.000 A 
ATOM      6  C   UNL     1       2.158   5.301  20.015  0.00  0.00    +0.000 A 
ENDROOT
BRANCH   1   7
ATOM      7  O   UNL     1       4.534   5.314  19.768  0.00  0.00    +0.000 OA
BRANCH   7   8
ATOM      8  C   UNL     1       5.658   4.614  19.212  0.00  0.00    +0.000 C 
BRANCH   8   9
ATOM      9  C   UNL     1       6.948   5.403  19.422  0.00  0.00    +0.000 C 
BRANCH   9  10
ATOM     10  C   UNL     1       7.555   5.809  18.078  0.00  0.00    +0.000 C 
BRANCH  10  13
ATOM     11  C   UNL     1       5.100   6.626  15.277  0.00  0.00    +0.000 C 
ATOM     12  N   UNL     1       6.062   5.909  16.100  0.00  0.00    +0.000 N 
ATOM     13  C   UNL     1       6.594   6.588  17.194  0.00  0.00    +0.000 C 
ATOM     14  O   UNL     1       6.296   7.757  17.439  0.00  0.00    +0.000 OA
BRANCH  12  15
ATOM     15  C   UNL     1       6.505   4.585  15.628  0.00  0.00    +0.000 C 
BRANCH  15  16
ATOM     16  C   UNL     1       6.906   4.575  14.148  0.00  0.00    +0.000 C 
BRANCH  16  17
ATOM     17  O   UNL     1       7.912   5.547  13.883  0.00  0.00    +0.000 OA
ATOM     18  H   UNL     1       8.671   5.064  13.506  0.00  0.00    +0.000 HD
ENDBRANCH  16  17
ENDBRANCH  15  16
ENDBRANCH  12  15
ENDBRANCH  10  13
ENDBRANCH   9  10
ENDBRANCH   8   9
ENDBRANCH   7   8
ENDBRANCH   1   7
BRANCH   6  19
ATOM     19  C   UNL     1       2.067   6.817  19.911  0.00  0.00    +0.000 C 
BRANCH  19  20
ATOM     20  N   UNL     1       2.670   7.343  18.669  0.00  0.00    +0.000 NA
ATOM     21  H   UNL     1       3.540   7.823  18.891  0.00  0.00    +0.000 HD
BRANCH  20  22
ATOM     22  C   UNL     1       1.760   8.288  17.982  0.00  0.00    +0.000 C 
BRANCH  22  23
ATOM     23  C   UNL     1       1.993   9.757  18.430  0.00  0.00    +0.000 C 
BRANCH  23  24
ATOM     24  C   UNL     1       0.854  10.290  19.262  0.00  0.00    +0.000 A 
ATOM     25  C   UNL     1       0.731  10.331  20.642  0.00  0.00    +0.000 A 
ATOM     26  C   UNL     1      -0.522  10.847  21.050  0.00  0.00    +0.000 A 
ATOM     27 BR   UNL     1      -1.000  10.990  22.869  0.00  0.00    +0.000 Br
ATOM     28  C   UNL     1      -1.328  11.204  20.000  0.00  0.00    +0.000 A 
ATOM     29  S   UNL     1      -0.553  10.923  18.499  0.00  0.00    +0.000 S 
ENDBRANCH  23  24
BRANCH  23  30
ATOM     30  O   UNL     1       2.103  10.637  17.308  0.00  0.00    +0.000 OA
ATOM     31  H   UNL     1       1.209  10.710  16.924  0.00  0.00    +0.000 HD
ENDBRANCH  23  30
ENDBRANCH  22  23
ENDBRANCH  20  22
ENDBRANCH  19  20
ENDBRANCH   6  19
TORSDOF 14
ENDMDL
MODEL 5
REMARK VINA RESULT:      -6.1      2.122      3.174
REMARK  Name = 
REMARK  15 active torsions:
REMARK  status: ('A' for Active; 'I' for Inactive)
REMARK    1  A    between atoms: C_1  and  N_2
REMARK    2  A    between atoms: N_2  and  C_3
REMARK    3  A    between atoms: C_3  and  C_4
REMARK    4  A    between atoms: C_4  and  O_5
REMARK    5  A    between atoms: C_6  and  C_8
REMARK    6  A    between atoms: C_8  and  C_9
REMARK    7  A    between atoms: C_9  and  C_10
REMARK    8  A    between atoms: C_10  and  O_11
REMARK    9  A    between atoms: O_11  and  C_12
REMARK   10  A    between atoms: C_17  and  C_18
REMARK   11  A    between atoms: C_18  and  N_19
REMARK   12  A    between atoms: N_19  and  C_20
REMARK   13  A    between atoms: C_20  and  C_21
REMARK   14  A    between atoms: C_21  and  O_22
REMARK   15  A    between atoms: C_21  and  C_23
REMARK                            x       y       z     vdW  Elec       q    Type
REMARK                         _______ _______ _______ _____ _____    ______ ____
ROOT
ATOM      1  C   UNL     1       3.548   4.734  19.788  0.00  0.00    +0.000 A 
ATOM      2  C   UNL     1       3.551   3.351  20.027  0.00  0.00    +0.000 A 
ATOM      3  C   UNL     1       2.385   2.672  20.378  0.00  0.00    +0.000 A 
ATOM      4  C   UNL     1       1.196   3.374  20.526  0.00  0.00    +0.000 A 
ATOM      5  C   UNL     1       1.186   4.756  20.354  0.00  0.00    +0.000 A 
ATOM      6  C   UNL     1       2.356   5.466  20.008  0.00  0.00    +0.000 A 
ENDROOT
BRANCH   1   7
ATOM      7  O   UNL     1       4.637   5.419  19.301  0.00  0.00    +0.000 OA
BRANCH   7   8
ATOM      8  C   UNL     1       5.408   4.787  18.266  0.00  0.00    +0.000 C 
BRANCH   8   9
ATOM      9  C   UNL     1       5.781   5.789  17.176  0.00  0.00    +0.000 C 
BRANCH   9  10
ATOM     10  C   UNL     1       5.449   5.226  15.793  0.00  0.00    +0.000 C 
BRANCH  10  13
ATOM     11  C   UNL     1       7.593   4.492  12.727  0.00  0.00    +0.000 C 
ATOM     12  N   UNL     1       6.467   4.509  13.649  0.00  0.00    +0.000 N 
ATOM     13  C   UNL     1       6.650   5.167  14.863  0.00  0.00    +0.000 C 
ATOM     14  O   UNL     1       7.727   5.681  15.167  0.00  0.00    +0.000 OA
BRANCH  12  15
ATOM     15  C   UNL     1       5.284   3.709  13.289  0.00  0.00    +0.000 C 
BRANCH  15  16
ATOM     16  C   UNL     1       5.243   3.324  11.806  0.00  0.00    +0.000 C 
BRANCH  16  17
ATOM     17  O   UNL     1       3.930   2.940  11.411  0.00  0.00    +0.000 OA
ATOM     18  H   UNL     1       3.380   2.965  12.216  0.00  0.00    +0.000 HD
ENDBRANCH  16  17
ENDBRANCH  15  16
ENDBRANCH  12  15
ENDBRANCH  10  13
ENDBRANCH   9  10
ENDBRANCH   8   9
ENDBRANCH   7   8
ENDBRANCH   1   7
BRANCH   6  19
ATOM     19  C   UNL     1       2.255   6.973  19.823  0.00  0.00    +0.000 C 
BRANCH  19  20
ATOM     20  N   UNL     1       2.669   7.414  18.475  0.00  0.00    +0.000 NA
ATOM     21  H   UNL     1       3.529   7.955  18.545  0.00  0.00    +0.000 HD
BRANCH  20  22
ATOM     22  C   UNL     1       1.626   8.244  17.831  0.00  0.00    +0.000 C 
BRANCH  22  23
ATOM     23  C   UNL     1       1.618   9.700  18.374  0.00  0.00    +0.000 C 
BRANCH  23  24
ATOM     24  C   UNL     1       0.220  10.238  18.551  0.00  0.00    +0.000 A 
ATOM     25  C   UNL     1      -0.901  10.022  17.765  0.00  0.00    +0.000 A 
ATOM     26  C   UNL     1      -2.020  10.758  18.220  0.00  0.00    +0.000 A 
ATOM     27 BR   UNL     1      -3.683  10.700  17.331  0.00  0.00    +0.000 Br
ATOM     28  C   UNL     1      -1.757  11.508  19.337  0.00  0.00    +0.000 A 
ATOM     29  S   UNL     1      -0.137  11.307  19.852  0.00  0.00    +0.000 S 
ENDBRANCH  23  24
BRANCH  23  30
ATOM     30  O   UNL     1       2.272  10.600  17.475  0.00  0.00    +0.000 OA
ATOM     31  H   UNL     1       2.334  10.140  16.618  0.00  0.00    +0.000 HD
ENDBRANCH  23  30
ENDBRANCH  22  23
ENDBRANCH  20  22
ENDBRANCH  19  20
ENDBRANCH   6  19
TORSDOF 14
ENDMDL
MODEL 6
REMARK VINA RESULT:      -6.0      1.964      2.822
REMARK  Name = 
REMARK  15 active torsions:
REMARK  status: ('A' for Active; 'I' for Inactive)
REMARK    1  A    between atoms: C_1  and  N_2
REMARK    2  A    between atoms: N_2  and  C_3
REMARK    3  A    between atoms: C_3  and  C_4
REMARK    4  A    between atoms: C_4  and  O_5
REMARK    5  A    between atoms: C_6  and  C_8
REMARK    6  A    between atoms: C_8  and  C_9
REMARK    7  A    between atoms: C_9  and  C_10
REMARK    8  A    between atoms: C_10  and  O_11
REMARK    9  A    between atoms: O_11  and  C_12
REMARK   10  A    between atoms: C_17  and  C_18
REMARK   11  A    between atoms: C_18  and  N_19
REMARK   12  A    between atoms: N_19  and  C_20
REMARK   13  A    between atoms: C_20  and  C_21
REMARK   14  A    between atoms: C_21  and  O_22
REMARK   15  A    between atoms: C_21  and  C_23
REMARK                            x       y       z     vdW  Elec       q    Type
REMARK                         _______ _______ _______ _____ _____    ______ ____
ROOT
ATOM      1  C   UNL     1       3.170   4.445  19.697  0.00  0.00    +0.000 A 
ATOM      2  C   UNL     1       2.935   3.324  20.508  0.00  0.00    +0.000 A 
ATOM      3  C   UNL     1       1.885   2.444  20.245  0.00  0.00    +0.000 A 
ATOM      4  C   UNL     1       1.031   2.690  19.179  0.00  0.00    +0.000 A 
ATOM      5  C   UNL     1       1.210   3.830  18.401  0.00  0.00    +0.000 A 
ATOM      6  C   UNL     1       2.260   4.740  18.654  0.00  0.00    +0.000 A 
ENDROOT
BRANCH   1   7
ATOM      7  O   UNL     1       4.274   5.255  19.830  0.00  0.00    +0.000 OA
BRANCH   7   8
ATOM      8  C   UNL     1       5.509   4.790  19.262  0.00  0.00    +0.000 C 
BRANCH   8   9
ATOM      9  C   UNL     1       5.957   5.697  18.118  0.00  0.00    +0.000 C 
BRANCH   9  10
ATOM     10  C   UNL     1       5.848   4.966  16.779  0.00  0.00    +0.000 C 
BRANCH  10  13
ATOM     11  C   UNL     1       7.746   5.306  13.490  0.00  0.00    +0.000 C 
ATOM     12  N   UNL     1       6.818   4.823  14.501  0.00  0.00    +0.000 N 
ATOM     13  C   UNL     1       6.861   5.441  15.750  0.00  0.00    +0.000 C 
ATOM     14  O   UNL     1       7.672   6.332  16.006  0.00  0.00    +0.000 OA
BRANCH  12  15
ATOM     15  C   UNL     1       6.018   3.630  14.174  0.00  0.00    +0.000 C 
BRANCH  15  16
ATOM     16  C   UNL     1       5.723   3.494  12.675  0.00  0.00    +0.000 C 
BRANCH  16  17
ATOM     17  O   UNL     1       6.410   2.379  12.117  0.00  0.00    +0.000 OA
ATOM     18  H   UNL     1       6.205   1.613  12.686  0.00  0.00    +0.000 HD
ENDBRANCH  16  17
ENDBRANCH  15  16
ENDBRANCH  12  15
ENDBRANCH  10  13
ENDBRANCH   9  10
ENDBRANCH   8   9
ENDBRANCH   7   8
ENDBRANCH   1   7
BRANCH   6  19
ATOM     19  C   UNL     1       2.396   5.953  17.745  0.00  0.00    +0.000 C 
BRANCH  19  20
ATOM     20  N   UNL     1       2.464   7.224  18.494  0.00  0.00    +0.000 NA
ATOM     21  H   UNL     1       2.122   7.078  19.442  0.00  0.00    +0.000 HD
BRANCH  20  22
ATOM     22  C   UNL     1       1.654   8.281  17.846  0.00  0.00    +0.000 C 
BRANCH  22  23
ATOM     23  C   UNL     1       1.946   9.688  18.436  0.00  0.00    +0.000 C 
BRANCH  23  24
ATOM     24  C   UNL     1       0.784  10.229  19.230  0.00  0.00    +0.000 A 
ATOM     25  C   UNL     1      -0.360  10.866  18.774  0.00  0.00    +0.000 A 
ATOM     26  C   UNL     1      -1.193  11.291  19.836  0.00  0.00    +0.000 A 
ATOM     27 BR   UNL     1      -2.805  12.222  19.532  0.00  0.00    +0.000 Br
ATOM     28  C   UNL     1      -0.697  10.971  21.074  0.00  0.00    +0.000 A 
ATOM     29  S   UNL     1       0.790  10.132  20.949  0.00  0.00    +0.000 S 
ENDBRANCH  23  24
BRANCH  23  30
ATOM     30  O   UNL     1       2.196  10.648  17.407  0.00  0.00    +0.000 OA
ATOM     31  H   UNL     1       2.256  11.517  17.846  0.00  0.00    +0.000 HD
ENDBRANCH  23  30
ENDBRANCH  22  23
ENDBRANCH  20  22
ENDBRANCH  19  20
ENDBRANCH   6  19
TORSDOF 14
ENDMDL
MODEL 7
REMARK VINA RESULT:      -6.0      3.552      7.248
REMARK  Name = 
REMARK  15 active torsions:
REMARK  status: ('A' for Active; 'I' for Inactive)
REMARK    1  A    between atoms: C_1  and  N_2
REMARK    2  A    between atoms: N_2  and  C_3
REMARK    3  A    between atoms: C_3  and  C_4
REMARK    4  A    between atoms: C_4  and  O_5
REMARK    5  A    between atoms: C_6  and  C_8
REMARK    6  A    between atoms: C_8  and  C_9
REMARK    7  A    between atoms: C_9  and  C_10
REMARK    8  A    between atoms: C_10  and  O_11
REMARK    9  A    between atoms: O_11  and  C_12
REMARK   10  A    between atoms: C_17  and  C_18
REMARK   11  A    between atoms: C_18  and  N_19
REMARK   12  A    between atoms: N_19  and  C_20
REMARK   13  A    between atoms: C_20  and  C_21
REMARK   14  A    between atoms: C_21  and  O_22
REMARK   15  A    between atoms: C_21  and  C_23
REMARK                            x       y       z     vdW  Elec       q    Type
REMARK                         _______ _______ _______ _____ _____    ______ ____
ROOT
ATOM      1  C   UNL     1       2.363   5.628  19.667  0.00  0.00    +0.000 A 
ATOM      2  C   UNL     1       1.536   5.138  20.690  0.00  0.00    +0.000 A 
ATOM      3  C   UNL     1       1.189   3.790  20.760  0.00  0.00    +0.000 A 
ATOM      4  C   UNL     1       1.641   2.910  19.785  0.00  0.00    +0.000 A 
ATOM      5  C   UNL     1       2.410   3.388  18.729  0.00  0.00    +0.000 A 
ATOM      6  C   UNL     1       2.767   4.751  18.632  0.00  0.00    +0.000 A 
ENDROOT
BRANCH   1   7
ATOM      7  O   UNL     1       2.849   6.915  19.640  0.00  0.00    +0.000 OA
BRANCH   7   8
ATOM      8  C   UNL     1       1.890   7.984  19.626  0.00  0.00    +0.000 C 
BRANCH   8   9
ATOM      9  C   UNL     1       1.846   8.659  18.256  0.00  0.00    +0.000 C 
BRANCH   9  10
ATOM     10  C   UNL     1       0.772   9.747  18.228  0.00  0.00    +0.000 C 
BRANCH  10  13
ATOM     11  C   UNL     1       0.974  13.066  20.093  0.00  0.00    +0.000 C 
ATOM     12  N   UNL     1       0.476  11.790  19.602  0.00  0.00    +0.000 N 
ATOM     13  C   UNL     1       1.276  11.104  18.690  0.00  0.00    +0.000 C 
ATOM     14  O   UNL     1       2.342  11.569  18.285  0.00  0.00    +0.000 OA
BRANCH  12  15
ATOM     15  C   UNL     1      -0.891  11.401  19.989  0.00  0.00    +0.000 C 
BRANCH  15  16
ATOM     16  C   UNL     1      -1.959  11.887  19.004  0.00  0.00    +0.000 C 
BRANCH  16  17
ATOM     17  O   UNL     1      -2.366  13.219  19.304  0.00  0.00    +0.000 OA
ATOM     18  H   UNL     1      -2.013  13.424  20.189  0.00  0.00    +0.000 HD
ENDBRANCH  16  17
ENDBRANCH  15  16
ENDBRANCH  12  15
ENDBRANCH  10  13
ENDBRANCH   9  10
ENDBRANCH   8   9
ENDBRANCH   7   8
ENDBRANCH   1   7
BRANCH   6  19
ATOM     19  C   UNL     1       3.624   5.189  17.453  0.00  0.00    +0.000 C 
BRANCH  19  20
ATOM     20  N   UNL     1       4.430   4.086  16.891  0.00  0.00    +0.000 NA
ATOM     21  H   UNL     1       5.133   3.799  17.570  0.00  0.00    +0.000 HD
BRANCH  20  22
ATOM     22  C   UNL     1       5.108   4.491  15.639  0.00  0.00    +0.000 C 
BRANCH  22  23
ATOM     23  C   UNL     1       6.655   4.494  15.783  0.00  0.00    +0.000 C 
BRANCH  23  24
ATOM     24  C   UNL     1       7.131   5.469  16.830  0.00  0.00    +0.000 A 
ATOM     25  C   UNL     1       7.318   6.839  16.722  0.00  0.00    +0.000 A 
ATOM     26  C   UNL     1       7.844   7.399  17.910  0.00  0.00    +0.000 A 
ATOM     27 BR   UNL     1       8.242   9.237  18.057  0.00  0.00    +0.000 Br
ATOM     28  C   UNL     1       8.040   6.476  18.904  0.00  0.00    +0.000 A 
ATOM     29  S   UNL     1       7.567   4.910  18.398  0.00  0.00    +0.000 S 
ENDBRANCH  23  24
BRANCH  23  30
ATOM     30  O   UNL     1       7.296   4.884  14.566  0.00  0.00    +0.000 OA
ATOM     31  H   UNL     1       8.064   5.429  14.819  0.00  0.00    +0.000 HD
ENDBRANCH  23  30
ENDBRANCH  22  23
ENDBRANCH  20  22
ENDBRANCH  19  20
ENDBRANCH   6  19
TORSDOF 14
ENDMDL
MODEL 8
REMARK VINA RESULT:      -6.0      4.976      7.621
REMARK  Name = 
REMARK  15 active torsions:
REMARK  status: ('A' for Active; 'I' for Inactive)
REMARK    1  A    between atoms: C_1  and  N_2
REMARK    2  A    between atoms: N_2  and  C_3
REMARK    3  A    between atoms: C_3  and  C_4
REMARK    4  A    between atoms: C_4  and  O_5
REMARK    5  A    between atoms: C_6  and  C_8
REMARK    6  A    between atoms: C_8  and  C_9
REMARK    7  A    between atoms: C_9  and  C_10
REMARK    8  A    between atoms: C_10  and  O_11
REMARK    9  A    between atoms: O_11  and  C_12
REMARK   10  A    between atoms: C_17  and  C_18
REMARK   11  A    between atoms: C_18  and  N_19
REMARK   12  A    between atoms: N_19  and  C_20
REMARK   13  A    between atoms: C_20  and  C_21
REMARK   14  A    between atoms: C_21  and  O_22
REMARK   15  A    between atoms: C_21  and  C_23
REMARK                            x       y       z     vdW  Elec       q    Type
REMARK                         _______ _______ _______ _____ _____    ______ ____
ROOT
ATOM      1  C   UNL     1       6.954   6.421  16.983  0.00  0.00    +0.000 A 
ATOM      2  C   UNL     1       7.060   5.039  17.204  0.00  0.00    +0.000 A 
ATOM      3  C   UNL     1       7.708   4.530  18.329  0.00  0.00    +0.000 A 
ATOM      4  C   UNL     1       8.291   5.401  19.241  0.00  0.00    +0.000 A 
ATOM      5  C   UNL     1       8.250   6.772  19.007  0.00  0.00    +0.000 A 
ATOM      6  C   UNL     1       7.607   7.309  17.871  0.00  0.00    +0.000 A 
ENDROOT
BRANCH   1   7
ATOM      7  O   UNL     1       6.201   6.968  15.970  0.00  0.00    +0.000 OA
BRANCH   7   8
ATOM      8  C   UNL     1       4.789   6.711  15.981  0.00  0.00    +0.000 C 
BRANCH   8   9
ATOM      9  C   UNL     1       4.163   7.165  17.298  0.00  0.00    +0.000 C 
BRANCH   9  10
ATOM     10  C   UNL     1       3.247   6.076  17.860  0.00  0.00    +0.000 C 
BRANCH  10  13
ATOM     11  C   UNL     1       4.462   2.886  19.559  0.00  0.00    +0.000 C 
ATOM     12  N   UNL     1       3.756   3.783  18.657  0.00  0.00    +0.000 N 
ATOM     13  C   UNL     1       3.945   5.151  18.844  0.00  0.00    +0.000 C 
ATOM     14  O   UNL     1       4.647   5.590  19.756  0.00  0.00    +0.000 OA
BRANCH  12  15
ATOM     15  C   UNL     1       2.790   3.182  17.721  0.00  0.00    +0.000 C 
BRANCH  15  16
ATOM     16  C   UNL     1       1.462   2.801  18.385  0.00  0.00    +0.000 C 
BRANCH  16  17
ATOM     17  O   UNL     1       1.447   1.425  18.750  0.00  0.00    +0.000 OA
ATOM     18  H   UNL     1       1.413   0.918  17.917  0.00  0.00    +0.000 HD
ENDBRANCH  16  17
ENDBRANCH  15  16
ENDBRANCH  12  15
ENDBRANCH  10  13
ENDBRANCH   9  10
ENDBRANCH   8   9
ENDBRANCH   7   8
ENDBRANCH   1   7
BRANCH   6  19
ATOM     19  C   UNL     1       7.594   8.822  17.699  0.00  0.00    +0.000 C 
BRANCH  19  20
ATOM     20  N   UNL     1       8.668   9.493  18.459  0.00  0.00    +0.000 NA
ATOM     21  H   UNL     1       8.405   9.548  19.442  0.00  0.00    +0.000 HD
BRANCH  20  22
ATOM     22  C   UNL     1       8.920  10.861  17.951  0.00  0.00    +0.000 C 
BRANCH  22  23
ATOM     23  C   UNL     1      10.301  11.410  18.405  0.00  0.00    +0.000 C 
BRANCH  23  24
ATOM     24  C   UNL     1      10.214  12.825  18.919  0.00  0.00    +0.000 A 
ATOM     25  C   UNL     1       9.996  13.996  18.210  0.00  0.00    +0.000 A 
ATOM     26  C   UNL     1      10.050  15.139  19.041  0.00  0.00    +0.000 A 
ATOM     27 BR   UNL     1       9.829  16.883  18.357  0.00  0.00    +0.000 Br
ATOM     28  C   UNL     1      10.292  14.841  20.357  0.00  0.00    +0.000 A 
ATOM     29  S   UNL     1      10.441  13.152  20.594  0.00  0.00    +0.000 S 
ENDBRANCH  23  24
BRANCH  23  30
ATOM     30  O   UNL     1      11.235  11.444  17.323  0.00  0.00    +0.000 OA
ATOM     31  H   UNL     1      11.133  10.602  16.842  0.00  0.00    +0.000 HD
ENDBRANCH  23  30
ENDBRANCH  22  23
ENDBRANCH  20  22
ENDBRANCH  19  20
ENDBRANCH   6  19
TORSDOF 14
ENDMDL
MODEL 9
REMARK VINA RESULT:      -5.9      2.638      3.535
REMARK  Name = 
REMARK  15 active torsions:
REMARK  status: ('A' for Active; 'I' for Inactive)
REMARK    1  A    between atoms: C_1  and  N_2
REMARK    2  A    between atoms: N_2  and  C_3
REMARK    3  A    between atoms: C_3  and  C_4
REMARK    4  A    between atoms: C_4  and  O_5
REMARK    5  A    between atoms: C_6  and  C_8
REMARK    6  A    between atoms: C_8  and  C_9
REMARK    7  A    between atoms: C_9  and  C_10
REMARK    8  A    between atoms: C_10  and  O_11
REMARK    9  A    between atoms: O_11  and  C_12
REMARK   10  A    between atoms: C_17  and  C_18
REMARK   11  A    between atoms: C_18  and  N_19
REMARK   12  A    between atoms: N_19  and  C_20
REMARK   13  A    between atoms: C_20  and  C_21
REMARK   14  A    between atoms: C_21  and  O_22
REMARK   15  A    between atoms: C_21  and  C_23
REMARK                            x       y       z     vdW  Elec       q    Type
REMARK                         _______ _______ _______ _____ _____    ______ ____
ROOT
ATOM      1  C   UNL     1       2.512   4.694  18.721  0.00  0.00    +0.000 A 
ATOM      2  C   UNL     1       2.154   3.553  17.987  0.00  0.00    +0.000 A 
ATOM      3  C   UNL     1       1.164   2.680  18.437  0.00  0.00    +0.000 A 
ATOM      4  C   UNL     1       0.533   2.921  19.651  0.00  0.00    +0.000 A 
ATOM      5  C   UNL     1       0.918   4.013  20.423  0.00  0.00    +0.000 A 
ATOM      6  C   UNL     1       1.925   4.905  19.992  0.00  0.00    +0.000 A 
ENDROOT
BRANCH   1   7
ATOM      7  O   UNL     1       3.375   5.656  18.249  0.00  0.00    +0.000 OA
BRANCH   7   8
ATOM      8  C   UNL     1       4.768   5.507  18.563  0.00  0.00    +0.000 C 
BRANCH   8   9
ATOM      9  C   UNL     1       5.424   4.472  17.650  0.00  0.00    +0.000 C 
BRANCH   9  10
ATOM     10  C   UNL     1       5.199   4.834  16.181  0.00  0.00    +0.000 C 
BRANCH  10  13
ATOM     11  C   UNL     1       7.758   5.232  13.383  0.00  0.00    +0.000 C 
ATOM     12  N   UNL     1       6.561   4.835  14.108  0.00  0.00    +0.000 N 
ATOM     13  C   UNL     1       6.479   5.205  15.449  0.00  0.00    +0.000 C 
ATOM     14  O   UNL     1       7.392   5.808  16.013  0.00  0.00    +0.000 OA
BRANCH  12  15
ATOM     15  C   UNL     1       5.608   3.953  13.413  0.00  0.00    +0.000 C 
BRANCH  15  16
ATOM     16  C   UNL     1       6.254   3.128  12.295  0.00  0.00    +0.000 C 
BRANCH  16  17
ATOM     17  O   UNL     1       5.279   2.366  11.591  0.00  0.00    +0.000 OA
ATOM     18  H   UNL     1       5.565   1.434  11.641  0.00  0.00    +0.000 HD
ENDBRANCH  16  17
ENDBRANCH  15  16
ENDBRANCH  12  15
ENDBRANCH  10  13
ENDBRANCH   9  10
ENDBRANCH   8   9
ENDBRANCH   7   8
ENDBRANCH   1   7
BRANCH   6  19
ATOM     19  C   UNL     1       2.274   6.084  20.889  0.00  0.00    +0.000 C 
BRANCH  19  20
ATOM     20  N   UNL     1       1.773   7.371  20.364  0.00  0.00    +0.000 NA
ATOM     21  H   UNL     1       2.500   7.816  19.808  0.00  0.00    +0.000 HD
BRANCH  20  22
ATOM     22  C   UNL     1       1.374   8.285  21.458  0.00  0.00    +0.000 C 
BRANCH  22  23
ATOM     23  C   UNL     1      -0.131   8.664  21.386  0.00  0.00    +0.000 C 
BRANCH  23  24
ATOM     24  C   UNL     1      -0.341  10.119  21.052  0.00  0.00    +0.000 A 
ATOM     25  C   UNL     1      -0.248  10.751  19.822  0.00  0.00    +0.000 A 
ATOM     26  C   UNL     1      -0.450  12.147  19.924  0.00  0.00    +0.000 A 
ATOM     27 BR   UNL     1      -0.347  13.284  18.422  0.00  0.00    +0.000 Br
ATOM     28  C   UNL     1      -0.703  12.566  21.204  0.00  0.00    +0.000 A 
ATOM     29  S   UNL     1      -0.712  11.248  22.297  0.00  0.00    +0.000 S 
ENDBRANCH  23  24
BRANCH  23  30
ATOM     30  O   UNL     1      -0.787   8.452  22.639  0.00  0.00    +0.000 OA
ATOM     31  H   UNL     1      -1.093   9.326  22.943  0.00  0.00    +0.000 HD
ENDBRANCH  23  30
ENDBRANCH  22  23
ENDBRANCH  20  22
ENDBRANCH  19  20
ENDBRANCH   6  19
TORSDOF 14
ENDMDL
