MODEL 1
REMARK VINA RESULT:      -7.3      0.000      0.000
REMARK  Name = 
REMARK  5 active torsions:
REMARK  status: ('A' for Active; 'I' for Inactive)
REMARK    1  A    between atoms: N_1  and  C_2
REMARK    2  A    between atoms: C_2  and  C_3
REMARK    3  A    between atoms: C_10  and  C_11
REMARK    4  A    between atoms: C_11  and  O_13
REMARK    5  A    between atoms: N_15  and  N_16
REMARK                            x       y       z     vdW  Elec       q    Type
REMARK                         _______ _______ _______ _____ _____    ______ ____
ROOT
ATOM      1  C   UNL     1       2.394   6.724  19.608  0.00  0.00    +0.000 A 
ATOM      2  C   UNL     1       2.373   7.616  18.537  0.00  0.00    +0.000 A 
ATOM      3  F   UNL     1       1.557   8.680  18.568  0.00  0.00    +0.000 F 
ATOM      4  C   UNL     1       3.201   7.444  17.436  0.00  0.00    +0.000 A 
ATOM      5  C   UNL     1       4.080   6.355  17.404  0.00  0.00    +0.000 A 
ATOM      6  C   UNL     1       4.989   6.200  16.245  0.00  0.00    +0.000 A 
ATOM      7  O   UNL     1       4.992   7.012  15.320  0.00  0.00    +0.000 OA
ATOM      8  C   UNL     1       5.908   5.044  16.215  0.00  0.00    +0.000 A 
ATOM      9  C   UNL     1       5.853   4.197  17.253  0.00  0.00    +0.000 A 
ATOM     10  N   UNL     1       5.046   4.329  18.365  0.00  0.00    +0.000 N 
ATOM     11  C   UNL     1       4.123   5.412  18.450  0.00  0.00    +0.000 A 
ATOM     12  C   UNL     1       3.264   5.627  19.543  0.00  0.00    +0.000 A 
ATOM     13  F   UNL     1       3.286   4.774  20.583  0.00  0.00    +0.000 F 
ENDROOT
BRANCH  10  14
ATOM     14  N   UNL     1       4.931   3.228  19.218  0.00  0.00    +0.000 N 
ATOM     15  H   UNL     1       4.031   3.239  19.701  0.00  0.00    +0.000 HD
ATOM     16  H   UNL     1       4.921   2.353  18.683  0.00  0.00    +0.000 HD
ENDBRANCH  10  14
BRANCH   8  17
ATOM     17  C   UNL     1       6.860   4.779  15.118  0.00  0.00    +0.000 C 
ATOM     18  O   UNL     1       7.813   5.502  14.865  0.00  0.00    +0.000 OA
BRANCH  17  19
ATOM     19  O   UNL     1       6.589   3.669  14.398  0.00  0.00    +0.000 OA
ATOM     20  H   UNL     1       6.714   2.822  14.893  0.00  0.00    +0.000 HD
ENDBRANCH  17  19
ENDBRANCH   8  17
BRANCH   1  21
ATOM     21  C   UNL     1       1.565   6.976  20.832  0.00  0.00    +0.000 C 
BRANCH  21  22
ATOM     22  N   UNL     1       1.945   8.236  21.463  0.00  0.00    +0.000 NA
ATOM     23  H   UNL     1       2.419   8.037  22.342  0.00  0.00    +0.000 HD
ATOM     24  H   UNL     1       1.102   8.754  21.711  0.00  0.00    +0.000 HD
ENDBRANCH  21  22
ENDBRANCH   1  21
TORSDOF 5
ENDMDL
MODEL 2
REMARK VINA RESULT:      -7.2      1.536      1.717
REMARK  Name = 
REMARK  5 active torsions:
REMARK  status: ('A' for Active; 'I' for Inactive)
REMARK    1  A    between atoms: N_1  and  C_2
REMARK    2  A    between atoms: C_2  and  C_3
REMARK    3  A    between atoms: C_10  and  C_11
REMARK    4  A    between atoms: C_11  and  O_13
REMARK    5  A    between atoms: N_15  and  N_16
REMARK                            x       y       z     vdW  Elec       q    Type
REMARK                         _______ _______ _______ _____ _____    ______ ____
ROOT
ATOM      1  C   UNL     1       2.547   5.443  19.468  0.00  0.00    +0.000 A 
ATOM      2  C   UNL     1       2.770   6.693  18.893  0.00  0.00    +0.000 A 
ATOM      3  F   UNL     1       2.202   7.785  19.425  0.00  0.00    +0.000 F 
ATOM      4  C   UNL     1       3.593   6.843  17.784  0.00  0.00    +0.000 A 
ATOM      5  C   UNL     1       4.216   5.715  17.237  0.00  0.00    +0.000 A 
ATOM      6  C   UNL     1       5.125   5.888  16.081  0.00  0.00    +0.000 A 
ATOM      7  O   UNL     1       5.347   6.999  15.601  0.00  0.00    +0.000 OA
ATOM      8  C   UNL     1       5.772   4.693  15.504  0.00  0.00    +0.000 A 
ATOM      9  C   UNL     1       5.486   3.513  16.072  0.00  0.00    +0.000 A 
ATOM     10  N   UNL     1       4.674   3.318  17.172  0.00  0.00    +0.000 N 
ATOM     11  C   UNL     1       4.005   4.427  17.766  0.00  0.00    +0.000 A 
ATOM     12  C   UNL     1       3.161   4.325  18.888  0.00  0.00    +0.000 A 
ATOM     13  F   UNL     1       2.949   3.123  19.451  0.00  0.00    +0.000 F 
ENDROOT
BRANCH  10  14
ATOM     14  N   UNL     1       4.284   2.009  17.467  0.00  0.00    +0.000 N 
ATOM     15  H   UNL     1       3.485   2.007  18.103  0.00  0.00    +0.000 HD
ATOM     16  H   UNL     1       3.940   1.535  16.626  0.00  0.00    +0.000 HD
ENDBRANCH  10  14
BRANCH   8  17
ATOM     17  C   UNL     1       6.696   4.733  14.352  0.00  0.00    +0.000 C 
ATOM     18  O   UNL     1       6.538   4.065  13.341  0.00  0.00    +0.000 OA
BRANCH  17  19
ATOM     19  O   UNL     1       7.748   5.565  14.507  0.00  0.00    +0.000 OA
ATOM     20  H   UNL     1       8.141   5.887  13.659  0.00  0.00    +0.000 HD
ENDBRANCH  17  19
ENDBRANCH   8  17
BRANCH   1  21
ATOM     21  C   UNL     1       1.733   5.310  20.721  0.00  0.00    +0.000 C 
BRANCH  21  22
ATOM     22  N   UNL     1       0.626   4.381  20.521  0.00  0.00    +0.000 NA
ATOM     23  H   UNL     1       0.894   3.690  19.821  0.00  0.00    +0.000 HD
ATOM     24  H   UNL     1      -0.166   4.886  20.124  0.00  0.00    +0.000 HD
ENDBRANCH  21  22
ENDBRANCH   1  21
TORSDOF 5
ENDMDL
MODEL 3
REMARK VINA RESULT:      -7.0      3.903      5.645
REMARK  Name = 
REMARK  5 active torsions:
REMARK  status: ('A' for Active; 'I' for Inactive)
REMARK    1  A    between atoms: N_1  and  C_2
REMARK    2  A    between atoms: C_2  and  C_3
REMARK    3  A    between atoms: C_10  and  C_11
REMARK    4  A    between atoms: C_11  and  O_13
REMARK    5  A    between atoms: N_15  and  N_16
REMARK                            x       y       z     vdW  Elec       q    Type
REMARK                         _______ _______ _______ _____ _____    ______ ____
ROOT
ATOM      1  C   UNL     1       5.360   5.001  15.993  0.00  0.00    +0.000 A 
ATOM      2  C   UNL     1       4.992   6.144  16.701  0.00  0.00    +0.000 A 
ATOM      3  F   UNL     1       5.338   7.355  16.242  0.00  0.00    +0.000 F 
ATOM      4  C   UNL     1       4.248   6.061  17.871  0.00  0.00    +0.000 A 
ATOM      5  C   UNL     1       3.855   4.804  18.344  0.00  0.00    +0.000 A 
ATOM      6  C   UNL     1       3.027   4.726  19.570  0.00  0.00    +0.000 A 
ATOM      7  O   UNL     1       2.674   5.741  20.170  0.00  0.00    +0.000 OA
ATOM      8  C   UNL     1       2.623   3.396  20.068  0.00  0.00    +0.000 A 
ATOM      9  C   UNL     1       3.042   2.332  19.369  0.00  0.00    +0.000 A 
ATOM     10  N   UNL     1       3.783   2.368  18.204  0.00  0.00    +0.000 N 
ATOM     11  C   UNL     1       4.221   3.618  17.678  0.00  0.00    +0.000 A 
ATOM     12  C   UNL     1       4.977   3.752  16.499  0.00  0.00    +0.000 A 
ATOM     13  F   UNL     1       5.328   2.654  15.807  0.00  0.00    +0.000 F 
ENDROOT
BRANCH  10  14
ATOM     14  N   UNL     1       4.347   1.170  17.756  0.00  0.00    +0.000 N 
ATOM     15  H   UNL     1       4.040   0.962  16.804  0.00  0.00    +0.000 HD
ATOM     16  H   UNL     1       5.366   1.255  17.681  0.00  0.00    +0.000 HD
ENDBRANCH  10  14
BRANCH   8  17
ATOM     17  C   UNL     1       1.800   3.186  21.276  0.00  0.00    +0.000 C 
ATOM     18  O   UNL     1       2.258   3.189  22.410  0.00  0.00    +0.000 OA
BRANCH  17  19
ATOM     19  O   UNL     1       0.489   2.975  21.031  0.00  0.00    +0.000 OA
ATOM     20  H   UNL     1       0.079   2.269  21.589  0.00  0.00    +0.000 HD
ENDBRANCH  17  19
ENDBRANCH   8  17
BRANCH   1  21
ATOM     21  C   UNL     1       6.080   5.111  14.682  0.00  0.00    +0.000 C 
BRANCH  21  22
ATOM     22  N   UNL     1       7.510   5.309  14.894  0.00  0.00    +0.000 NA
ATOM     23  H   UNL     1       7.849   4.609  15.551  0.00  0.00    +0.000 HD
ATOM     24  H   UNL     1       7.659   6.211  15.346  0.00  0.00    +0.000 HD
ENDBRANCH  21  22
ENDBRANCH   1  21
TORSDOF 5
ENDMDL
MODEL 4
REMARK VINA RESULT:      -7.0      2.093      2.583
REMARK  Name = 
REMARK  5 active torsions:
REMARK  status: ('A' for Active; 'I' for Inactive)
REMARK    1  A    between atoms: N_1  and  C_2
REMARK    2  A    between atoms: C_2  and  C_3
REMARK    3  A    between atoms: C_10  and  C_11
REMARK    4  A    between atoms: C_11  and  O_13
REMARK    5  A    between atoms: N_15  and  N_16
REMARK                            x       y       z     vdW  Elec       q    Type
REMARK                         _______ _______ _______ _____ _____    ______ ____
ROOT
ATOM      1  C   UNL     1       1.978   4.024  20.110  0.00  0.00    +0.000 A 
ATOM      2  C   UNL     1       2.097   5.412  20.060  0.00  0.00    +0.000 A 
ATOM      3  F   UNL     1       1.366   6.175  20.885  0.00  0.00    +0.000 F 
ATOM      4  C   UNL     1       2.980   6.031  19.185  0.00  0.00    +0.000 A 
ATOM      5  C   UNL     1       3.770   5.245  18.340  0.00  0.00    +0.000 A 
ATOM      6  C   UNL     1       4.739   5.911  17.439  0.00  0.00    +0.000 A 
ATOM      7  O   UNL     1       4.865   7.135  17.426  0.00  0.00    +0.000 OA
ATOM      8  C   UNL     1       5.564   5.075  16.544  0.00  0.00    +0.000 A 
ATOM      9  C   UNL     1       5.376   3.749  16.605  0.00  0.00    +0.000 A 
ATOM     10  N   UNL     1       4.510   3.092  17.457  0.00  0.00    +0.000 N 
ATOM     11  C   UNL     1       3.672   3.840  18.334  0.00  0.00    +0.000 A 
ATOM     12  C   UNL     1       2.762   3.258  19.236  0.00  0.00    +0.000 A 
ATOM     13  F   UNL     1       2.650   1.919  19.294  0.00  0.00    +0.000 F 
ENDROOT
BRANCH  10  14
ATOM     14  N   UNL     1       4.255   1.741  17.208  0.00  0.00    +0.000 N 
ATOM     15  H   UNL     1       3.284   1.511  17.432  0.00  0.00    +0.000 HD
ATOM     16  H   UNL     1       4.339   1.534  16.207  0.00  0.00    +0.000 HD
ENDBRANCH  10  14
BRANCH   8  17
ATOM     17  C   UNL     1       6.563   5.618  15.600  0.00  0.00    +0.000 C 
ATOM     18  O   UNL     1       6.566   5.362  14.405  0.00  0.00    +0.000 OA
BRANCH  17  19
ATOM     19  O   UNL     1       7.490   6.419  16.167  0.00  0.00    +0.000 OA
ATOM     20  H   UNL     1       7.233   7.373  16.208  0.00  0.00    +0.000 HD
ENDBRANCH  17  19
ENDBRANCH   8  17
BRANCH   1  21
ATOM     21  C   UNL     1       1.092   3.366  21.125  0.00  0.00    +0.000 C 
BRANCH  21  22
ATOM     22  N   UNL     1       1.882   2.833  22.231  0.00  0.00    +0.000 NA
ATOM     23  H   UNL     1       2.864   3.059  22.077  0.00  0.00    +0.000 HD
ATOM     24  H   UNL     1       1.826   1.815  22.221  0.00  0.00    +0.000 HD
ENDBRANCH  21  22
ENDBRANCH   1  21
TORSDOF 5
ENDMDL
MODEL 5
REMARK VINA RESULT:      -6.9      3.007      4.178
REMARK  Name = 
REMARK  5 active torsions:
REMARK  status: ('A' for Active; 'I' for Inactive)
REMARK    1  A    between atoms: N_1  and  C_2
REMARK    2  A    between atoms: C_2  and  C_3
REMARK    3  A    between atoms: C_10  and  C_11
REMARK    4  A    between atoms: C_11  and  O_13
REMARK    5  A    between atoms: N_15  and  N_16
REMARK                            x       y       z     vdW  Elec       q    Type
REMARK                         _______ _______ _______ _____ _____    ______ ____
ROOT
ATOM      1  C   UNL     1       2.307   3.330  18.588  0.00  0.00    +0.000 A 
ATOM      2  C   UNL     1       3.434   2.598  18.959  0.00  0.00    +0.000 A 
ATOM      3  F   UNL     1       3.303   1.325  19.359  0.00  0.00    +0.000 F 
ATOM      4  C   UNL     1       4.707   3.151  18.902  0.00  0.00    +0.000 A 
ATOM      5  C   UNL     1       4.861   4.469  18.458  0.00  0.00    +0.000 A 
ATOM      6  C   UNL     1       6.225   5.039  18.361  0.00  0.00    +0.000 A 
ATOM      7  O   UNL     1       7.218   4.375  18.655  0.00  0.00    +0.000 OA
ATOM      8  C   UNL     1       6.378   6.433  17.899  0.00  0.00    +0.000 A 
ATOM      9  C   UNL     1       5.256   7.102  17.598  0.00  0.00    +0.000 A 
ATOM     10  N   UNL     1       3.973   6.592  17.640  0.00  0.00    +0.000 N 
ATOM     11  C   UNL     1       3.752   5.259  18.094  0.00  0.00    +0.000 A 
ATOM     12  C   UNL     1       2.483   4.656  18.171  0.00  0.00    +0.000 A 
ATOM     13  F   UNL     1       1.394   5.355  17.806  0.00  0.00    +0.000 F 
ENDROOT
BRANCH  10  14
ATOM     14  N   UNL     1       2.912   7.496  17.544  0.00  0.00    +0.000 N 
ATOM     15  H   UNL     1       3.238   8.452  17.705  0.00  0.00    +0.000 HD
ATOM     16  H   UNL     1       2.536   7.515  16.591  0.00  0.00    +0.000 HD
ENDBRANCH  10  14
BRANCH   8  17
ATOM     17  C   UNL     1       7.682   7.115  17.761  0.00  0.00    +0.000 C 
ATOM     18  O   UNL     1       8.070   7.616  16.717  0.00  0.00    +0.000 OA
BRANCH  17  19
ATOM     19  O   UNL     1       8.426   7.133  18.888  0.00  0.00    +0.000 OA
ATOM     20  H   UNL     1       7.953   6.809  19.693  0.00  0.00    +0.000 HD
ENDBRANCH  17  19
ENDBRANCH   8  17
BRANCH   1  21
ATOM     21  C   UNL     1       0.952   2.689  18.563  0.00  0.00    +0.000 C 
BRANCH  21  22
ATOM     22  N   UNL     1       0.300   2.810  19.863  0.00  0.00    +0.000 NA
ATOM     23  H   UNL     1      -0.138   1.921  20.099  0.00  0.00    +0.000 HD
ATOM     24  H   UNL     1      -0.462   3.485  19.793  0.00  0.00    +0.000 HD
ENDBRANCH  21  22
ENDBRANCH   1  21
TORSDOF 5
ENDMDL
MODEL 6
REMARK VINA RESULT:      -6.9      3.961      6.012
REMARK  Name = 
REMARK  5 active torsions:
REMARK  status: ('A' for Active; 'I' for Inactive)
REMARK    1  A    between atoms: N_1  and  C_2
REMARK    2  A    between atoms: C_2  and  C_3
REMARK    3  A    between atoms: C_10  and  C_11
REMARK    4  A    between atoms: C_11  and  O_13
REMARK    5  A    between atoms: N_15  and  N_16
REMARK                            x       y       z     vdW  Elec       q    Type
REMARK                         _______ _______ _______ _____ _____    ______ ____
ROOT
ATOM      1  C   UNL     1       5.286   5.225  16.074  0.00  0.00    +0.000 A 
ATOM      2  C   UNL     1       5.300   3.833  16.137  0.00  0.00    +0.000 A 
ATOM      3  F   UNL     1       6.008   3.130  15.241  0.00  0.00    +0.000 F 
ATOM      4  C   UNL     1       4.610   3.146  17.127  0.00  0.00    +0.000 A 
ATOM      5  C   UNL     1       3.891   3.868  18.087  0.00  0.00    +0.000 A 
ATOM      6  C   UNL     1       3.192   3.131  19.165  0.00  0.00    +0.000 A 
ATOM      7  O   UNL     1       3.239   1.903  19.235  0.00  0.00    +0.000 OA
ATOM      8  C   UNL     1       2.430   3.900  20.169  0.00  0.00    +0.000 A 
ATOM      9  C   UNL     1       2.417   5.233  20.033  0.00  0.00    +0.000 A 
ATOM     10  N   UNL     1       3.086   5.956  19.065  0.00  0.00    +0.000 N 
ATOM     11  C   UNL     1       3.826   5.275  18.054  0.00  0.00    +0.000 A 
ATOM     12  C   UNL     1       4.539   5.926  17.031  0.00  0.00    +0.000 A 
ATOM     13  F   UNL     1       4.536   7.270  16.971  0.00  0.00    +0.000 F 
ENDROOT
BRANCH  10  14
ATOM     14  N   UNL     1       2.755   7.305  18.918  0.00  0.00    +0.000 N 
ATOM     15  H   UNL     1       3.525   7.901  19.229  0.00  0.00    +0.000 HD
ATOM     16  H   UNL     1       2.636   7.544  17.928  0.00  0.00    +0.000 HD
ENDBRANCH  10  14
BRANCH   8  17
ATOM     17  C   UNL     1       1.690   3.283  21.289  0.00  0.00    +0.000 C 
ATOM     18  O   UNL     1       2.121   3.233  22.432  0.00  0.00    +0.000 OA
BRANCH  17  19
ATOM     19  O   UNL     1       0.492   2.760  20.949  0.00  0.00    +0.000 OA
ATOM     20  H   UNL     1       0.462   2.368  20.042  0.00  0.00    +0.000 HD
ENDBRANCH  17  19
ENDBRANCH   8  17
BRANCH   1  21
ATOM     21  C   UNL     1       6.112   5.955  15.058  0.00  0.00    +0.000 C 
BRANCH  21  22
ATOM     22  N   UNL     1       7.535   5.735  15.296  0.00  0.00    +0.000 NA
ATOM     23  H   UNL     1       7.673   4.781  15.625  0.00  0.00    +0.000 HD
ATOM     24  H   UNL     1       7.844   6.340  16.057  0.00  0.00    +0.000 HD
ENDBRANCH  21  22
ENDBRANCH   1  21
TORSDOF 5
ENDMDL
MODEL 7
REMARK VINA RESULT:      -6.8      3.417      4.142
REMARK  Name = 
REMARK  5 active torsions:
REMARK  status: ('A' for Active; 'I' for Inactive)
REMARK    1  A    between atoms: N_1  and  C_2
REMARK    2  A    between atoms: C_2  and  C_3
REMARK    3  A    between atoms: C_10  and  C_11
REMARK    4  A    between atoms: C_11  and  O_13
REMARK    5  A    between atoms: N_15  and  N_16
REMARK                            x       y       z     vdW  Elec       q    Type
REMARK                         _______ _______ _______ _____ _____    ______ ____
ROOT
ATOM      1  C   UNL     1       1.885   8.395  19.170  0.00  0.00    +0.000 A 
ATOM      2  C   UNL     1       1.464   7.774  20.345  0.00  0.00    +0.000 A 
ATOM      3  F   UNL     1       0.697   8.444  21.217  0.00  0.00    +0.000 F 
ATOM      4  C   UNL     1       1.803   6.458  20.630  0.00  0.00    +0.000 A 
ATOM      5  C   UNL     1       2.579   5.738  19.714  0.00  0.00    +0.000 A 
ATOM      6  C   UNL     1       2.902   4.322  20.005  0.00  0.00    +0.000 A 
ATOM      7  O   UNL     1       2.496   3.769  21.026  0.00  0.00    +0.000 OA
ATOM      8  C   UNL     1       3.727   3.571  19.037  0.00  0.00    +0.000 A 
ATOM      9  C   UNL     1       4.139   4.233  17.946  0.00  0.00    +0.000 A 
ATOM     10  N   UNL     1       3.827   5.539  17.625  0.00  0.00    +0.000 N 
ATOM     11  C   UNL     1       3.049   6.326  18.523  0.00  0.00    +0.000 A 
ATOM     12  C   UNL     1       2.682   7.662  18.280  0.00  0.00    +0.000 A 
ATOM     13  F   UNL     1       3.078   8.263  17.144  0.00  0.00    +0.000 F 
ENDROOT
BRANCH  10  14
ATOM     14  N   UNL     1       4.547   6.143  16.591  0.00  0.00    +0.000 N 
ATOM     15  H   UNL     1       4.048   6.960  16.234  0.00  0.00    +0.000 HD
ATOM     16  H   UNL     1       5.435   6.520  16.938  0.00  0.00    +0.000 HD
ENDBRANCH  10  14
BRANCH   8  17
ATOM     17  C   UNL     1       4.118   2.158  19.213  0.00  0.00    +0.000 C 
ATOM     18  O   UNL     1       3.655   1.245  18.545  0.00  0.00    +0.000 OA
BRANCH  17  19
ATOM     19  O   UNL     1       5.030   1.946  20.186  0.00  0.00    +0.000 OA
ATOM     20  H   UNL     1       4.676   1.474  20.979  0.00  0.00    +0.000 HD
ENDBRANCH  17  19
ENDBRANCH   8  17
BRANCH   1  21
ATOM     21  C   UNL     1       1.432   9.784  18.832  0.00  0.00    +0.000 C 
BRANCH  21  22
ATOM     22  N   UNL     1       0.363   9.750  17.839  0.00  0.00    +0.000 NA
ATOM     23  H   UNL     1       0.696  10.183  16.979  0.00  0.00    +0.000 HD
ATOM     24  H   UNL     1      -0.412  10.329  18.161  0.00  0.00    +0.000 HD
ENDBRANCH  21  22
ENDBRANCH   1  21
TORSDOF 5
ENDMDL
MODEL 8
REMARK VINA RESULT:      -6.7      2.645      3.916
REMARK  Name = 
REMARK  5 active torsions:
REMARK  status: ('A' for Active; 'I' for Inactive)
REMARK    1  A    between atoms: N_1  and  C_2
REMARK    2  A    between atoms: C_2  and  C_3
REMARK    3  A    between atoms: C_10  and  C_11
REMARK    4  A    between atoms: C_11  and  O_13
REMARK    5  A    between atoms: N_15  and  N_16
REMARK                            x       y       z     vdW  Elec       q    Type
REMARK                         _______ _______ _______ _____ _____    ______ ____
ROOT
ATOM      1  C   UNL     1       2.667   3.277  20.108  0.00  0.00    +0.000 A 
ATOM      2  C   UNL     1       3.914   2.662  20.211  0.00  0.00    +0.000 A 
ATOM      3  F   UNL     1       4.034   1.498  20.866  0.00  0.00    +0.000 F 
ATOM      4  C   UNL     1       5.045   3.219  19.628  0.00  0.00    +0.000 A 
ATOM      5  C   UNL     1       4.929   4.418  18.917  0.00  0.00    +0.000 A 
ATOM      6  C   UNL     1       6.131   4.984  18.262  0.00  0.00    +0.000 A 
ATOM      7  O   UNL     1       7.221   4.417  18.327  0.00  0.00    +0.000 OA
ATOM      8  C   UNL     1       6.001   6.253  17.520  0.00  0.00    +0.000 A 
ATOM      9  C   UNL     1       4.787   6.820  17.490  0.00  0.00    +0.000 A 
ATOM     10  N   UNL     1       3.638   6.304  18.056  0.00  0.00    +0.000 N 
ATOM     11  C   UNL     1       3.696   5.090  18.802  0.00  0.00    +0.000 A 
ATOM     12  C   UNL     1       2.579   4.490  19.412  0.00  0.00    +0.000 A 
ATOM     13  F   UNL     1       1.372   5.073  19.307  0.00  0.00    +0.000 F 
ENDROOT
BRANCH  10  14
ATOM     14  N   UNL     1       2.526   7.145  18.151  0.00  0.00    +0.000 N 
ATOM     15  H   UNL     1       2.222   7.231  19.123  0.00  0.00    +0.000 HD
ATOM     16  H   UNL     1       2.771   8.102  17.877  0.00  0.00    +0.000 HD
ENDBRANCH  10  14
BRANCH   8  17
ATOM     17  C   UNL     1       7.124   6.919  16.827  0.00  0.00    +0.000 C 
ATOM     18  O   UNL     1       7.517   8.041  17.109  0.00  0.00    +0.000 OA
BRANCH  17  19
ATOM     19  O   UNL     1       7.682   6.189  15.837  0.00  0.00    +0.000 OA
ATOM     20  H   UNL     1       7.701   5.216  16.010  0.00  0.00    +0.000 HD
ENDBRANCH  17  19
ENDBRANCH   8  17
BRANCH   1  21
ATOM     21  C   UNL     1       1.439   2.616  20.660  0.00  0.00    +0.000 C 
BRANCH  21  22
ATOM     22  N   UNL     1       1.410   2.717  22.115  0.00  0.00    +0.000 NA
ATOM     23  H   UNL     1       1.125   1.819  22.505  0.00  0.00    +0.000 HD
ATOM     24  H   UNL     1       0.686   3.381  22.390  0.00  0.00    +0.000 HD
ENDBRANCH  21  22
ENDBRANCH   1  21
TORSDOF 5
ENDMDL
MODEL 9
REMARK VINA RESULT:      -6.7      2.358      3.447
REMARK  Name = 
REMARK  5 active torsions:
REMARK  status: ('A' for Active; 'I' for Inactive)
REMARK    1  A    between atoms: N_1  and  C_2
REMARK    2  A    between atoms: C_2  and  C_3
REMARK    3  A    between atoms: C_10  and  C_11
REMARK    4  A    between atoms: C_11  and  O_13
REMARK    5  A    between atoms: N_15  and  N_16
REMARK                            x       y       z     vdW  Elec       q    Type
REMARK                         _______ _______ _______ _____ _____    ______ ____
ROOT
ATOM      1  C   UNL     1       1.957   3.752  19.138  0.00  0.00    +0.000 A 
ATOM      2  C   UNL     1       2.495   2.548  18.688  0.00  0.00    +0.000 A 
ATOM      3  F   UNL     1       1.994   1.385  19.130  0.00  0.00    +0.000 F 
ATOM      4  C   UNL     1       3.532   2.518  17.765  0.00  0.00    +0.000 A 
ATOM      5  C   UNL     1       4.044   3.724  17.273  0.00  0.00    +0.000 A 
ATOM      6  C   UNL     1       5.122   3.685  16.258  0.00  0.00    +0.000 A 
ATOM      7  O   UNL     1       5.567   2.617  15.837  0.00  0.00    +0.000 OA
ATOM      8  C   UNL     1       5.662   4.961  15.749  0.00  0.00    +0.000 A 
ATOM      9  C   UNL     1       5.136   6.088  16.250  0.00  0.00    +0.000 A 
ATOM     10  N   UNL     1       4.107   6.163  17.168  0.00  0.00    +0.000 N 
ATOM     11  C   UNL     1       3.552   4.968  17.713  0.00  0.00    +0.000 A 
ATOM     12  C   UNL     1       2.503   4.948  18.650  0.00  0.00    +0.000 A 
ATOM     13  F   UNL     1       1.975   6.107  19.081  0.00  0.00    +0.000 F 
ENDROOT
BRANCH  10  14
ATOM     14  N   UNL     1       3.862   7.400  17.768  0.00  0.00    +0.000 N 
ATOM     15  H   UNL     1       4.622   8.054  17.568  0.00  0.00    +0.000 HD
ATOM     16  H   UNL     1       3.033   7.844  17.361  0.00  0.00    +0.000 HD
ENDBRANCH  10  14
BRANCH   8  17
ATOM     17  C   UNL     1       6.737   5.055  14.739  0.00  0.00    +0.000 C 
ATOM     18  O   UNL     1       7.755   5.711  14.901  0.00  0.00    +0.000 OA
BRANCH  17  19
ATOM     19  O   UNL     1       6.501   4.361  13.605  0.00  0.00    +0.000 OA
ATOM     20  H   UNL     1       7.264   4.337  12.977  0.00  0.00    +0.000 HD
ENDBRANCH  17  19
ENDBRANCH   8  17
BRANCH   1  21
ATOM     21  C   UNL     1       0.775   3.767  20.061  0.00  0.00    +0.000 C 
BRANCH  21  22
ATOM     22  N   UNL     1       1.124   3.192  21.356  0.00  0.00    +0.000 NA
ATOM     23  H   UNL     1       1.629   2.320  21.207  0.00  0.00    +0.000 HD
ATOM     24  H   UNL     1       0.268   2.938  21.850  0.00  0.00    +0.000 HD
ENDBRANCH  21  22
ENDBRANCH   1  21
TORSDOF 5
ENDMDL
