MODEL 1
REMARK VINA RESULT:      -8.2      0.000      0.000
REMARK  Name = 
REMARK  9 active torsions:
REMARK  status: ('A' for Active; 'I' for Inactive)
REMARK    1  A    between atoms: C_1  and  C_2
REMARK    2  A    between atoms: C_3  and  O_4
REMARK    3  A    between atoms: N_9  and  C_10
REMARK    4  A    between atoms: C_10  and  C_11
REMARK    5  A    between atoms: N_13  and  C_14
REMARK    6  A    between atoms: C_14  and  C_15
REMARK    7  A    between atoms: C_15  and  C_16
REMARK    8  A    between atoms: C_16  and  N_17
REMARK    9  A    between atoms: N_17  and  C_18
REMARK                            x       y       z     vdW  Elec       q    Type
REMARK                         _______ _______ _______ _____ _____    ______ ____
ROOT
ATOM      1  C   UNL     1       2.606   2.389  17.456  0.00  0.00    +0.000 C 
ENDROOT
BRANCH   1   2
ATOM      2  C   UNL     1       2.210   2.587  18.928  0.00  0.00    +0.000 C 
BRANCH   2   5
ATOM      3  C   UNL     1       1.877   4.730  20.143  0.00  0.00    +0.000 C 
ATOM      4  O   UNL     1       0.672   4.530  20.280  0.00  0.00    +0.000 OA
ATOM      5  N   UNL     1       2.710   3.825  19.507  0.00  0.00    +0.000 N 
ATOM      6  H   UNL     1       3.672   4.089  19.332  0.00  0.00    +0.000 HD
BRANCH   3   7
ATOM      7  C   UNL     1       2.560   5.995  20.673  0.00  0.00    +0.000 C 
BRANCH   7  15
ATOM      8  C   UNL     1       3.267   7.120  18.040  0.00  0.00    +0.000 C 
ATOM      9  C   UNL     1       2.257   7.828  18.908  0.00  0.00    +0.000 A 
ATOM     10  C   UNL     1       1.701   8.994  18.507  0.00  0.00    +0.000 A 
ATOM     11  C   UNL     1       0.805   9.760  19.442  0.00  0.00    +0.000 A 
ATOM     12  O   UNL     1       0.238  10.806  19.129  0.00  0.00    +0.000 OA
ATOM     13  C   UNL     1       0.629   9.203  20.796  0.00  0.00    +0.000 A 
ATOM     14  C   UNL     1       1.180   8.019  21.064  0.00  0.00    +0.000 A 
ATOM     15  N   UNL     1       1.923   7.251  20.169  0.00  0.00    +0.000 N 
BRANCH  10  16
ATOM     16  O   UNL     1       1.930   9.590  17.267  0.00  0.00    +0.000 OA
ATOM     17  H   UNL     1       1.121   9.531  16.739  0.00  0.00    +0.000 HD
ENDBRANCH  10  16
ENDBRANCH   7  15
ENDBRANCH   3   7
ENDBRANCH   2   5
ENDBRANCH   1   2
BRANCH   1  18
ATOM     18  C   UNL     1       4.106   2.615  17.295  0.00  0.00    +0.000 C 
BRANCH  18  19
ATOM     19  N   UNL     1       4.448   3.886  16.701  0.00  0.00    +0.000 N 
ATOM     20  H   UNL     1       3.840   4.674  16.914  0.00  0.00    +0.000 HD
BRANCH  19  21
ATOM     21  C   UNL     1       5.632   4.179  16.023  0.00  0.00    +0.000 A 
ATOM     22  C   UNL     1       5.806   4.220  14.628  0.00  0.00    +0.000 A 
ATOM     23  C   UNL     1       6.872   4.989  14.172  0.00  0.00    +0.000 A 
ATOM     24  N   UNL     1       7.405   5.979  14.919  0.00  0.00    +0.000 NA
ATOM     25  C   UNL     1       7.214   5.927  16.245  0.00  0.00    +0.000 A 
ATOM     26  C   UNL     1       7.539   6.947  17.131  0.00  0.00    +0.000 A 
ATOM     27  C   UNL     1       7.661   6.705  18.504  0.00  0.00    +0.000 A 
ATOM     28  C   UNL     1       7.563   5.400  18.968  0.00  0.00    +0.000 A 
ATOM     29  C   UNL     1       7.003   4.448  18.131  0.00  0.00    +0.000 A 
ATOM     30  C   UNL     1       6.637   4.802  16.809  0.00  0.00    +0.000 A 
ATOM     31  C   UNL     1       7.525   4.696  12.851  0.00  0.00    +0.000 C 
ATOM     32  C   UNL     1       6.967   3.477  12.119  0.00  0.00    +0.000 C 
ATOM     33  C   UNL     1       5.459   3.354  12.217  0.00  0.00    +0.000 C 
ATOM     34  C   UNL     1       4.884   3.622  13.606  0.00  0.00    +0.000 C 
ENDBRANCH  19  21
ENDBRANCH  18  19
ENDBRANCH   1  18
TORSDOF 8
ENDMDL
MODEL 2
REMARK VINA RESULT:      -8.1      1.041      1.205
REMARK  Name = 
REMARK  9 active torsions:
REMARK  status: ('A' for Active; 'I' for Inactive)
REMARK    1  A    between atoms: C_1  and  C_2
REMARK    2  A    between atoms: C_3  and  O_4
REMARK    3  A    between atoms: N_9  and  C_10
REMARK    4  A    between atoms: C_10  and  C_11
REMARK    5  A    between atoms: N_13  and  C_14
REMARK    6  A    between atoms: C_14  and  C_15
REMARK    7  A    between atoms: C_15  and  C_16
REMARK    8  A    between atoms: C_16  and  N_17
REMARK    9  A    between atoms: N_17  and  C_18
REMARK                            x       y       z     vdW  Elec       q    Type
REMARK                         _______ _______ _______ _____ _____    ______ ____
ROOT
ATOM      1  C   UNL     1       2.556   3.299  17.463  0.00  0.00    +0.000 C 
ENDROOT
BRANCH   1   2
ATOM      2  C   UNL     1       1.690   4.021  18.508  0.00  0.00    +0.000 C 
BRANCH   2   5
ATOM      3  C   UNL     1       1.915   5.950  20.060  0.00  0.00    +0.000 C 
ATOM      4  O   UNL     1       1.314   5.367  20.960  0.00  0.00    +0.000 OA
ATOM      5  N   UNL     1       2.157   5.361  18.830  0.00  0.00    +0.000 N 
ATOM      6  H   UNL     1       2.564   5.924  18.093  0.00  0.00    +0.000 HD
BRANCH   3   7
ATOM      7  C   UNL     1       2.453   7.374  20.226  0.00  0.00    +0.000 C 
BRANCH   7  15
ATOM      8  C   UNL     1       2.106   9.010  17.797  0.00  0.00    +0.000 C 
ATOM      9  C   UNL     1       1.198   9.230  18.981  0.00  0.00    +0.000 A 
ATOM     10  C   UNL     1       0.252  10.197  18.955  0.00  0.00    +0.000 A 
ATOM     11  C   UNL     1      -0.549  10.499  20.191  0.00  0.00    +0.000 A 
ATOM     12  O   UNL     1      -1.448  11.337  20.226  0.00  0.00    +0.000 OA
ATOM     13  C   UNL     1      -0.203   9.739  21.407  0.00  0.00    +0.000 A 
ATOM     14  C   UNL     1       0.709   8.771  21.304  0.00  0.00    +0.000 A 
ATOM     15  N   UNL     1       1.379   8.413  20.136  0.00  0.00    +0.000 N 
BRANCH  10  16
ATOM     16  O   UNL     1      -0.026  10.996  17.845  0.00  0.00    +0.000 OA
ATOM     17  H   UNL     1       0.005  11.924  18.116  0.00  0.00    +0.000 HD
ENDBRANCH  10  16
ENDBRANCH   7  15
ENDBRANCH   3   7
ENDBRANCH   2   5
ENDBRANCH   1   2
BRANCH   1  18
ATOM     18  C   UNL     1       3.739   4.183  17.081  0.00  0.00    +0.000 C 
BRANCH  18  19
ATOM     19  N   UNL     1       4.922   3.448  16.699  0.00  0.00    +0.000 N 
ATOM     20  H   UNL     1       4.903   2.440  16.836  0.00  0.00    +0.000 HD
BRANCH  19  21
ATOM     21  C   UNL     1       6.008   3.960  15.986  0.00  0.00    +0.000 A 
ATOM     22  C   UNL     1       6.097   4.097  14.589  0.00  0.00    +0.000 A 
ATOM     23  C   UNL     1       7.002   5.049  14.130  0.00  0.00    +0.000 A 
ATOM     24  N   UNL     1       7.413   6.073  14.907  0.00  0.00    +0.000 NA
ATOM     25  C   UNL     1       7.304   5.925  16.235  0.00  0.00    +0.000 A 
ATOM     26  C   UNL     1       7.512   6.940  17.163  0.00  0.00    +0.000 A 
ATOM     27  C   UNL     1       7.744   6.652  18.513  0.00  0.00    +0.000 A 
ATOM     28  C   UNL     1       7.877   5.328  18.906  0.00  0.00    +0.000 A 
ATOM     29  C   UNL     1       7.430   4.341  18.041  0.00  0.00    +0.000 A 
ATOM     30  C   UNL     1       6.942   4.697  16.760  0.00  0.00    +0.000 A 
ATOM     31  C   UNL     1       7.622   4.929  12.766  0.00  0.00    +0.000 C 
ATOM     32  C   UNL     1       7.224   3.674  11.992  0.00  0.00    +0.000 C 
ATOM     33  C   UNL     1       5.762   3.307  12.151  0.00  0.00    +0.000 C 
ATOM     34  C   UNL     1       5.227   3.411  13.578  0.00  0.00    +0.000 C 
ENDBRANCH  19  21
ENDBRANCH  18  19
ENDBRANCH   1  18
TORSDOF 8
ENDMDL
MODEL 3
REMARK VINA RESULT:      -8.0      4.112      9.595
REMARK  Name = 
REMARK  9 active torsions:
REMARK  status: ('A' for Active; 'I' for Inactive)
REMARK    1  A    between atoms: C_1  and  C_2
REMARK    2  A    between atoms: C_3  and  O_4
REMARK    3  A    between atoms: N_9  and  C_10
REMARK    4  A    between atoms: C_10  and  C_11
REMARK    5  A    between atoms: N_13  and  C_14
REMARK    6  A    between atoms: C_14  and  C_15
REMARK    7  A    between atoms: C_15  and  C_16
REMARK    8  A    between atoms: C_16  and  N_17
REMARK    9  A    between atoms: N_17  and  C_18
REMARK                            x       y       z     vdW  Elec       q    Type
REMARK                         _______ _______ _______ _____ _____    ______ ____
ROOT
ATOM      1  C   UNL     1      -0.049   8.556  21.268  0.00  0.00    +0.000 C 
ENDROOT
BRANCH   1   2
ATOM      2  C   UNL     1       1.473   8.431  21.094  0.00  0.00    +0.000 C 
BRANCH   2   5
ATOM      3  C   UNL     1       2.367   6.697  19.553  0.00  0.00    +0.000 C 
ATOM      4  O   UNL     1       2.438   7.488  18.615  0.00  0.00    +0.000 OA
ATOM      5  N   UNL     1       1.920   7.076  20.808  0.00  0.00    +0.000 N 
ATOM      6  H   UNL     1       1.785   6.361  21.513  0.00  0.00    +0.000 HD
BRANCH   3   7
ATOM      7  C   UNL     1       2.776   5.228  19.415  0.00  0.00    +0.000 C 
BRANCH   7  15
ATOM      8  C   UNL     1       3.091   3.474  17.065  0.00  0.00    +0.000 C 
ATOM      9  C   UNL     1       4.289   4.202  17.618  0.00  0.00    +0.000 A 
ATOM     10  C   UNL     1       5.514   4.030  17.071  0.00  0.00    +0.000 A 
ATOM     11  C   UNL     1       6.721   4.651  17.719  0.00  0.00    +0.000 A 
ATOM     12  O   UNL     1       7.857   4.565  17.255  0.00  0.00    +0.000 OA
ATOM     13  C   UNL     1       6.494   5.383  18.978  0.00  0.00    +0.000 A 
ATOM     14  C   UNL     1       5.237   5.537  19.397  0.00  0.00    +0.000 A 
ATOM     15  N   UNL     1       4.103   5.057  18.745  0.00  0.00    +0.000 N 
BRANCH  10  16
ATOM     16  O   UNL     1       5.768   3.260  15.935  0.00  0.00    +0.000 OA
ATOM     17  H   UNL     1       6.725   3.166  15.831  0.00  0.00    +0.000 HD
ENDBRANCH  10  16
ENDBRANCH   7  15
ENDBRANCH   3   7
ENDBRANCH   2   5
ENDBRANCH   1   2
BRANCH   1  18
ATOM     18  C   UNL     1      -0.461  10.018  21.128  0.00  0.00    +0.000 C 
BRANCH  18  19
ATOM     19  N   UNL     1      -0.497  10.490  19.764  0.00  0.00    +0.000 N 
ATOM     20  H   UNL     1       0.218  10.134  19.133  0.00  0.00    +0.000 HD
BRANCH  19  21
ATOM     21  C   UNL     1      -1.526  11.233  19.182  0.00  0.00    +0.000 A 
ATOM     22  C   UNL     1      -2.348  10.826  18.116  0.00  0.00    +0.000 A 
ATOM     23  C   UNL     1      -3.581  11.464  18.023  0.00  0.00    +0.000 A 
ATOM     24  N   UNL     1      -4.155  12.062  19.088  0.00  0.00    +0.000 NA
ATOM     25  C   UNL     1      -3.354  12.427  20.100  0.00  0.00    +0.000 A 
ATOM     26  C   UNL     1      -3.799  12.887  21.333  0.00  0.00    +0.000 A 
ATOM     27  C   UNL     1      -2.948  13.587  22.197  0.00  0.00    +0.000 A 
ATOM     28  C   UNL     1      -1.673  13.920  21.762  0.00  0.00    +0.000 A 
ATOM     29  C   UNL     1      -1.165  13.256  20.656  0.00  0.00    +0.000 A 
ATOM     30  C   UNL     1      -1.980  12.336  19.953  0.00  0.00    +0.000 A 
ATOM     31  C   UNL     1      -4.292  11.579  16.704  0.00  0.00    +0.000 C 
ATOM     32  C   UNL     1      -3.526  11.007  15.513  0.00  0.00    +0.000 C 
ATOM     33  C   UNL     1      -2.803   9.712  15.829  0.00  0.00    +0.000 C 
ATOM     34  C   UNL     1      -2.067   9.698  17.167  0.00  0.00    +0.000 C 
ENDBRANCH  19  21
ENDBRANCH  18  19
ENDBRANCH   1  18
TORSDOF 8
ENDMDL
MODEL 4
REMARK VINA RESULT:      -7.9      2.965      5.835
REMARK  Name = 
REMARK  9 active torsions:
REMARK  status: ('A' for Active; 'I' for Inactive)
REMARK    1  A    between atoms: C_1  and  C_2
REMARK    2  A    between atoms: C_3  and  O_4
REMARK    3  A    between atoms: N_9  and  C_10
REMARK    4  A    between atoms: C_10  and  C_11
REMARK    5  A    between atoms: N_13  and  C_14
REMARK    6  A    between atoms: C_14  and  C_15
REMARK    7  A    between atoms: C_15  and  C_16
REMARK    8  A    between atoms: C_16  and  N_17
REMARK    9  A    between atoms: N_17  and  C_18
REMARK                            x       y       z     vdW  Elec       q    Type
REMARK                         _______ _______ _______ _____ _____    ______ ____
ROOT
ATOM      1  C   UNL     1       1.391   7.334  20.673  0.00  0.00    +0.000 C 
ENDROOT
BRANCH   1   2
ATOM      2  C   UNL     1       1.376   8.510  21.663  0.00  0.00    +0.000 C 
BRANCH   2   5
ATOM      3  C   UNL     1      -0.131  10.482  21.520  0.00  0.00    +0.000 C 
ATOM      4  O   UNL     1      -0.810  10.102  22.471  0.00  0.00    +0.000 OA
ATOM      5  N   UNL     1       0.968   9.773  21.065  0.00  0.00    +0.000 N 
ATOM      6  H   UNL     1       1.428  10.078  20.216  0.00  0.00    +0.000 HD
BRANCH   3   7
ATOM      7  C   UNL     1      -0.437  11.778  20.763  0.00  0.00    +0.000 C 
BRANCH   7  15
ATOM      8  C   UNL     1      -3.065  13.113  20.842  0.00  0.00    +0.000 C 
ATOM      9  C   UNL     1      -2.725  12.204  19.689  0.00  0.00    +0.000 A 
ATOM     10  C   UNL     1      -3.627  11.965  18.709  0.00  0.00    +0.000 A 
ATOM     11  C   UNL     1      -3.326  10.949  17.642  0.00  0.00    +0.000 A 
ATOM     12  O   UNL     1      -4.084  10.710  16.704  0.00  0.00    +0.000 OA
ATOM     13  C   UNL     1      -2.054  10.215  17.766  0.00  0.00    +0.000 A 
ATOM     14  C   UNL     1      -1.216  10.571  18.740  0.00  0.00    +0.000 A 
ATOM     15  N   UNL     1      -1.440  11.586  19.669  0.00  0.00    +0.000 N 
BRANCH  10  16
ATOM     16  O   UNL     1      -4.878  12.576  18.625  0.00  0.00    +0.000 OA
ATOM     17  H   UNL     1      -5.156  12.839  19.514  0.00  0.00    +0.000 HD
ENDBRANCH  10  16
ENDBRANCH   7  15
ENDBRANCH   3   7
ENDBRANCH   2   5
ENDBRANCH   1   2
BRANCH   1  18
ATOM     18  C   UNL     1       2.292   7.673  19.490  0.00  0.00    +0.000 C 
BRANCH  18  19
ATOM     19  N   UNL     1       2.286   6.679  18.442  0.00  0.00    +0.000 N 
ATOM     20  H   UNL     1       1.672   6.850  17.648  0.00  0.00    +0.000 HD
BRANCH  19  21
ATOM     21  C   UNL     1       3.177   5.612  18.322  0.00  0.00    +0.000 A 
ATOM     22  C   UNL     1       4.560   5.704  18.081  0.00  0.00    +0.000 A 
ATOM     23  C   UNL     1       5.320   4.609  18.482  0.00  0.00    +0.000 A 
ATOM     24  N   UNL     1       4.885   3.750  19.428  0.00  0.00    +0.000 NA
ATOM     25  C   UNL     1       3.564   3.692  19.652  0.00  0.00    +0.000 A 
ATOM     26  C   UNL     1       2.970   2.999  20.701  0.00  0.00    +0.000 A 
ATOM     27  C   UNL     1       1.610   2.670  20.676  0.00  0.00    +0.000 A 
ATOM     28  C   UNL     1       0.872   2.944  19.533  0.00  0.00    +0.000 A 
ATOM     29  C   UNL     1       1.399   3.838  18.613  0.00  0.00    +0.000 A 
ATOM     30  C   UNL     1       2.696   4.369  18.812  0.00  0.00    +0.000 A 
ATOM     31  C   UNL     1       6.631   4.295  17.819  0.00  0.00    +0.000 C 
ATOM     32  C   UNL     1       6.999   5.222  16.662  0.00  0.00    +0.000 C 
ATOM     33  C   UNL     1       6.656   6.676  16.923  0.00  0.00    +0.000 C 
ATOM     34  C   UNL     1       5.286   6.907  17.555  0.00  0.00    +0.000 C 
ENDBRANCH  19  21
ENDBRANCH  18  19
ENDBRANCH   1  18
TORSDOF 8
ENDMDL
MODEL 5
REMARK VINA RESULT:      -7.9      3.378      6.167
REMARK  Name = 
REMARK  9 active torsions:
REMARK  status: ('A' for Active; 'I' for Inactive)
REMARK    1  A    between atoms: C_1  and  C_2
REMARK    2  A    between atoms: C_3  and  O_4
REMARK    3  A    between atoms: N_9  and  C_10
REMARK    4  A    between atoms: C_10  and  C_11
REMARK    5  A    between atoms: N_13  and  C_14
REMARK    6  A    between atoms: C_14  and  C_15
REMARK    7  A    between atoms: C_15  and  C_16
REMARK    8  A    between atoms: C_16  and  N_17
REMARK    9  A    between atoms: N_17  and  C_18
REMARK                            x       y       z     vdW  Elec       q    Type
REMARK                         _______ _______ _______ _____ _____    ______ ____
ROOT
ATOM      1  C   UNL     1       0.993   8.030  21.075  0.00  0.00    +0.000 C 
ENDROOT
BRANCH   1   2
ATOM      2  C   UNL     1       1.074   9.518  21.452  0.00  0.00    +0.000 C 
BRANCH   2   5
ATOM      3  C   UNL     1       0.079  11.695  20.783  0.00  0.00    +0.000 C 
ATOM      4  O   UNL     1       0.246  12.179  21.900  0.00  0.00    +0.000 OA
ATOM      5  N   UNL     1       0.468  10.404  20.469  0.00  0.00    +0.000 N 
ATOM      6  H   UNL     1       0.213  10.025  19.566  0.00  0.00    +0.000 HD
BRANCH   3   7
ATOM      7  C   UNL     1      -0.566  12.485  19.640  0.00  0.00    +0.000 C 
BRANCH   7  15
ATOM      8  C   UNL     1      -1.908  11.003  17.473  0.00  0.00    +0.000 C 
ATOM      9  C   UNL     1      -2.733  11.644  18.560  0.00  0.00    +0.000 A 
ATOM     10  C   UNL     1      -4.084  11.579  18.531  0.00  0.00    +0.000 A 
ATOM     11  C   UNL     1      -4.895  12.342  19.541  0.00  0.00    +0.000 A 
ATOM     12  O   UNL     1      -6.123  12.298  19.594  0.00  0.00    +0.000 OA
ATOM     13  C   UNL     1      -4.147  13.182  20.494  0.00  0.00    +0.000 A 
ATOM     14  C   UNL     1      -2.814  13.127  20.467  0.00  0.00    +0.000 A 
ATOM     15  N   UNL     1      -2.055  12.340  19.604  0.00  0.00    +0.000 N 
BRANCH  10  16
ATOM     16  O   UNL     1      -4.817  10.870  17.579  0.00  0.00    +0.000 OA
ATOM     17  H   UNL     1      -4.202  10.372  17.021  0.00  0.00    +0.000 HD
ENDBRANCH  10  16
ENDBRANCH   7  15
ENDBRANCH   3   7
ENDBRANCH   2   5
ENDBRANCH   1   2
BRANCH   1  18
ATOM     18  C   UNL     1       1.838   7.771  19.832  0.00  0.00    +0.000 C 
BRANCH  18  19
ATOM     19  N   UNL     1       2.893   6.805  20.029  0.00  0.00    +0.000 N 
ATOM     20  H   UNL     1       3.402   6.850  20.910  0.00  0.00    +0.000 HD
BRANCH  19  21
ATOM     21  C   UNL     1       3.152   5.700  19.216  0.00  0.00    +0.000 A 
ATOM     22  C   UNL     1       4.117   5.624  18.196  0.00  0.00    +0.000 A 
ATOM     23  C   UNL     1       4.548   4.344  17.863  0.00  0.00    +0.000 A 
ATOM     24  N   UNL     1       4.434   3.309  18.722  0.00  0.00    +0.000 NA
ATOM     25  C   UNL     1       3.518   3.410  19.696  0.00  0.00    +0.000 A 
ATOM     26  C   UNL     1       3.394   2.523  20.759  0.00  0.00    +0.000 A 
ATOM     27  C   UNL     1       2.222   2.464  21.522  0.00  0.00    +0.000 A 
ATOM     28  C   UNL     1       1.128   3.227  21.136  0.00  0.00    +0.000 A 
ATOM     29  C   UNL     1       1.339   4.269  20.246  0.00  0.00    +0.000 A 
ATOM     30  C   UNL     1       2.626   4.469  19.689  0.00  0.00    +0.000 A 
ATOM     31  C   UNL     1       5.092   4.044  16.494  0.00  0.00    +0.000 C 
ATOM     32  C   UNL     1       5.064   5.224  15.524  0.00  0.00    +0.000 C 
ATOM     33  C   UNL     1       5.434   6.544  16.171  0.00  0.00    +0.000 C 
ATOM     34  C   UNL     1       4.800   6.787  17.539  0.00  0.00    +0.000 C 
ENDBRANCH  19  21
ENDBRANCH  18  19
ENDBRANCH   1  18
TORSDOF 8
ENDMDL
MODEL 6
REMARK VINA RESULT:      -7.9      3.146      5.776
REMARK  Name = 
REMARK  9 active torsions:
REMARK  status: ('A' for Active; 'I' for Inactive)
REMARK    1  A    between atoms: C_1  and  C_2
REMARK    2  A    between atoms: C_3  and  O_4
REMARK    3  A    between atoms: N_9  and  C_10
REMARK    4  A    between atoms: C_10  and  C_11
REMARK    5  A    between atoms: N_13  and  C_14
REMARK    6  A    between atoms: C_14  and  C_15
REMARK    7  A    between atoms: C_15  and  C_16
REMARK    8  A    between atoms: C_16  and  N_17
REMARK    9  A    between atoms: N_17  and  C_18
REMARK                            x       y       z     vdW  Elec       q    Type
REMARK                         _______ _______ _______ _____ _____    ______ ____
ROOT
ATOM      1  C   UNL     1       2.178   7.274  20.397  0.00  0.00    +0.000 C 
ENDROOT
BRANCH   1   2
ATOM      2  C   UNL     1       0.930   7.813  21.115  0.00  0.00    +0.000 C 
BRANCH   2   5
ATOM      3  C   UNL     1       0.549  10.166  21.821  0.00  0.00    +0.000 C 
ATOM      4  O   UNL     1       0.726   9.898  23.007  0.00  0.00    +0.000 OA
ATOM      5  N   UNL     1       0.644   9.210  20.824  0.00  0.00    +0.000 N 
ATOM      6  H   UNL     1       0.387   9.465  19.878  0.00  0.00    +0.000 HD
BRANCH   3   7
ATOM      7  C   UNL     1       0.216  11.583  21.345  0.00  0.00    +0.000 C 
BRANCH   7  15
ATOM      8  C   UNL     1      -1.335  12.405  18.976  0.00  0.00    +0.000 C 
ATOM      9  C   UNL     1      -2.016  12.315  20.318  0.00  0.00    +0.000 A 
ATOM     10  C   UNL     1      -3.321  12.644  20.454  0.00  0.00    +0.000 A 
ATOM     11  C   UNL     1      -3.947  12.686  21.820  0.00  0.00    +0.000 A 
ATOM     12  O   UNL     1      -5.135  12.941  22.012  0.00  0.00    +0.000 OA
ATOM     13  C   UNL     1      -3.060  12.412  22.965  0.00  0.00    +0.000 A 
ATOM     14  C   UNL     1      -1.803  12.044  22.711  0.00  0.00    +0.000 A 
ATOM     15  N   UNL     1      -1.244  11.899  21.443  0.00  0.00    +0.000 N 
BRANCH  10  16
ATOM     16  O   UNL     1      -4.156  13.003  19.396  0.00  0.00    +0.000 OA
ATOM     17  H   UNL     1      -5.065  13.062  19.723  0.00  0.00    +0.000 HD
ENDBRANCH  10  16
ENDBRANCH   7  15
ENDBRANCH   3   7
ENDBRANCH   2   5
ENDBRANCH   1   2
BRANCH   1  18
ATOM     18  C   UNL     1       2.158   7.717  18.937  0.00  0.00    +0.000 C 
BRANCH  18  19
ATOM     19  N   UNL     1       2.262   6.630  17.992  0.00  0.00    +0.000 N 
ATOM     20  H   UNL     1       1.687   6.691  17.154  0.00  0.00    +0.000 HD
BRANCH  19  21
ATOM     21  C   UNL     1       3.211   5.607  18.024  0.00  0.00    +0.000 A 
ATOM     22  C   UNL     1       4.605   5.760  17.923  0.00  0.00    +0.000 A 
ATOM     23  C   UNL     1       5.370   4.729  18.460  0.00  0.00    +0.000 A 
ATOM     24  N   UNL     1       4.878   3.896  19.402  0.00  0.00    +0.000 NA
ATOM     25  C   UNL     1       3.545   3.778  19.490  0.00  0.00    +0.000 A 
ATOM     26  C   UNL     1       2.877   3.108  20.508  0.00  0.00    +0.000 A 
ATOM     27  C   UNL     1       1.545   2.706  20.360  0.00  0.00    +0.000 A 
ATOM     28  C   UNL     1       0.921   2.884  19.133  0.00  0.00    +0.000 A 
ATOM     29  C   UNL     1       1.499   3.757  18.226  0.00  0.00    +0.000 A 
ATOM     30  C   UNL     1       2.741   4.366  18.529  0.00  0.00    +0.000 A 
ATOM     31  C   UNL     1       6.757   4.453  17.954  0.00  0.00    +0.000 C 
ATOM     32  C   UNL     1       7.202   5.340  16.793  0.00  0.00    +0.000 C 
ATOM     33  C   UNL     1       6.764   6.785  16.936  0.00  0.00    +0.000 C 
ATOM     34  C   UNL     1       5.325   6.973  17.410  0.00  0.00    +0.000 C 
ENDBRANCH  19  21
ENDBRANCH  18  19
ENDBRANCH   1  18
TORSDOF 8
ENDMDL
MODEL 7
REMARK VINA RESULT:      -7.9      3.616      6.562
REMARK  Name = 
REMARK  9 active torsions:
REMARK  status: ('A' for Active; 'I' for Inactive)
REMARK    1  A    between atoms: C_1  and  C_2
REMARK    2  A    between atoms: C_3  and  O_4
REMARK    3  A    between atoms: N_9  and  C_10
REMARK    4  A    between atoms: C_10  and  C_11
REMARK    5  A    between atoms: N_13  and  C_14
REMARK    6  A    between atoms: C_14  and  C_15
REMARK    7  A    between atoms: C_15  and  C_16
REMARK    8  A    between atoms: C_16  and  N_17
REMARK    9  A    between atoms: N_17  and  C_18
REMARK                            x       y       z     vdW  Elec       q    Type
REMARK                         _______ _______ _______ _____ _____    ______ ____
ROOT
ATOM      1  C   UNL     1       1.429   8.219  20.171  0.00  0.00    +0.000 C 
ENDROOT
BRANCH   1   2
ATOM      2  C   UNL     1       0.867   9.635  20.378  0.00  0.00    +0.000 C 
BRANCH   2   5
ATOM      3  C   UNL     1      -0.325  11.368  19.053  0.00  0.00    +0.000 C 
ATOM      4  O   UNL     1       0.284  12.285  19.600  0.00  0.00    +0.000 OA
ATOM      5  N   UNL     1      -0.093  10.038  19.361  0.00  0.00    +0.000 N 
ATOM      6  H   UNL     1      -0.695   9.332  18.955  0.00  0.00    +0.000 HD
BRANCH   3   7
ATOM      7  C   UNL     1      -1.386  11.620  17.977  0.00  0.00    +0.000 C 
BRANCH   7  15
ATOM      8  C   UNL     1      -3.749  10.866  16.383  0.00  0.00    +0.000 C 
ATOM      9  C   UNL     1      -3.931  11.383  17.788  0.00  0.00    +0.000 A 
ATOM     10  C   UNL     1      -5.169  11.540  18.311  0.00  0.00    +0.000 A 
ATOM     11  C   UNL     1      -5.339  12.188  19.657  0.00  0.00    +0.000 A 
ATOM     12  O   UNL     1      -6.430  12.329  20.206  0.00  0.00    +0.000 OA
ATOM     13  C   UNL     1      -4.114  12.676  20.318  0.00  0.00    +0.000 A 
ATOM     14  C   UNL     1      -2.942  12.418  19.736  0.00  0.00    +0.000 A 
ATOM     15  N   UNL     1      -2.768  11.724  18.541  0.00  0.00    +0.000 N 
BRANCH  10  16
ATOM     16  O   UNL     1      -6.349  11.176  17.663  0.00  0.00    +0.000 OA
ATOM     17  H   UNL     1      -6.534  10.245  17.854  0.00  0.00    +0.000 HD
ENDBRANCH  10  16
ENDBRANCH   7  15
ENDBRANCH   3   7
ENDBRANCH   2   5
ENDBRANCH   1   2
BRANCH   1  18
ATOM     18  C   UNL     1       2.155   8.148  18.831  0.00  0.00    +0.000 C 
BRANCH  18  19
ATOM     19  N   UNL     1       2.097   6.851  18.199  0.00  0.00    +0.000 N 
ATOM     20  H   UNL     1       1.521   6.771  17.363  0.00  0.00    +0.000 HD
BRANCH  19  21
ATOM     21  C   UNL     1       2.901   5.754  18.510  0.00  0.00    +0.000 A 
ATOM     22  C   UNL     1       2.514   4.619  19.246  0.00  0.00    +0.000 A 
ATOM     23  C   UNL     1       3.263   3.468  19.024  0.00  0.00    +0.000 A 
ATOM     24  N   UNL     1       3.976   3.291  17.891  0.00  0.00    +0.000 NA
ATOM     25  C   UNL     1       4.319   4.386  17.197  0.00  0.00    +0.000 A 
ATOM     26  C   UNL     1       4.893   4.371  15.931  0.00  0.00    +0.000 A 
ATOM     27  C   UNL     1       5.555   5.494  15.422  0.00  0.00    +0.000 A 
ATOM     28  C   UNL     1       5.736   6.598  16.242  0.00  0.00    +0.000 A 
ATOM     29  C   UNL     1       4.962   6.696  17.388  0.00  0.00    +0.000 A 
ATOM     30  C   UNL     1       4.087   5.639  17.737  0.00  0.00    +0.000 A 
ATOM     31  C   UNL     1       3.370   2.401  20.077  0.00  0.00    +0.000 C 
ATOM     32  C   UNL     1       2.656   2.725  21.388  0.00  0.00    +0.000 C 
ATOM     33  C   UNL     1       1.318   3.410  21.192  0.00  0.00    +0.000 C 
ATOM     34  C   UNL     1       1.311   4.513  20.136  0.00  0.00    +0.000 C 
ENDBRANCH  19  21
ENDBRANCH  18  19
ENDBRANCH   1  18
TORSDOF 8
ENDMDL
MODEL 8
REMARK VINA RESULT:      -7.9      3.101      5.966
REMARK  Name = 
REMARK  9 active torsions:
REMARK  status: ('A' for Active; 'I' for Inactive)
REMARK    1  A    between atoms: C_1  and  C_2
REMARK    2  A    between atoms: C_3  and  O_4
REMARK    3  A    between atoms: N_9  and  C_10
REMARK    4  A    between atoms: C_10  and  C_11
REMARK    5  A    between atoms: N_13  and  C_14
REMARK    6  A    between atoms: C_14  and  C_15
REMARK    7  A    between atoms: C_15  and  C_16
REMARK    8  A    between atoms: C_16  and  N_17
REMARK    9  A    between atoms: N_17  and  C_18
REMARK                            x       y       z     vdW  Elec       q    Type
REMARK                         _______ _______ _______ _____ _____    ______ ____
ROOT
ATOM      1  C   UNL     1       1.578   8.570  17.986  0.00  0.00    +0.000 C 
ENDROOT
BRANCH   1   2
ATOM      2  C   UNL     1       1.514   8.860  19.494  0.00  0.00    +0.000 C 
BRANCH   2   5
ATOM      3  C   UNL     1       0.874  10.630  21.117  0.00  0.00    +0.000 C 
ATOM      4  O   UNL     1       1.077   9.898  22.082  0.00  0.00    +0.000 OA
ATOM      5  N   UNL     1       1.076  10.210  19.813  0.00  0.00    +0.000 N 
ATOM      6  H   UNL     1       0.794  10.820  19.056  0.00  0.00    +0.000 HD
BRANCH   3   7
ATOM      7  C   UNL     1       0.387  12.074  21.276  0.00  0.00    +0.000 C 
BRANCH   7  15
ATOM      8  C   UNL     1      -1.373  12.876  19.050  0.00  0.00    +0.000 C 
ATOM      9  C   UNL     1      -1.970  12.571  20.400  0.00  0.00    +0.000 A 
ATOM     10  C   UNL     1      -3.301  12.697  20.611  0.00  0.00    +0.000 A 
ATOM     11  C   UNL     1      -3.862  12.527  21.996  0.00  0.00    +0.000 A 
ATOM     12  O   UNL     1      -5.063  12.592  22.251  0.00  0.00    +0.000 OA
ATOM     13  C   UNL     1      -2.892  12.280  23.078  0.00  0.00    +0.000 A 
ATOM     14  C   UNL     1      -1.610  12.119  22.748  0.00  0.00    +0.000 A 
ATOM     15  N   UNL     1      -1.096  12.169  21.453  0.00  0.00    +0.000 N 
BRANCH  10  16
ATOM     16  O   UNL     1      -4.226  13.027  19.621  0.00  0.00    +0.000 OA
ATOM     17  H   UNL     1      -4.246  12.316  18.965  0.00  0.00    +0.000 HD
ENDBRANCH  10  16
ENDBRANCH   7  15
ENDBRANCH   3   7
ENDBRANCH   2   5
ENDBRANCH   1   2
BRANCH   1  18
ATOM     18  C   UNL     1       2.911   7.911  17.648  0.00  0.00    +0.000 C 
BRANCH  18  19
ATOM     19  N   UNL     1       3.448   7.094  18.710  0.00  0.00    +0.000 N 
ATOM     20  H   UNL     1       3.539   7.529  19.626  0.00  0.00    +0.000 HD
BRANCH  19  21
ATOM     21  C   UNL     1       3.674   5.718  18.649  0.00  0.00    +0.000 A 
ATOM     22  C   UNL     1       2.760   4.707  18.997  0.00  0.00    +0.000 A 
ATOM     23  C   UNL     1       2.980   3.463  18.414  0.00  0.00    +0.000 A 
ATOM     24  N   UNL     1       3.690   3.328  17.273  0.00  0.00    +0.000 NA
ATOM     25  C   UNL     1       4.543   4.312  16.954  0.00  0.00    +0.000 A 
ATOM     26  C   UNL     1       5.212   4.415  15.740  0.00  0.00    +0.000 A 
ATOM     27  C   UNL     1       6.342   5.229  15.600  0.00  0.00    +0.000 A 
ATOM     28  C   UNL     1       6.863   5.856  16.724  0.00  0.00    +0.000 A 
ATOM     29  C   UNL     1       6.063   5.946  17.853  0.00  0.00    +0.000 A 
ATOM     30  C   UNL     1       4.790   5.326  17.864  0.00  0.00    +0.000 A 
ATOM     31  C   UNL     1       2.498   2.204  19.077  0.00  0.00    +0.000 C 
ATOM     32  C   UNL     1       1.827   2.413  20.433  0.00  0.00    +0.000 C 
ATOM     33  C   UNL     1       0.933   3.637  20.480  0.00  0.00    +0.000 C 
ATOM     34  C   UNL     1       1.521   4.885  19.824  0.00  0.00    +0.000 C 
ENDBRANCH  19  21
ENDBRANCH  18  19
ENDBRANCH   1  18
TORSDOF 8
ENDMDL
MODEL 9
REMARK VINA RESULT:      -7.8      3.072      5.824
REMARK  Name = 
REMARK  9 active torsions:
REMARK  status: ('A' for Active; 'I' for Inactive)
REMARK    1  A    between atoms: C_1  and  C_2
REMARK    2  A    between atoms: C_3  and  O_4
REMARK    3  A    between atoms: N_9  and  C_10
REMARK    4  A    between atoms: C_10  and  C_11
REMARK    5  A    between atoms: N_13  and  C_14
REMARK    6  A    between atoms: C_14  and  C_15
REMARK    7  A    between atoms: C_15  and  C_16
REMARK    8  A    between atoms: C_16  and  N_17
REMARK    9  A    between atoms: N_17  and  C_18
REMARK                            x       y       z     vdW  Elec       q    Type
REMARK                         _______ _______ _______ _____ _____    ______ ____
ROOT
ATOM      1  C   UNL     1       1.847   7.170  20.455  0.00  0.00    +0.000 C 
ENDROOT
BRANCH   1   2
ATOM      2  C   UNL     1       1.247   8.367  21.211  0.00  0.00    +0.000 C 
BRANCH   2   5
ATOM      3  C   UNL     1       0.534  10.704  20.754  0.00  0.00    +0.000 C 
ATOM      4  O   UNL     1       0.873  11.085  21.873  0.00  0.00    +0.000 OA
ATOM      5  N   UNL     1       0.694   9.393  20.339  0.00  0.00    +0.000 N 
ATOM      6  H   UNL     1       0.303   9.113  19.448  0.00  0.00    +0.000 HD
BRANCH   3   7
ATOM      7  C   UNL     1      -0.087  11.650  19.722  0.00  0.00    +0.000 C 
BRANCH   7  15
ATOM      8  C   UNL     1      -0.923  14.475  19.857  0.00  0.00    +0.000 C 
ATOM      9  C   UNL     1       0.457  14.128  19.358  0.00  0.00    +0.000 A 
ATOM     10  C   UNL     1       1.302  15.097  18.935  0.00  0.00    +0.000 A 
ATOM     11  C   UNL     1       2.617  14.727  18.309  0.00  0.00    +0.000 A 
ATOM     12  O   UNL     1       3.446  15.556  17.937  0.00  0.00    +0.000 OA
ATOM     13  C   UNL     1       2.888  13.287  18.139  0.00  0.00    +0.000 A 
ATOM     14  C   UNL     1       2.010  12.419  18.642  0.00  0.00    +0.000 A 
ATOM     15  N   UNL     1       0.840  12.755  19.320  0.00  0.00    +0.000 N 
BRANCH  10  16
ATOM     16  O   UNL     1       1.025  16.463  18.996  0.00  0.00    +0.000 OA
ATOM     17  H   UNL     1       1.671  16.885  19.580  0.00  0.00    +0.000 HD
ENDBRANCH  10  16
ENDBRANCH   7  15
ENDBRANCH   3   7
ENDBRANCH   2   5
ENDBRANCH   1   2
BRANCH   1  18
ATOM     18  C   UNL     1       2.267   7.609  19.056  0.00  0.00    +0.000 C 
BRANCH  18  19
ATOM     19  N   UNL     1       2.315   6.534  18.093  0.00  0.00    +0.000 N 
ATOM     20  H   UNL     1       1.685   6.599  17.296  0.00  0.00    +0.000 HD
BRANCH  19  21
ATOM     21  C   UNL     1       3.272   5.518  18.048  0.00  0.00    +0.000 A 
ATOM     22  C   UNL     1       4.662   5.688  17.926  0.00  0.00    +0.000 A 
ATOM     23  C   UNL     1       5.445   4.636  18.390  0.00  0.00    +0.000 A 
ATOM     24  N   UNL     1       4.980   3.748  19.295  0.00  0.00    +0.000 NA
ATOM     25  C   UNL     1       3.650   3.615  19.404  0.00  0.00    +0.000 A 
ATOM     26  C   UNL     1       3.009   2.884  20.398  0.00  0.00    +0.000 A 
ATOM     27  C   UNL     1       1.677   2.480  20.256  0.00  0.00    +0.000 A 
ATOM     28  C   UNL     1       1.025   2.720  19.055  0.00  0.00    +0.000 A 
ATOM     29  C   UNL     1       1.577   3.646  18.184  0.00  0.00    +0.000 A 
ATOM     30  C   UNL     1       2.821   4.247  18.494  0.00  0.00    +0.000 A 
ATOM     31  C   UNL     1       6.824   4.398  17.841  0.00  0.00    +0.000 C 
ATOM     32  C   UNL     1       7.237   5.351  16.721  0.00  0.00    +0.000 C 
ATOM     33  C   UNL     1       6.792   6.782  16.952  0.00  0.00    +0.000 C 
ATOM     34  C   UNL     1       5.362   6.933  17.466  0.00  0.00    +0.000 C 
ENDBRANCH  19  21
ENDBRANCH  18  19
ENDBRANCH   1  18
TORSDOF 8
ENDMDL
