MODEL 1
REMARK VINA RESULT:      -8.0      0.000      0.000
REMARK  Name = 
REMARK  11 active torsions:
REMARK  status: ('A' for Active; 'I' for Inactive)
REMARK    1  A    between atoms: C_1  and  O_2
REMARK    2  A    between atoms: O_2  and  C_3
REMARK    3  A    between atoms: C_6  and  C_7
REMARK    4  A    between atoms: N_9  and  C_10
REMARK    5  A    between atoms: C_10  and  C_11
REMARK    6  A    between atoms: C_13  and  C_14
REMARK    7  A    between atoms: C_14  and  C_15
REMARK    8  A    between atoms: C_14  and  C_16
REMARK    9  A    between atoms: C_20  and  O_21
REMARK   10  A    between atoms: O_21  and  C_22
REMARK   11  A    between atoms: C_22  and  C_23
REMARK                            x       y       z     vdW  Elec       q    Type
REMARK                         _______ _______ _______ _____ _____    ______ ____
ROOT
ATOM      1  C   UNL     1       1.869   4.274  20.144  0.00  0.00    +0.000 A 
ATOM      2  C   UNL     1       2.676   3.484  19.305  0.00  0.00    +0.000 A 
ATOM      3  C   UNL     1       3.576   4.057  18.404  0.00  0.00    +0.000 A 
ATOM      4  C   UNL     1       3.721   5.438  18.361  0.00  0.00    +0.000 A 
ATOM      5  C   UNL     1       2.972   6.228  19.236  0.00  0.00    +0.000 A 
ATOM      6  C   UNL     1       1.993   5.669  20.086  0.00  0.00    +0.000 A 
ENDROOT
BRANCH   4   7
ATOM      7  C   UNL     1       4.690   6.037  17.409  0.00  0.00    +0.000 C 
ATOM      8  O   UNL     1       4.450   7.127  16.905  0.00  0.00    +0.000 OA
ATOM      9  N   UNL     1       5.845   5.325  17.150  0.00  0.00    +0.000 N 
ATOM     10  H   UNL     1       6.044   4.461  17.629  0.00  0.00    +0.000 HD
BRANCH   9  11
ATOM     11  C   UNL     1       6.846   5.809  16.214  0.00  0.00    +0.000 C 
BRANCH  11  12
ATOM     12  C   UNL     1       6.743   5.052  14.950  0.00  0.00    +0.000 A 
ATOM     13  C   UNL     1       5.899   4.070  14.492  0.00  0.00    +0.000 A 
ATOM     14  C   UNL     1       6.360   3.782  13.186  0.00  0.00    +0.000 A 
ATOM     15  N   UNL     1       7.404   4.559  12.863  0.00  0.00    +0.000 NA
ATOM     16  O   UNL     1       7.639   5.356  13.971  0.00  0.00    +0.000 OA
BRANCH  14  17
ATOM     17  C   UNL     1       5.843   2.754  12.223  0.00  0.00    +0.000 C 
ATOM     18  C   UNL     1       4.599   3.265  11.492  0.00  0.00    +0.000 C 
ATOM     19  C   UNL     1       6.914   2.329  11.217  0.00  0.00    +0.000 C 
ENDBRANCH  14  17
ENDBRANCH  11  12
ENDBRANCH   9  11
ENDBRANCH   4   7
BRANCH   1  21
ATOM     20  C   UNL     1       1.651   2.492  21.748  0.00  0.00    +0.000 C 
ATOM     21  O   UNL     1       1.072   3.503  20.943  0.00  0.00    +0.000 OA
ENDBRANCH   1  21
BRANCH   6  22
ATOM     22  O   UNL     1       1.175   6.477  20.853  0.00  0.00    +0.000 OA
BRANCH  22  23
ATOM     23  C   UNL     1       1.831   7.671  21.313  0.00  0.00    +0.000 C 
BRANCH  23  24
ATOM     24  C   UNL     1       0.970   8.904  21.357  0.00  0.00    +0.000 A 
ATOM     25  C   UNL     1       0.522   9.547  20.199  0.00  0.00    +0.000 A 
ATOM     26  C   UNL     1      -0.354  10.630  20.299  0.00  0.00    +0.000 A 
ATOM     27  C   UNL     1      -0.796  11.069  21.549  0.00  0.00    +0.000 A 
ATOM     28  C   UNL     1      -0.368  10.426  22.706  0.00  0.00    +0.000 A 
ATOM     29  C   UNL     1       0.504   9.345  22.608  0.00  0.00    +0.000 A 
ENDBRANCH  23  24
ENDBRANCH  22  23
ENDBRANCH   6  22
TORSDOF 8
ENDMDL
MODEL 2
REMARK VINA RESULT:      -7.9      1.367      1.690
REMARK  Name = 
REMARK  11 active torsions:
REMARK  status: ('A' for Active; 'I' for Inactive)
REMARK    1  A    between atoms: C_1  and  O_2
REMARK    2  A    between atoms: O_2  and  C_3
REMARK    3  A    between atoms: C_6  and  C_7
REMARK    4  A    between atoms: N_9  and  C_10
REMARK    5  A    between atoms: C_10  and  C_11
REMARK    6  A    between atoms: C_13  and  C_14
REMARK    7  A    between atoms: C_14  and  C_15
REMARK    8  A    between atoms: C_14  and  C_16
REMARK    9  A    between atoms: C_20  and  O_21
REMARK   10  A    between atoms: O_21  and  C_22
REMARK   11  A    between atoms: C_22  and  C_23
REMARK                            x       y       z     vdW  Elec       q    Type
REMARK                         _______ _______ _______ _____ _____    ______ ____
ROOT
ATOM      1  C   UNL     1       2.481   4.014  20.194  0.00  0.00    +0.000 A 
ATOM      2  C   UNL     1       3.503   3.048  20.164  0.00  0.00    +0.000 A 
ATOM      3  C   UNL     1       4.673   3.244  19.428  0.00  0.00    +0.000 A 
ATOM      4  C   UNL     1       4.864   4.438  18.744  0.00  0.00    +0.000 A 
ATOM      5  C   UNL     1       3.884   5.430  18.821  0.00  0.00    +0.000 A 
ATOM      6  C   UNL     1       2.658   5.211  19.485  0.00  0.00    +0.000 A 
ENDROOT
BRANCH   4   7
ATOM      7  C   UNL     1       6.118   4.642  17.976  0.00  0.00    +0.000 C 
ATOM      8  O   UNL     1       7.200   4.458  18.520  0.00  0.00    +0.000 OA
ATOM      9  N   UNL     1       5.995   5.021  16.653  0.00  0.00    +0.000 N 
ATOM     10  H   UNL     1       5.091   5.103  16.216  0.00  0.00    +0.000 HD
BRANCH   9  11
ATOM     11  C   UNL     1       7.159   5.273  15.820  0.00  0.00    +0.000 C 
BRANCH  11  12
ATOM     12  C   UNL     1       6.902   4.772  14.454  0.00  0.00    +0.000 A 
ATOM     13  C   UNL     1       5.975   3.917  13.909  0.00  0.00    +0.000 A 
ATOM     14  C   UNL     1       6.297   3.871  12.533  0.00  0.00    +0.000 A 
ATOM     15  N   UNL     1       7.339   4.667  12.256  0.00  0.00    +0.000 NA
ATOM     16  O   UNL     1       7.714   5.232  13.463  0.00  0.00    +0.000 OA
BRANCH  14  17
ATOM     17  C   UNL     1       5.645   3.059  11.453  0.00  0.00    +0.000 C 
ATOM     18  C   UNL     1       6.030   1.582  11.572  0.00  0.00    +0.000 C 
ATOM     19  C   UNL     1       4.124   3.213  11.465  0.00  0.00    +0.000 C 
ENDBRANCH  14  17
ENDBRANCH  11  12
ENDBRANCH   9  11
ENDBRANCH   4   7
BRANCH   1  21
ATOM     20  C   UNL     1       1.577   2.476  21.810  0.00  0.00    +0.000 C 
ATOM     21  O   UNL     1       1.436   3.614  20.980  0.00  0.00    +0.000 OA
ENDBRANCH   1  21
BRANCH   6  22
ATOM     22  O   UNL     1       1.650   6.156  19.444  0.00  0.00    +0.000 OA
BRANCH  22  23
ATOM     23  C   UNL     1       1.771   7.155  20.470  0.00  0.00    +0.000 C 
BRANCH  23  24
ATOM     24  C   UNL     1       1.480   8.566  20.035  0.00  0.00    +0.000 A 
ATOM     25  C   UNL     1       1.606   8.981  18.707  0.00  0.00    +0.000 A 
ATOM     26  C   UNL     1       1.229  10.276  18.343  0.00  0.00    +0.000 A 
ATOM     27  C   UNL     1       0.716  11.157  19.298  0.00  0.00    +0.000 A 
ATOM     28  C   UNL     1       0.573  10.748  20.620  0.00  0.00    +0.000 A 
ATOM     29  C   UNL     1       0.947   9.457  20.983  0.00  0.00    +0.000 A 
ENDBRANCH  23  24
ENDBRANCH  22  23
ENDBRANCH   6  22
TORSDOF 8
ENDMDL
MODEL 3
REMARK VINA RESULT:      -7.9      1.044      1.534
REMARK  Name = 
REMARK  11 active torsions:
REMARK  status: ('A' for Active; 'I' for Inactive)
REMARK    1  A    between atoms: C_1  and  O_2
REMARK    2  A    between atoms: O_2  and  C_3
REMARK    3  A    between atoms: C_6  and  C_7
REMARK    4  A    between atoms: N_9  and  C_10
REMARK    5  A    between atoms: C_10  and  C_11
REMARK    6  A    between atoms: C_13  and  C_14
REMARK    7  A    between atoms: C_14  and  C_15
REMARK    8  A    between atoms: C_14  and  C_16
REMARK    9  A    between atoms: C_20  and  O_21
REMARK   10  A    between atoms: O_21  and  C_22
REMARK   11  A    between atoms: C_22  and  C_23
REMARK                            x       y       z     vdW  Elec       q    Type
REMARK                         _______ _______ _______ _____ _____    ______ ____
ROOT
ATOM      1  C   UNL     1       2.260   4.113  20.314  0.00  0.00    +0.000 A 
ATOM      2  C   UNL     1       3.214   3.106  20.085  0.00  0.00    +0.000 A 
ATOM      3  C   UNL     1       4.417   3.372  19.429  0.00  0.00    +0.000 A 
ATOM      4  C   UNL     1       4.710   4.671  19.030  0.00  0.00    +0.000 A 
ATOM      5  C   UNL     1       3.799   5.691  19.312  0.00  0.00    +0.000 A 
ATOM      6  C   UNL     1       2.540   5.421  19.892  0.00  0.00    +0.000 A 
ENDROOT
BRANCH   4   7
ATOM      7  C   UNL     1       5.998   4.947  18.346  0.00  0.00    +0.000 C 
ATOM      8  O   UNL     1       6.994   5.210  19.009  0.00  0.00    +0.000 OA
ATOM      9  N   UNL     1       6.010   4.875  16.966  0.00  0.00    +0.000 N 
ATOM     10  H   UNL     1       5.190   4.594  16.452  0.00  0.00    +0.000 HD
BRANCH   9  11
ATOM     11  C   UNL     1       7.211   5.153  16.198  0.00  0.00    +0.000 C 
BRANCH  11  12
ATOM     12  C   UNL     1       6.995   4.761  14.790  0.00  0.00    +0.000 A 
ATOM     13  C   UNL     1       6.104   3.929  14.157  0.00  0.00    +0.000 A 
ATOM     14  C   UNL     1       6.452   4.007  12.788  0.00  0.00    +0.000 A 
ATOM     15  N   UNL     1       7.475   4.854  12.600  0.00  0.00    +0.000 NA
ATOM     16  O   UNL     1       7.810   5.326  13.857  0.00  0.00    +0.000 OA
BRANCH  14  17
ATOM     17  C   UNL     1       5.846   3.270  11.631  0.00  0.00    +0.000 C 
ATOM     18  C   UNL     1       6.352   1.826  11.576  0.00  0.00    +0.000 C 
ATOM     19  C   UNL     1       4.317   3.295  11.679  0.00  0.00    +0.000 C 
ENDBRANCH  14  17
ENDBRANCH  11  12
ENDBRANCH   9  11
ENDBRANCH   4   7
BRANCH   1  21
ATOM     20  C   UNL     1       1.308   2.526  21.852  0.00  0.00    +0.000 C 
ATOM     21  O   UNL     1       1.166   3.628  20.975  0.00  0.00    +0.000 OA
ENDBRANCH   1  21
BRANCH   6  22
ATOM     22  O   UNL     1       1.602   6.424  20.048  0.00  0.00    +0.000 OA
BRANCH  22  23
ATOM     23  C   UNL     1       2.011   7.441  20.977  0.00  0.00    +0.000 C 
BRANCH  23  24
ATOM     24  C   UNL     1       1.071   8.608  21.110  0.00  0.00    +0.000 A 
ATOM     25  C   UNL     1       0.527   8.996  22.338  0.00  0.00    +0.000 A 
ATOM     26  C   UNL     1      -0.262  10.146  22.418  0.00  0.00    +0.000 A 
ATOM     27  C   UNL     1      -0.502  10.919  21.281  0.00  0.00    +0.000 A 
ATOM     28  C   UNL     1       0.047  10.550  20.057  0.00  0.00    +0.000 A 
ATOM     29  C   UNL     1       0.835   9.405  19.975  0.00  0.00    +0.000 A 
ENDBRANCH  23  24
ENDBRANCH  22  23
ENDBRANCH   6  22
TORSDOF 8
ENDMDL
MODEL 4
REMARK VINA RESULT:      -7.8      3.438      9.017
REMARK  Name = 
REMARK  11 active torsions:
REMARK  status: ('A' for Active; 'I' for Inactive)
REMARK    1  A    between atoms: C_1  and  O_2
REMARK    2  A    between atoms: O_2  and  C_3
REMARK    3  A    between atoms: C_6  and  C_7
REMARK    4  A    between atoms: N_9  and  C_10
REMARK    5  A    between atoms: C_10  and  C_11
REMARK    6  A    between atoms: C_13  and  C_14
REMARK    7  A    between atoms: C_14  and  C_15
REMARK    8  A    between atoms: C_14  and  C_16
REMARK    9  A    between atoms: C_20  and  O_21
REMARK   10  A    between atoms: O_21  and  C_22
REMARK   11  A    between atoms: C_22  and  C_23
REMARK                            x       y       z     vdW  Elec       q    Type
REMARK                         _______ _______ _______ _____ _____    ______ ____
ROOT
ATOM      1  C   UNL     1       3.447   4.264  17.802  0.00  0.00    +0.000 A 
ATOM      2  C   UNL     1       2.172   4.658  18.249  0.00  0.00    +0.000 A 
ATOM      3  C   UNL     1       1.816   6.004  18.351  0.00  0.00    +0.000 A 
ATOM      4  C   UNL     1       2.717   6.986  17.960  0.00  0.00    +0.000 A 
ATOM      5  C   UNL     1       3.962   6.604  17.452  0.00  0.00    +0.000 A 
ATOM      6  C   UNL     1       4.369   5.252  17.429  0.00  0.00    +0.000 A 
ENDROOT
BRANCH   4   7
ATOM      7  C   UNL     1       2.324   8.414  18.060  0.00  0.00    +0.000 C 
ATOM      8  O   UNL     1       2.737   9.216  17.232  0.00  0.00    +0.000 OA
ATOM      9  N   UNL     1       1.482   8.767  19.096  0.00  0.00    +0.000 N 
ATOM     10  H   UNL     1       1.108   8.074  19.724  0.00  0.00    +0.000 HD
BRANCH   9  11
ATOM     11  C   UNL     1       1.059  10.143  19.300  0.00  0.00    +0.000 C 
BRANCH  11  12
ATOM     12  C   UNL     1      -0.291  10.330  18.728  0.00  0.00    +0.000 A 
ATOM     13  C   UNL     1      -0.959   9.786  17.659  0.00  0.00    +0.000 A 
ATOM     14  C   UNL     1      -2.228  10.412  17.673  0.00  0.00    +0.000 A 
ATOM     15  N   UNL     1      -2.331  11.265  18.701  0.00  0.00    +0.000 NA
ATOM     16  O   UNL     1      -1.115  11.209  19.362  0.00  0.00    +0.000 OA
BRANCH  14  17
ATOM     17  C   UNL     1      -3.360  10.237  16.705  0.00  0.00    +0.000 C 
ATOM     18  C   UNL     1      -4.467  11.262  16.966  0.00  0.00    +0.000 C 
ATOM     19  C   UNL     1      -2.886  10.327  15.253  0.00  0.00    +0.000 C 
ENDBRANCH  14  17
ENDBRANCH  11  12
ENDBRANCH   9  11
ENDBRANCH   4   7
BRANCH   1  21
ATOM     20  C   UNL     1       3.838   2.199  18.975  0.00  0.00    +0.000 C 
ATOM     21  O   UNL     1       3.571   2.904  17.776  0.00  0.00    +0.000 OA
ENDBRANCH   1  21
BRANCH   6  22
ATOM     22  O   UNL     1       5.649   4.905  17.041  0.00  0.00    +0.000 OA
BRANCH  22  23
ATOM     23  C   UNL     1       6.154   5.715  15.966  0.00  0.00    +0.000 C 
BRANCH  23  24
ATOM     24  C   UNL     1       6.376   4.995  14.665  0.00  0.00    +0.000 A 
ATOM     25  C   UNL     1       5.466   4.063  14.158  0.00  0.00    +0.000 A 
ATOM     26  C   UNL     1       5.676   3.498  12.898  0.00  0.00    +0.000 A 
ATOM     27  C   UNL     1       6.786   3.866  12.134  0.00  0.00    +0.000 A 
ATOM     28  C   UNL     1       7.690   4.804  12.623  0.00  0.00    +0.000 A 
ATOM     29  C   UNL     1       7.481   5.369  13.878  0.00  0.00    +0.000 A 
ENDBRANCH  23  24
ENDBRANCH  22  23
ENDBRANCH   6  22
TORSDOF 8
ENDMDL
MODEL 5
REMARK VINA RESULT:      -7.7      3.719      8.062
REMARK  Name = 
REMARK  11 active torsions:
REMARK  status: ('A' for Active; 'I' for Inactive)
REMARK    1  A    between atoms: C_1  and  O_2
REMARK    2  A    between atoms: O_2  and  C_3
REMARK    3  A    between atoms: C_6  and  C_7
REMARK    4  A    between atoms: N_9  and  C_10
REMARK    5  A    between atoms: C_10  and  C_11
REMARK    6  A    between atoms: C_13  and  C_14
REMARK    7  A    between atoms: C_14  and  C_15
REMARK    8  A    between atoms: C_14  and  C_16
REMARK    9  A    between atoms: C_20  and  O_21
REMARK   10  A    between atoms: O_21  and  C_22
REMARK   11  A    between atoms: C_22  and  C_23
REMARK                            x       y       z     vdW  Elec       q    Type
REMARK                         _______ _______ _______ _____ _____    ______ ____
ROOT
ATOM      1  C   UNL     1       2.774   4.498  19.731  0.00  0.00    +0.000 A 
ATOM      2  C   UNL     1       2.064   5.382  20.563  0.00  0.00    +0.000 A 
ATOM      3  C   UNL     1       1.854   6.715  20.205  0.00  0.00    +0.000 A 
ATOM      4  C   UNL     1       2.312   7.178  18.978  0.00  0.00    +0.000 A 
ATOM      5  C   UNL     1       2.961   6.291  18.115  0.00  0.00    +0.000 A 
ATOM      6  C   UNL     1       3.260   4.966  18.502  0.00  0.00    +0.000 A 
ENDROOT
BRANCH   4   7
ATOM      7  C   UNL     1       2.072   8.593  18.600  0.00  0.00    +0.000 C 
ATOM      8  O   UNL     1       2.396   8.987  17.487  0.00  0.00    +0.000 OA
ATOM      9  N   UNL     1       1.469   9.405  19.540  0.00  0.00    +0.000 N 
ATOM     10  H   UNL     1       1.156   9.037  20.424  0.00  0.00    +0.000 HD
BRANCH   9  11
ATOM     11  C   UNL     1       1.214  10.813  19.281  0.00  0.00    +0.000 C 
BRANCH  11  12
ATOM     12  C   UNL     1      -0.088  10.958  18.598  0.00  0.00    +0.000 A 
ATOM     13  C   UNL     1      -1.021  10.069  18.123  0.00  0.00    +0.000 A 
ATOM     14  C   UNL     1      -2.042  10.880  17.575  0.00  0.00    +0.000 A 
ATOM     15  N   UNL     1      -1.757  12.181  17.731  0.00  0.00    +0.000 NA
ATOM     16  O   UNL     1      -0.533  12.225  18.375  0.00  0.00    +0.000 OA
BRANCH  14  17
ATOM     17  C   UNL     1      -3.295  10.449  16.872  0.00  0.00    +0.000 C 
ATOM     18  C   UNL     1      -2.980   9.900  15.478  0.00  0.00    +0.000 C 
ATOM     19  C   UNL     1      -4.076   9.415  17.686  0.00  0.00    +0.000 C 
ENDBRANCH  14  17
ENDBRANCH  11  12
ENDBRANCH   9  11
ENDBRANCH   4   7
BRANCH   1  21
ATOM     20  C   UNL     1       2.252   2.992  21.535  0.00  0.00    +0.000 C 
ATOM     21  O   UNL     1       2.851   3.247  20.278  0.00  0.00    +0.000 OA
ENDBRANCH   1  21
BRANCH   6  22
ATOM     22  O   UNL     1       4.012   4.143  17.686  0.00  0.00    +0.000 OA
BRANCH  22  23
ATOM     23  C   UNL     1       4.813   4.866  16.737  0.00  0.00    +0.000 C 
BRANCH  23  24
ATOM     24  C   UNL     1       6.007   5.580  17.311  0.00  0.00    +0.000 A 
ATOM     25  C   UNL     1       6.368   6.872  16.920  0.00  0.00    +0.000 A 
ATOM     26  C   UNL     1       7.427   7.522  17.557  0.00  0.00    +0.000 A 
ATOM     27  C   UNL     1       8.123   6.894  18.592  0.00  0.00    +0.000 A 
ATOM     28  C   UNL     1       7.762   5.613  18.999  0.00  0.00    +0.000 A 
ATOM     29  C   UNL     1       6.705   4.964  18.366  0.00  0.00    +0.000 A 
ENDBRANCH  23  24
ENDBRANCH  22  23
ENDBRANCH   6  22
TORSDOF 8
ENDMDL
MODEL 6
REMARK VINA RESULT:      -7.7      3.334      8.248
REMARK  Name = 
REMARK  11 active torsions:
REMARK  status: ('A' for Active; 'I' for Inactive)
REMARK    1  A    between atoms: C_1  and  O_2
REMARK    2  A    between atoms: O_2  and  C_3
REMARK    3  A    between atoms: C_6  and  C_7
REMARK    4  A    between atoms: N_9  and  C_10
REMARK    5  A    between atoms: C_10  and  C_11
REMARK    6  A    between atoms: C_13  and  C_14
REMARK    7  A    between atoms: C_14  and  C_15
REMARK    8  A    between atoms: C_14  and  C_16
REMARK    9  A    between atoms: C_20  and  O_21
REMARK   10  A    between atoms: O_21  and  C_22
REMARK   11  A    between atoms: C_22  and  C_23
REMARK                            x       y       z     vdW  Elec       q    Type
REMARK                         _______ _______ _______ _____ _____    ______ ____
ROOT
ATOM      1  C   UNL     1       4.679   5.595  16.423  0.00  0.00    +0.000 A 
ATOM      2  C   UNL     1       4.702   6.995  16.557  0.00  0.00    +0.000 A 
ATOM      3  C   UNL     1       3.868   7.658  17.459  0.00  0.00    +0.000 A 
ATOM      4  C   UNL     1       3.026   6.923  18.285  0.00  0.00    +0.000 A 
ATOM      5  C   UNL     1       3.043   5.529  18.207  0.00  0.00    +0.000 A 
ATOM      6  C   UNL     1       3.813   4.851  17.236  0.00  0.00    +0.000 A 
ENDROOT
BRANCH   4   7
ATOM      7  C   UNL     1       2.152   7.636  19.251  0.00  0.00    +0.000 C 
ATOM      8  O   UNL     1       1.870   7.107  20.319  0.00  0.00    +0.000 OA
ATOM      9  N   UNL     1       1.707   8.894  18.893  0.00  0.00    +0.000 N 
ATOM     10  H   UNL     1       2.008   9.329  18.035  0.00  0.00    +0.000 HD
BRANCH   9  11
ATOM     11  C   UNL     1       0.827   9.665  19.754  0.00  0.00    +0.000 C 
BRANCH  11  12
ATOM     12  C   UNL     1      -0.311  10.175  18.962  0.00  0.00    +0.000 A 
ATOM     13  C   UNL     1      -0.745   9.972  17.675  0.00  0.00    +0.000 A 
ATOM     14  C   UNL     1      -1.905  10.773  17.558  0.00  0.00    +0.000 A 
ATOM     15  N   UNL     1      -2.171  11.404  18.710  0.00  0.00    +0.000 NA
ATOM     16  O   UNL     1      -1.171  11.024  19.589  0.00  0.00    +0.000 OA
BRANCH  14  17
ATOM     17  C   UNL     1      -2.774  10.980  16.352  0.00  0.00    +0.000 C 
ATOM     18  C   UNL     1      -2.750   9.749  15.443  0.00  0.00    +0.000 C 
ATOM     19  C   UNL     1      -4.212  11.327  16.740  0.00  0.00    +0.000 C 
ENDBRANCH  14  17
ENDBRANCH  11  12
ENDBRANCH   9  11
ENDBRANCH   4   7
BRANCH   1  21
ATOM     20  C   UNL     1       6.859   4.719  15.899  0.00  0.00    +0.000 C 
ATOM     21  O   UNL     1       5.580   5.166  15.489  0.00  0.00    +0.000 OA
ENDBRANCH   1  21
BRANCH   6  22
ATOM     22  O   UNL     1       3.722   3.479  17.091  0.00  0.00    +0.000 OA
BRANCH  22  23
ATOM     23  C   UNL     1       2.459   2.948  17.525  0.00  0.00    +0.000 C 
BRANCH  23  24
ATOM     24  C   UNL     1       2.319   2.747  19.009  0.00  0.00    +0.000 A 
ATOM     25  C   UNL     1       3.396   2.382  19.821  0.00  0.00    +0.000 A 
ATOM     26  C   UNL     1       3.230   2.305  21.206  0.00  0.00    +0.000 A 
ATOM     27  C   UNL     1       1.996   2.601  21.788  0.00  0.00    +0.000 A 
ATOM     28  C   UNL     1       0.921   2.980  20.989  0.00  0.00    +0.000 A 
ATOM     29  C   UNL     1       1.085   3.058  19.609  0.00  0.00    +0.000 A 
ENDBRANCH  23  24
ENDBRANCH  22  23
ENDBRANCH   6  22
TORSDOF 8
ENDMDL
MODEL 7
REMARK VINA RESULT:      -7.7      1.484      4.606
REMARK  Name = 
REMARK  11 active torsions:
REMARK  status: ('A' for Active; 'I' for Inactive)
REMARK    1  A    between atoms: C_1  and  O_2
REMARK    2  A    between atoms: O_2  and  C_3
REMARK    3  A    between atoms: C_6  and  C_7
REMARK    4  A    between atoms: N_9  and  C_10
REMARK    5  A    between atoms: C_10  and  C_11
REMARK    6  A    between atoms: C_13  and  C_14
REMARK    7  A    between atoms: C_14  and  C_15
REMARK    8  A    between atoms: C_14  and  C_16
REMARK    9  A    between atoms: C_20  and  O_21
REMARK   10  A    between atoms: O_21  and  C_22
REMARK   11  A    between atoms: C_22  and  C_23
REMARK                            x       y       z     vdW  Elec       q    Type
REMARK                         _______ _______ _______ _____ _____    ______ ____
ROOT
ATOM      1  C   UNL     1       1.934   7.729  19.256  0.00  0.00    +0.000 A 
ATOM      2  C   UNL     1       2.387   8.489  18.163  0.00  0.00    +0.000 A 
ATOM      3  C   UNL     1       3.525   8.126  17.440  0.00  0.00    +0.000 A 
ATOM      4  C   UNL     1       4.207   6.962  17.770  0.00  0.00    +0.000 A 
ATOM      5  C   UNL     1       3.727   6.164  18.812  0.00  0.00    +0.000 A 
ATOM      6  C   UNL     1       2.633   6.566  19.608  0.00  0.00    +0.000 A 
ENDROOT
BRANCH   4   7
ATOM      7  C   UNL     1       5.408   6.577  16.988  0.00  0.00    +0.000 C 
ATOM      8  O   UNL     1       5.760   7.266  16.038  0.00  0.00    +0.000 OA
ATOM      9  N   UNL     1       6.091   5.446  17.391  0.00  0.00    +0.000 N 
ATOM     10  H   UNL     1       5.814   4.935  18.214  0.00  0.00    +0.000 HD
BRANCH   9  11
ATOM     11  C   UNL     1       7.263   4.968  16.678  0.00  0.00    +0.000 C 
BRANCH  11  12
ATOM     12  C   UNL     1       6.870   4.535  15.321  0.00  0.00    +0.000 A 
ATOM     13  C   UNL     1       6.007   3.583  14.835  0.00  0.00    +0.000 A 
ATOM     14  C   UNL     1       6.108   3.692  13.429  0.00  0.00    +0.000 A 
ATOM     15  N   UNL     1       6.961   4.666  13.083  0.00  0.00    +0.000 NA
ATOM     16  O   UNL     1       7.435   5.194  14.272  0.00  0.00    +0.000 OA
BRANCH  14  17
ATOM     17  C   UNL     1       5.421   2.867  12.381  0.00  0.00    +0.000 C 
ATOM     18  C   UNL     1       4.480   3.728  11.535  0.00  0.00    +0.000 C 
ATOM     19  C   UNL     1       6.424   2.138  11.485  0.00  0.00    +0.000 C 
ENDBRANCH  14  17
ENDBRANCH  11  12
ENDBRANCH   9  11
ENDBRANCH   4   7
BRANCH   1  21
ATOM     20  C   UNL     1       0.643   9.673  19.850  0.00  0.00    +0.000 C 
ATOM     21  O   UNL     1       0.804   8.266  19.806  0.00  0.00    +0.000 OA
ENDBRANCH   1  21
BRANCH   6  22
ATOM     22  O   UNL     1       2.251   5.827  20.712  0.00  0.00    +0.000 OA
BRANCH  22  23
ATOM     23  C   UNL     1       1.406   4.712  20.382  0.00  0.00    +0.000 C 
BRANCH  23  24
ATOM     24  C   UNL     1       2.078   3.592  19.637  0.00  0.00    +0.000 A 
ATOM     25  C   UNL     1       1.681   3.198  18.356  0.00  0.00    +0.000 A 
ATOM     26  C   UNL     1       2.403   2.217  17.673  0.00  0.00    +0.000 A 
ATOM     27  C   UNL     1       3.529   1.633  18.258  0.00  0.00    +0.000 A 
ATOM     28  C   UNL     1       3.941   2.028  19.526  0.00  0.00    +0.000 A 
ATOM     29  C   UNL     1       3.223   3.007  20.208  0.00  0.00    +0.000 A 
ENDBRANCH  23  24
ENDBRANCH  22  23
ENDBRANCH   6  22
TORSDOF 8
ENDMDL
MODEL 8
REMARK VINA RESULT:      -7.7      3.622      9.404
REMARK  Name = 
REMARK  11 active torsions:
REMARK  status: ('A' for Active; 'I' for Inactive)
REMARK    1  A    between atoms: C_1  and  O_2
REMARK    2  A    between atoms: O_2  and  C_3
REMARK    3  A    between atoms: C_6  and  C_7
REMARK    4  A    between atoms: N_9  and  C_10
REMARK    5  A    between atoms: C_10  and  C_11
REMARK    6  A    between atoms: C_13  and  C_14
REMARK    7  A    between atoms: C_14  and  C_15
REMARK    8  A    between atoms: C_14  and  C_16
REMARK    9  A    between atoms: C_20  and  O_21
REMARK   10  A    between atoms: O_21  and  C_22
REMARK   11  A    between atoms: C_22  and  C_23
REMARK                            x       y       z     vdW  Elec       q    Type
REMARK                         _______ _______ _______ _____ _____    ______ ____
ROOT
ATOM      1  C   UNL     1       3.010   4.675  19.411  0.00  0.00    +0.000 A 
ATOM      2  C   UNL     1       2.381   5.476  20.382  0.00  0.00    +0.000 A 
ATOM      3  C   UNL     1       2.031   6.802  20.121  0.00  0.00    +0.000 A 
ATOM      4  C   UNL     1       2.262   7.340  18.861  0.00  0.00    +0.000 A 
ATOM      5  C   UNL     1       2.827   6.534  17.870  0.00  0.00    +0.000 A 
ATOM      6  C   UNL     1       3.268   5.221  18.146  0.00  0.00    +0.000 A 
ENDROOT
BRANCH   4   7
ATOM      7  C   UNL     1       1.875   8.747  18.590  0.00  0.00    +0.000 C 
ATOM      8  O   UNL     1       2.155   9.257  17.513  0.00  0.00    +0.000 OA
ATOM      9  N   UNL     1       1.188   9.417  19.584  0.00  0.00    +0.000 N 
ATOM     10  H   UNL     1       0.916   8.952  20.435  0.00  0.00    +0.000 HD
BRANCH   9  11
ATOM     11  C   UNL     1       0.786  10.805  19.431  0.00  0.00    +0.000 C 
BRANCH  11  12
ATOM     12  C   UNL     1      -0.005  11.220  20.608  0.00  0.00    +0.000 A 
ATOM     13  C   UNL     1      -1.264  11.743  20.776  0.00  0.00    +0.000 A 
ATOM     14  C   UNL     1      -1.398  11.912  22.174  0.00  0.00    +0.000 A 
ATOM     15  N   UNL     1      -0.298  11.493  22.815  0.00  0.00    +0.000 NA
ATOM     16  O   UNL     1       0.572  11.058  21.830  0.00  0.00    +0.000 OA
BRANCH  14  17
ATOM     17  C   UNL     1      -2.554  12.491  22.933  0.00  0.00    +0.000 C 
ATOM     18  C   UNL     1      -2.167  13.817  23.593  0.00  0.00    +0.000 C 
ATOM     19  C   UNL     1      -3.783  12.681  22.042  0.00  0.00    +0.000 C 
ENDBRANCH  14  17
ENDBRANCH  11  12
ENDBRANCH   9  11
ENDBRANCH   4   7
BRANCH   1  21
ATOM     20  C   UNL     1       2.573   2.310  19.315  0.00  0.00    +0.000 C 
ATOM     21  O   UNL     1       3.253   3.415  19.882  0.00  0.00    +0.000 OA
ENDBRANCH   1  21
BRANCH   6  22
ATOM     22  O   UNL     1       3.938   4.483  17.188  0.00  0.00    +0.000 OA
BRANCH  22  23
ATOM     23  C   UNL     1       4.921   5.248  16.471  0.00  0.00    +0.000 C 
BRANCH  23  24
ATOM     24  C   UNL     1       6.013   5.847  17.313  0.00  0.00    +0.000 A 
ATOM     25  C   UNL     1       6.595   5.163  18.384  0.00  0.00    +0.000 A 
ATOM     26  C   UNL     1       7.672   5.729  19.071  0.00  0.00    +0.000 A 
ATOM     27  C   UNL     1       8.180   6.972  18.687  0.00  0.00    +0.000 A 
ATOM     28  C   UNL     1       7.618   7.655  17.612  0.00  0.00    +0.000 A 
ATOM     29  C   UNL     1       6.545   7.091  16.927  0.00  0.00    +0.000 A 
ENDBRANCH  23  24
ENDBRANCH  22  23
ENDBRANCH   6  22
TORSDOF 8
ENDMDL
MODEL 9
REMARK VINA RESULT:      -7.6      1.446      4.532
REMARK  Name = 
REMARK  11 active torsions:
REMARK  status: ('A' for Active; 'I' for Inactive)
REMARK    1  A    between atoms: C_1  and  O_2
REMARK    2  A    between atoms: O_2  and  C_3
REMARK    3  A    between atoms: C_6  and  C_7
REMARK    4  A    between atoms: N_9  and  C_10
REMARK    5  A    between atoms: C_10  and  C_11
REMARK    6  A    between atoms: C_13  and  C_14
REMARK    7  A    between atoms: C_14  and  C_15
REMARK    8  A    between atoms: C_14  and  C_16
REMARK    9  A    between atoms: C_20  and  O_21
REMARK   10  A    between atoms: O_21  and  C_22
REMARK   11  A    between atoms: C_22  and  C_23
REMARK                            x       y       z     vdW  Elec       q    Type
REMARK                         _______ _______ _______ _____ _____    ______ ____
ROOT
ATOM      1  C   UNL     1       1.834   8.131  18.876  0.00  0.00    +0.000 A 
ATOM      2  C   UNL     1       2.513   8.746  17.808  0.00  0.00    +0.000 A 
ATOM      3  C   UNL     1       3.720   8.241  17.321  0.00  0.00    +0.000 A 
ATOM      4  C   UNL     1       4.249   7.076  17.865  0.00  0.00    +0.000 A 
ATOM      5  C   UNL     1       3.548   6.422  18.881  0.00  0.00    +0.000 A 
ATOM      6  C   UNL     1       2.375   6.970  19.444  0.00  0.00    +0.000 A 
ENDROOT
BRANCH   4   7
ATOM      7  C   UNL     1       5.526   6.540  17.332  0.00  0.00    +0.000 C 
ATOM      8  O   UNL     1       6.350   7.306  16.847  0.00  0.00    +0.000 OA
ATOM      9  N   UNL     1       5.729   5.177  17.427  0.00  0.00    +0.000 N 
ATOM     10  H   UNL     1       5.060   4.581  17.888  0.00  0.00    +0.000 HD
BRANCH   9  11
ATOM     11  C   UNL     1       6.933   4.548  16.912  0.00  0.00    +0.000 C 
BRANCH  11  12
ATOM     12  C   UNL     1       6.848   4.457  15.439  0.00  0.00    +0.000 A 
ATOM     13  C   UNL     1       6.108   3.691  14.572  0.00  0.00    +0.000 A 
ATOM     14  C   UNL     1       6.519   4.110  13.285  0.00  0.00    +0.000 A 
ATOM     15  N   UNL     1       7.433   5.087  13.367  0.00  0.00    +0.000 NA
ATOM     16  O   UNL     1       7.634   5.303  14.720  0.00  0.00    +0.000 OA
BRANCH  14  17
ATOM     17  C   UNL     1       6.077   3.584  11.951  0.00  0.00    +0.000 C 
ATOM     18  C   UNL     1       6.819   2.291  11.600  0.00  0.00    +0.000 C 
ATOM     19  C   UNL     1       4.565   3.359  11.901  0.00  0.00    +0.000 C 
ENDBRANCH  14  17
ENDBRANCH  11  12
ENDBRANCH   9  11
ENDBRANCH   4   7
BRANCH   1  21
ATOM     20  C   UNL     1       0.662   9.743  20.227  0.00  0.00    +0.000 C 
ATOM     21  O   UNL     1       0.676   8.791  19.179  0.00  0.00    +0.000 OA
ENDBRANCH   1  21
BRANCH   6  22
ATOM     22  O   UNL     1       1.766   6.373  20.532  0.00  0.00    +0.000 OA
BRANCH  22  23
ATOM     23  C   UNL     1       2.422   5.166  20.956  0.00  0.00    +0.000 C 
BRANCH  23  24
ATOM     24  C   UNL     1       2.212   3.971  20.067  0.00  0.00    +0.000 A 
ATOM     25  C   UNL     1       3.254   3.113  19.705  0.00  0.00    +0.000 A 
ATOM     26  C   UNL     1       2.982   1.965  18.958  0.00  0.00    +0.000 A 
ATOM     27  C   UNL     1       1.673   1.660  18.579  0.00  0.00    +0.000 A 
ATOM     28  C   UNL     1       0.627   2.500  18.948  0.00  0.00    +0.000 A 
ATOM     29  C   UNL     1       0.895   3.645  19.693  0.00  0.00    +0.000 A 
ENDBRANCH  23  24
ENDBRANCH  22  23
ENDBRANCH   6  22
TORSDOF 8
ENDMDL
