MODEL 1
REMARK VINA RESULT:      -7.2      0.000      0.000
REMARK  Name = 
REMARK  13 active torsions:
REMARK  status: ('A' for Active; 'I' for Inactive)
REMARK    1  A    between atoms: C_1  and  C_2
REMARK    2  A    between atoms: C_2  and  N_3
REMARK    3  A    between atoms: N_3  and  C_4
REMARK    4  A    between atoms: N_3  and  C_6
REMARK    5  A    between atoms: C_4  and  C_5
REMARK    6  A    between atoms: C_6  and  C_7
REMARK    7  A    between atoms: C_7  and  O_8
REMARK    8  A    between atoms: O_8  and  C_9
REMARK    9  A    between atoms: C_9  and  C_11
REMARK   10  A    between atoms: C_19  and  O_20
REMARK   11  A    between atoms: O_20  and  C_21
REMARK   12  A    between atoms: C_21  and  C_22
REMARK   13  A    between atoms: C_21  and  C_23
REMARK                            x       y       z     vdW  Elec       q    Type
REMARK                         _______ _______ _______ _____ _____    ______ ____
ROOT
ATOM      1  C   UNL     1       3.194   4.834  18.266  0.00  0.00    +0.000 A 
ATOM      2  C   UNL     1       2.830   4.382  19.593  0.00  0.00    +0.000 A 
ATOM      3  C   UNL     1       2.261   5.212  20.474  0.00  0.00    +0.000 A 
ATOM      4  C   UNL     1       1.976   6.624  20.097  0.00  0.00    +0.000 A 
ATOM      5  N   UNL     1       1.422   7.408  20.966  0.00  0.00    +0.000 NA
ATOM      6  C   UNL     1       1.156   8.728  20.593  0.00  0.00    +0.000 A 
ATOM      7  C   UNL     1       0.507   9.575  21.493  0.00  0.00    +0.000 A 
ATOM      8  C   UNL     1       0.180  10.886  21.124  0.00  0.00    +0.000 A 
ATOM      9  C   UNL     1       0.502  11.366  19.854  0.00  0.00    +0.000 A 
ATOM     10  C   UNL     1       1.213  10.551  18.979  0.00  0.00    +0.000 A 
ATOM     11  C   UNL     1       1.504   9.232  19.343  0.00  0.00    +0.000 A 
ATOM     12  C   UNL     1       2.142   8.321  18.379  0.00  0.00    +0.000 A 
ATOM     13  O   UNL     1       2.447   8.749  17.265  0.00  0.00    +0.000 OA
ATOM     14  N   UNL     1       2.344   7.010  18.809  0.00  0.00    +0.000 N 
ATOM     15  C   UNL     1       2.935   6.107  17.924  0.00  0.00    +0.000 A 
ENDROOT
BRANCH   1  16
ATOM     16  C   UNL     1       3.942   3.919  17.353  0.00  0.00    +0.000 C 
ATOM     17  O   UNL     1       4.155   2.742  17.599  0.00  0.00    +0.000 OA
BRANCH  16  18
ATOM     18  O   UNL     1       4.513   4.624  16.345  0.00  0.00    +0.000 OA
BRANCH  18  19
ATOM     19  C   UNL     1       5.834   4.180  16.002  0.00  0.00    +0.000 C 
BRANCH  19  20
ATOM     20  C   UNL     1       6.794   5.346  15.736  0.00  0.00    +0.000 C 
BRANCH  20  21
ATOM     21  N   UNL     1       7.431   5.890  16.957  0.00  0.00    +0.000 NA
BRANCH  21  23
ATOM     22  C   UNL     1       7.896   8.291  17.586  0.00  0.00    +0.000 C 
ATOM     23  C   UNL     1       6.861   7.211  17.276  0.00  0.00    +0.000 C 
ENDBRANCH  21  23
BRANCH  21  24
ATOM     24  C   UNL     1       7.449   4.959  18.096  0.00  0.00    +0.000 C 
ATOM     25  C   UNL     1       6.813   5.465  19.387  0.00  0.00    +0.000 C 
ENDBRANCH  21  24
ENDBRANCH  20  21
ENDBRANCH  19  20
ENDBRANCH  18  19
ENDBRANCH  16  18
ENDBRANCH   1  16
BRANCH   9  26
ATOM     26  O   UNL     1       0.052  12.625  19.567  0.00  0.00    +0.000 OA
BRANCH  26  27
ATOM     27  C   UNL     1       1.022  13.607  19.172  0.00  0.00    +0.000 C 
ATOM     28  C   UNL     1       0.365  14.947  18.835  0.00  0.00    +0.000 C 
ATOM     29  C   UNL     1       1.966  13.797  20.358  0.00  0.00    +0.000 C 
ENDBRANCH  26  27
ENDBRANCH   9  26
TORSDOF 9
ENDMDL
MODEL 2
REMARK VINA RESULT:      -7.2      2.982      4.763
REMARK  Name = 
REMARK  13 active torsions:
REMARK  status: ('A' for Active; 'I' for Inactive)
REMARK    1  A    between atoms: C_1  and  C_2
REMARK    2  A    between atoms: C_2  and  N_3
REMARK    3  A    between atoms: N_3  and  C_4
REMARK    4  A    between atoms: N_3  and  C_6
REMARK    5  A    between atoms: C_4  and  C_5
REMARK    6  A    between atoms: C_6  and  C_7
REMARK    7  A    between atoms: C_7  and  O_8
REMARK    8  A    between atoms: O_8  and  C_9
REMARK    9  A    between atoms: C_9  and  C_11
REMARK   10  A    between atoms: C_19  and  O_20
REMARK   11  A    between atoms: O_20  and  C_21
REMARK   12  A    between atoms: C_21  and  C_22
REMARK   13  A    between atoms: C_21  and  C_23
REMARK                            x       y       z     vdW  Elec       q    Type
REMARK                         _______ _______ _______ _____ _____    ______ ____
ROOT
ATOM      1  C   UNL     1       2.496   7.473  18.917  0.00  0.00    +0.000 A 
ATOM      2  C   UNL     1       2.197   8.210  17.707  0.00  0.00    +0.000 A 
ATOM      3  C   UNL     1       1.379   9.269  17.726  0.00  0.00    +0.000 A 
ATOM      4  C   UNL     1       0.769   9.720  19.007  0.00  0.00    +0.000 A 
ATOM      5  N   UNL     1      -0.017  10.750  19.001  0.00  0.00    +0.000 NA
ATOM      6  C   UNL     1      -0.576  11.163  20.213  0.00  0.00    +0.000 A 
ATOM      7  C   UNL     1      -1.379  12.304  20.241  0.00  0.00    +0.000 A 
ATOM      8  C   UNL     1      -1.907  12.772  21.451  0.00  0.00    +0.000 A 
ATOM      9  C   UNL     1      -1.641  12.101  22.646  0.00  0.00    +0.000 A 
ATOM     10  C   UNL     1      -0.901  10.923  22.615  0.00  0.00    +0.000 A 
ATOM     11  C   UNL     1      -0.349  10.484  21.407  0.00  0.00    +0.000 A 
ATOM     12  C   UNL     1       0.540   9.312  21.382  0.00  0.00    +0.000 A 
ATOM     13  O   UNL     1       0.758   8.705  22.432  0.00  0.00    +0.000 OA
ATOM     14  N   UNL     1       1.089   8.979  20.144  0.00  0.00    +0.000 N 
ATOM     15  C   UNL     1       1.947   7.881  20.074  0.00  0.00    +0.000 A 
ENDROOT
BRANCH   1  16
ATOM     16  C   UNL     1       3.309   6.223  18.840  0.00  0.00    +0.000 C 
ATOM     17  O   UNL     1       3.853   5.707  19.804  0.00  0.00    +0.000 OA
BRANCH  16  18
ATOM     18  O   UNL     1       3.523   5.880  17.545  0.00  0.00    +0.000 OA
BRANCH  18  19
ATOM     19  C   UNL     1       3.391   4.475  17.286  0.00  0.00    +0.000 C 
BRANCH  19  20
ATOM     20  C   UNL     1       2.070   3.904  17.816  0.00  0.00    +0.000 C 
BRANCH  20  21
ATOM     21  N   UNL     1       2.209   2.589  18.483  0.00  0.00    +0.000 NA
BRANCH  21  23
ATOM     22  C   UNL     1       4.249   2.156  19.908  0.00  0.00    +0.000 C 
ATOM     23  C   UNL     1       3.628   2.189  18.513  0.00  0.00    +0.000 C 
ENDBRANCH  21  23
BRANCH  21  24
ATOM     24  C   UNL     1       1.537   2.497  19.788  0.00  0.00    +0.000 C 
ATOM     25  C   UNL     1       0.884   3.777  20.299  0.00  0.00    +0.000 C 
ENDBRANCH  21  24
ENDBRANCH  20  21
ENDBRANCH  19  20
ENDBRANCH  18  19
ENDBRANCH  16  18
ENDBRANCH   1  16
BRANCH   9  26
ATOM     26  O   UNL     1      -2.125  12.697  23.778  0.00  0.00    +0.000 OA
BRANCH  26  27
ATOM     27  C   UNL     1      -3.461  13.224  23.735  0.00  0.00    +0.000 C 
ATOM     28  C   UNL     1      -4.412  12.427  24.630  0.00  0.00    +0.000 C 
ATOM     29  C   UNL     1      -3.383  14.663  24.244  0.00  0.00    +0.000 C 
ENDBRANCH  26  27
ENDBRANCH   9  26
TORSDOF 9
ENDMDL
MODEL 3
REMARK VINA RESULT:      -7.0      2.546      8.520
REMARK  Name = 
REMARK  13 active torsions:
REMARK  status: ('A' for Active; 'I' for Inactive)
REMARK    1  A    between atoms: C_1  and  C_2
REMARK    2  A    between atoms: C_2  and  N_3
REMARK    3  A    between atoms: N_3  and  C_4
REMARK    4  A    between atoms: N_3  and  C_6
REMARK    5  A    between atoms: C_4  and  C_5
REMARK    6  A    between atoms: C_6  and  C_7
REMARK    7  A    between atoms: C_7  and  O_8
REMARK    8  A    between atoms: O_8  and  C_9
REMARK    9  A    between atoms: C_9  and  C_11
REMARK   10  A    between atoms: C_19  and  O_20
REMARK   11  A    between atoms: O_20  and  C_21
REMARK   12  A    between atoms: C_21  and  C_22
REMARK   13  A    between atoms: C_21  and  C_23
REMARK                            x       y       z     vdW  Elec       q    Type
REMARK                         _______ _______ _______ _____ _____    ______ ____
ROOT
ATOM      1  C   UNL     1       0.496  10.223  20.339  0.00  0.00    +0.000 A 
ATOM      2  C   UNL     1       0.229   9.436  21.525  0.00  0.00    +0.000 A 
ATOM      3  C   UNL     1       0.681   8.182  21.640  0.00  0.00    +0.000 A 
ATOM      4  C   UNL     1       1.484   7.573  20.544  0.00  0.00    +0.000 A 
ATOM      5  N   UNL     1       1.912   6.358  20.678  0.00  0.00    +0.000 NA
ATOM      6  C   UNL     1       2.670   5.805  19.643  0.00  0.00    +0.000 A 
ATOM      7  C   UNL     1       3.192   4.519  19.789  0.00  0.00    +0.000 A 
ATOM      8  C   UNL     1       4.000   3.962  18.791  0.00  0.00    +0.000 A 
ATOM      9  C   UNL     1       4.292   4.683  17.632  0.00  0.00    +0.000 A 
ATOM     10  C   UNL     1       3.717   5.936  17.447  0.00  0.00    +0.000 A 
ATOM     11  C   UNL     1       2.940   6.498  18.466  0.00  0.00    +0.000 A 
ATOM     12  C   UNL     1       2.432   7.873  18.337  0.00  0.00    +0.000 A 
ATOM     13  O   UNL     1       2.670   8.503  17.306  0.00  0.00    +0.000 OA
ATOM     14  N   UNL     1       1.715   8.371  19.424  0.00  0.00    +0.000 N 
ATOM     15  C   UNL     1       1.223   9.675  19.351  0.00  0.00    +0.000 A 
ENDROOT
BRANCH   1  16
ATOM     16  C   UNL     1      -0.129  11.571  20.191  0.00  0.00    +0.000 C 
ATOM     17  O   UNL     1      -0.851  12.080  21.034  0.00  0.00    +0.000 OA
BRANCH  16  18
ATOM     18  O   UNL     1       0.048  12.036  18.929  0.00  0.00    +0.000 OA
BRANCH  18  19
ATOM     19  C   UNL     1      -1.101  12.706  18.391  0.00  0.00    +0.000 C 
BRANCH  19  20
ATOM     20  C   UNL     1      -1.915  11.808  17.451  0.00  0.00    +0.000 C 
BRANCH  20  21
ATOM     21  N   UNL     1      -2.878  10.925  18.149  0.00  0.00    +0.000 NA
BRANCH  21  23
ATOM     22  C   UNL     1      -5.117  11.910  17.521  0.00  0.00    +0.000 C 
ATOM     23  C   UNL     1      -4.047  11.707  18.591  0.00  0.00    +0.000 C 
ENDBRANCH  21  23
BRANCH  21  24
ATOM     24  C   UNL     1      -3.225   9.702  17.409  0.00  0.00    +0.000 C 
ATOM     25  C   UNL     1      -2.813   9.667  15.940  0.00  0.00    +0.000 C 
ENDBRANCH  21  24
ENDBRANCH  20  21
ENDBRANCH  19  20
ENDBRANCH  18  19
ENDBRANCH  16  18
ENDBRANCH   1  16
BRANCH   9  26
ATOM     26  O   UNL     1       5.167   4.083  16.769  0.00  0.00    +0.000 OA
BRANCH  26  27
ATOM     27  C   UNL     1       6.319   4.835  16.357  0.00  0.00    +0.000 C 
ATOM     28  C   UNL     1       7.524   4.562  17.259  0.00  0.00    +0.000 C 
ATOM     29  C   UNL     1       6.650   4.391  14.933  0.00  0.00    +0.000 C 
ENDBRANCH  26  27
ENDBRANCH   9  26
TORSDOF 9
ENDMDL
MODEL 4
REMARK VINA RESULT:      -7.0      2.904      4.160
REMARK  Name = 
REMARK  13 active torsions:
REMARK  status: ('A' for Active; 'I' for Inactive)
REMARK    1  A    between atoms: C_1  and  C_2
REMARK    2  A    between atoms: C_2  and  N_3
REMARK    3  A    between atoms: N_3  and  C_4
REMARK    4  A    between atoms: N_3  and  C_6
REMARK    5  A    between atoms: C_4  and  C_5
REMARK    6  A    between atoms: C_6  and  C_7
REMARK    7  A    between atoms: C_7  and  O_8
REMARK    8  A    between atoms: O_8  and  C_9
REMARK    9  A    between atoms: C_9  and  C_11
REMARK   10  A    between atoms: C_19  and  O_20
REMARK   11  A    between atoms: O_20  and  C_21
REMARK   12  A    between atoms: C_21  and  C_22
REMARK   13  A    between atoms: C_21  and  C_23
REMARK                            x       y       z     vdW  Elec       q    Type
REMARK                         _______ _______ _______ _____ _____    ______ ____
ROOT
ATOM      1  C   UNL     1       2.227   7.451  19.477  0.00  0.00    +0.000 A 
ATOM      2  C   UNL     1       2.134   8.160  18.218  0.00  0.00    +0.000 A 
ATOM      3  C   UNL     1       1.440   9.300  18.115  0.00  0.00    +0.000 A 
ATOM      4  C   UNL     1       0.758   9.871  19.309  0.00  0.00    +0.000 A 
ATOM      5  N   UNL     1       0.095  10.977  19.185  0.00  0.00    +0.000 NA
ATOM      6  C   UNL     1      -0.533  11.502  20.318  0.00  0.00    +0.000 A 
ATOM      7  C   UNL     1      -1.205  12.722  20.222  0.00  0.00    +0.000 A 
ATOM      8  C   UNL     1      -1.797  13.297  21.354  0.00  0.00    +0.000 A 
ATOM      9  C   UNL     1      -1.728  12.656  22.592  0.00  0.00    +0.000 A 
ATOM     10  C   UNL     1      -1.123  11.406  22.679  0.00  0.00    +0.000 A 
ATOM     11  C   UNL     1      -0.505  10.857  21.551  0.00  0.00    +0.000 A 
ATOM     12  C   UNL     1       0.248   9.597  21.660  0.00  0.00    +0.000 A 
ATOM     13  O   UNL     1       0.292   9.019  22.746  0.00  0.00    +0.000 OA
ATOM     14  N   UNL     1       0.878   9.153  20.498  0.00  0.00    +0.000 N 
ATOM     15  C   UNL     1       1.613   7.968  20.555  0.00  0.00    +0.000 A 
ENDROOT
BRANCH   1  16
ATOM     16  C   UNL     1       2.901   6.120  19.527  0.00  0.00    +0.000 C 
ATOM     17  O   UNL     1       2.633   5.255  20.348  0.00  0.00    +0.000 OA
BRANCH  16  18
ATOM     18  O   UNL     1       3.967   6.100  18.690  0.00  0.00    +0.000 OA
BRANCH  18  19
ATOM     19  C   UNL     1       5.054   5.285  19.152  0.00  0.00    +0.000 C 
BRANCH  19  20
ATOM     20  C   UNL     1       5.672   4.442  18.030  0.00  0.00    +0.000 C 
BRANCH  20  21
ATOM     21  N   UNL     1       6.839   5.077  17.375  0.00  0.00    +0.000 NA
BRANCH  21  23
ATOM     22  C   UNL     1       6.817   4.548  14.906  0.00  0.00    +0.000 C 
ATOM     23  C   UNL     1       6.469   5.531  16.022  0.00  0.00    +0.000 C 
ENDBRANCH  21  23
BRANCH  21  24
ATOM     24  C   UNL     1       7.502   6.108  18.188  0.00  0.00    +0.000 C 
ATOM     25  C   UNL     1       7.624   7.490  17.553  0.00  0.00    +0.000 C 
ENDBRANCH  21  24
ENDBRANCH  20  21
ENDBRANCH  19  20
ENDBRANCH  18  19
ENDBRANCH  16  18
ENDBRANCH   1  16
BRANCH   9  26
ATOM     26  O   UNL     1      -2.255  13.351  23.646  0.00  0.00    +0.000 OA
BRANCH  26  27
ATOM     27  C   UNL     1      -3.683  13.493  23.705  0.00  0.00    +0.000 C 
ATOM     28  C   UNL     1      -4.316  12.458  24.636  0.00  0.00    +0.000 C 
ATOM     29  C   UNL     1      -3.965  14.893  24.247  0.00  0.00    +0.000 C 
ENDBRANCH  26  27
ENDBRANCH   9  26
TORSDOF 9
ENDMDL
MODEL 5
REMARK VINA RESULT:      -7.0      2.634      3.779
REMARK  Name = 
REMARK  13 active torsions:
REMARK  status: ('A' for Active; 'I' for Inactive)
REMARK    1  A    between atoms: C_1  and  C_2
REMARK    2  A    between atoms: C_2  and  N_3
REMARK    3  A    between atoms: N_3  and  C_4
REMARK    4  A    between atoms: N_3  and  C_6
REMARK    5  A    between atoms: C_4  and  C_5
REMARK    6  A    between atoms: C_6  and  C_7
REMARK    7  A    between atoms: C_7  and  O_8
REMARK    8  A    between atoms: O_8  and  C_9
REMARK    9  A    between atoms: C_9  and  C_11
REMARK   10  A    between atoms: C_19  and  O_20
REMARK   11  A    between atoms: O_20  and  C_21
REMARK   12  A    between atoms: C_21  and  C_22
REMARK   13  A    between atoms: C_21  and  C_23
REMARK                            x       y       z     vdW  Elec       q    Type
REMARK                         _______ _______ _______ _____ _____    ______ ____
ROOT
ATOM      1  C   UNL     1       2.598   7.166  18.953  0.00  0.00    +0.000 A 
ATOM      2  C   UNL     1       2.552   7.965  17.747  0.00  0.00    +0.000 A 
ATOM      3  C   UNL     1       1.907   9.137  17.717  0.00  0.00    +0.000 A 
ATOM      4  C   UNL     1       1.231   9.650  18.941  0.00  0.00    +0.000 A 
ATOM      5  N   UNL     1       0.616  10.789  18.889  0.00  0.00    +0.000 NA
ATOM      6  C   UNL     1      -0.007  11.258  20.048  0.00  0.00    +0.000 A 
ATOM      7  C   UNL     1      -0.628  12.508  20.032  0.00  0.00    +0.000 A 
ATOM      8  C   UNL     1      -1.212  13.026  21.195  0.00  0.00    +0.000 A 
ATOM      9  C   UNL     1      -1.187  12.298  22.385  0.00  0.00    +0.000 A 
ATOM     10  C   UNL     1      -0.634  11.020  22.390  0.00  0.00    +0.000 A 
ATOM     11  C   UNL     1      -0.022  10.527  21.233  0.00  0.00    +0.000 A 
ATOM     12  C   UNL     1       0.677   9.232  21.260  0.00  0.00    +0.000 A 
ATOM     13  O   UNL     1       0.681   8.578  22.303  0.00  0.00    +0.000 OA
ATOM     14  N   UNL     1       1.305   8.845  20.077  0.00  0.00    +0.000 N 
ATOM     15  C   UNL     1       1.990   7.630  20.058  0.00  0.00    +0.000 A 
ENDROOT
BRANCH   1  16
ATOM     16  C   UNL     1       3.217   5.808  18.916  0.00  0.00    +0.000 C 
ATOM     17  O   UNL     1       4.038   5.414  19.730  0.00  0.00    +0.000 OA
BRANCH  16  18
ATOM     18  O   UNL     1       2.900   5.177  17.758  0.00  0.00    +0.000 OA
BRANCH  18  19
ATOM     19  C   UNL     1       3.942   4.329  17.255  0.00  0.00    +0.000 C 
BRANCH  19  20
ATOM     20  C   UNL     1       5.030   5.114  16.513  0.00  0.00    +0.000 C 
BRANCH  20  21
ATOM     21  N   UNL     1       6.328   4.405  16.426  0.00  0.00    +0.000 NA
BRANCH  21  23
ATOM     22  C   UNL     1       5.997   4.047  13.948  0.00  0.00    +0.000 C 
ATOM     23  C   UNL     1       6.894   4.558  15.074  0.00  0.00    +0.000 C 
ENDBRANCH  21  23
BRANCH  21  24
ATOM     24  C   UNL     1       7.270   4.733  17.507  0.00  0.00    +0.000 C 
ATOM     25  C   UNL     1       7.123   6.118  18.130  0.00  0.00    +0.000 C 
ENDBRANCH  21  24
ENDBRANCH  20  21
ENDBRANCH  19  20
ENDBRANCH  18  19
ENDBRANCH  16  18
ENDBRANCH   1  16
BRANCH   9  26
ATOM     26  O   UNL     1      -1.700  12.937  23.479  0.00  0.00    +0.000 OA
BRANCH  26  27
ATOM     27  C   UNL     1      -2.991  13.553  23.348  0.00  0.00    +0.000 C 
ATOM     28  C   UNL     1      -4.107  12.639  23.856  0.00  0.00    +0.000 C 
ATOM     29  C   UNL     1      -2.961  14.824  24.195  0.00  0.00    +0.000 C 
ENDBRANCH  26  27
ENDBRANCH   9  26
TORSDOF 9
ENDMDL
MODEL 6
REMARK VINA RESULT:      -7.0      2.717      3.844
REMARK  Name = 
REMARK  13 active torsions:
REMARK  status: ('A' for Active; 'I' for Inactive)
REMARK    1  A    between atoms: C_1  and  C_2
REMARK    2  A    between atoms: C_2  and  N_3
REMARK    3  A    between atoms: N_3  and  C_4
REMARK    4  A    between atoms: N_3  and  C_6
REMARK    5  A    between atoms: C_4  and  C_5
REMARK    6  A    between atoms: C_6  and  C_7
REMARK    7  A    between atoms: C_7  and  O_8
REMARK    8  A    between atoms: O_8  and  C_9
REMARK    9  A    between atoms: C_9  and  C_11
REMARK   10  A    between atoms: C_19  and  O_20
REMARK   11  A    between atoms: O_20  and  C_21
REMARK   12  A    between atoms: C_21  and  C_22
REMARK   13  A    between atoms: C_21  and  C_23
REMARK                            x       y       z     vdW  Elec       q    Type
REMARK                         _______ _______ _______ _____ _____    ______ ____
ROOT
ATOM      1  C   UNL     1       2.423   7.232  19.131  0.00  0.00    +0.000 A 
ATOM      2  C   UNL     1       2.363   7.999  17.904  0.00  0.00    +0.000 A 
ATOM      3  C   UNL     1       1.723   9.173  17.852  0.00  0.00    +0.000 A 
ATOM      4  C   UNL     1       1.067   9.722  19.071  0.00  0.00    +0.000 A 
ATOM      5  N   UNL     1       0.455  10.861  18.997  0.00  0.00    +0.000 NA
ATOM      6  C   UNL     1      -0.149  11.364  20.152  0.00  0.00    +0.000 A 
ATOM      7  C   UNL     1      -0.764  12.617  20.111  0.00  0.00    +0.000 A 
ATOM      8  C   UNL     1      -1.330  13.169  21.267  0.00  0.00    +0.000 A 
ATOM      9  C   UNL     1      -1.291  12.472  22.476  0.00  0.00    +0.000 A 
ATOM     10  C   UNL     1      -0.745  11.193  22.507  0.00  0.00    +0.000 A 
ATOM     11  C   UNL     1      -0.151  10.666  21.356  0.00  0.00    +0.000 A 
ATOM     12  C   UNL     1       0.543   9.369  21.408  0.00  0.00    +0.000 A 
ATOM     13  O   UNL     1       0.559   8.743  22.468  0.00  0.00    +0.000 OA
ATOM     14  N   UNL     1       1.153   8.948  20.227  0.00  0.00    +0.000 N 
ATOM     15  C   UNL     1       1.833   7.729  20.232  0.00  0.00    +0.000 A 
ENDROOT
BRANCH   1  16
ATOM     16  C   UNL     1       3.035   5.871  19.123  0.00  0.00    +0.000 C 
ATOM     17  O   UNL     1       2.389   4.837  19.205  0.00  0.00    +0.000 OA
BRANCH  16  18
ATOM     18  O   UNL     1       4.384   5.960  19.224  0.00  0.00    +0.000 OA
BRANCH  18  19
ATOM     19  C   UNL     1       5.093   5.109  18.312  0.00  0.00    +0.000 C 
BRANCH  19  20
ATOM     20  C   UNL     1       5.043   5.627  16.869  0.00  0.00    +0.000 C 
BRANCH  20  21
ATOM     21  N   UNL     1       6.364   6.021  16.328  0.00  0.00    +0.000 NA
BRANCH  21  23
ATOM     22  C   UNL     1       7.677   7.773  17.587  0.00  0.00    +0.000 C 
ATOM     23  C   UNL     1       7.298   6.301  17.434  0.00  0.00    +0.000 C 
ENDBRANCH  21  23
BRANCH  21  24
ATOM     24  C   UNL     1       6.902   5.100  15.314  0.00  0.00    +0.000 C 
ATOM     25  C   UNL     1       6.025   3.903  14.961  0.00  0.00    +0.000 C 
ENDBRANCH  21  24
ENDBRANCH  20  21
ENDBRANCH  19  20
ENDBRANCH  18  19
ENDBRANCH  16  18
ENDBRANCH   1  16
BRANCH   9  26
ATOM     26  O   UNL     1      -1.786  13.144  23.559  0.00  0.00    +0.000 OA
BRANCH  26  27
ATOM     27  C   UNL     1      -3.181  13.488  23.551  0.00  0.00    +0.000 C 
ATOM     28  C   UNL     1      -4.006  12.526  24.408  0.00  0.00    +0.000 C 
ATOM     29  C   UNL     1      -3.291  14.896  24.134  0.00  0.00    +0.000 C 
ENDBRANCH  26  27
ENDBRANCH   9  26
TORSDOF 9
ENDMDL
MODEL 7
REMARK VINA RESULT:      -6.9      0.830      1.634
REMARK  Name = 
REMARK  13 active torsions:
REMARK  status: ('A' for Active; 'I' for Inactive)
REMARK    1  A    between atoms: C_1  and  C_2
REMARK    2  A    between atoms: C_2  and  N_3
REMARK    3  A    between atoms: N_3  and  C_4
REMARK    4  A    between atoms: N_3  and  C_6
REMARK    5  A    between atoms: C_4  and  C_5
REMARK    6  A    between atoms: C_6  and  C_7
REMARK    7  A    between atoms: C_7  and  O_8
REMARK    8  A    between atoms: O_8  and  C_9
REMARK    9  A    between atoms: C_9  and  C_11
REMARK   10  A    between atoms: C_19  and  O_20
REMARK   11  A    between atoms: O_20  and  C_21
REMARK   12  A    between atoms: C_21  and  C_22
REMARK   13  A    between atoms: C_21  and  C_23
REMARK                            x       y       z     vdW  Elec       q    Type
REMARK                         _______ _______ _______ _____ _____    ______ ____
ROOT
ATOM      1  C   UNL     1       3.266   4.407  18.838  0.00  0.00    +0.000 A 
ATOM      2  C   UNL     1       2.781   4.161  20.180  0.00  0.00    +0.000 A 
ATOM      3  C   UNL     1       2.169   5.123  20.882  0.00  0.00    +0.000 A 
ATOM      4  C   UNL     1       1.963   6.470  20.284  0.00  0.00    +0.000 A 
ATOM      5  N   UNL     1       1.366   7.384  20.981  0.00  0.00    +0.000 NA
ATOM      6  C   UNL     1       1.175   8.640  20.401  0.00  0.00    +0.000 A 
ATOM      7  C   UNL     1       0.483   9.623  21.111  0.00  0.00    +0.000 A 
ATOM      8  C   UNL     1       0.230  10.873  20.532  0.00  0.00    +0.000 A 
ATOM      9  C   UNL     1       0.670  11.156  19.239  0.00  0.00    +0.000 A 
ATOM     10  C   UNL     1       1.423  10.207  18.553  0.00  0.00    +0.000 A 
ATOM     11  C   UNL     1       1.640   8.950  19.126  0.00  0.00    +0.000 A 
ATOM     12  C   UNL     1       2.323   7.895  18.360  0.00  0.00    +0.000 A 
ATOM     13  O   UNL     1       2.731   8.150  17.227  0.00  0.00    +0.000 OA
ATOM     14  N   UNL     1       2.446   6.657  18.989  0.00  0.00    +0.000 N 
ATOM     15  C   UNL     1       3.077   5.623  18.297  0.00  0.00    +0.000 A 
ENDROOT
BRANCH   1  16
ATOM     16  C   UNL     1       4.054   3.354  18.133  0.00  0.00    +0.000 C 
ATOM     17  O   UNL     1       3.977   2.162  18.391  0.00  0.00    +0.000 OA
BRANCH  16  18
ATOM     18  O   UNL     1       4.994   3.923  17.338  0.00  0.00    +0.000 OA
BRANCH  18  19
ATOM     19  C   UNL     1       6.138   4.413  18.052  0.00  0.00    +0.000 C 
BRANCH  19  20
ATOM     20  C   UNL     1       7.342   4.657  17.133  0.00  0.00    +0.000 C 
BRANCH  20  21
ATOM     21  N   UNL     1       7.248   5.904  16.339  0.00  0.00    +0.000 NA
BRANCH  21  23
ATOM     22  C   UNL     1       6.840   4.311  14.422  0.00  0.00    +0.000 C 
ATOM     23  C   UNL     1       6.516   5.647  15.086  0.00  0.00    +0.000 C 
ENDBRANCH  21  23
BRANCH  21  24
ATOM     24  C   UNL     1       6.751   7.065  17.093  0.00  0.00    +0.000 C 
ATOM     25  C   UNL     1       7.813   8.007  17.652  0.00  0.00    +0.000 C 
ENDBRANCH  21  24
ENDBRANCH  20  21
ENDBRANCH  19  20
ENDBRANCH  18  19
ENDBRANCH  16  18
ENDBRANCH   1  16
BRANCH   9  26
ATOM     26  O   UNL     1       0.286  12.369  18.737  0.00  0.00    +0.000 OA
BRANCH  26  27
ATOM     27  C   UNL     1       1.017  13.530  19.164  0.00  0.00    +0.000 C 
ATOM     28  C   UNL     1       2.185  13.839  18.225  0.00  0.00    +0.000 C 
ATOM     29  C   UNL     1       0.036  14.700  19.145  0.00  0.00    +0.000 C 
ENDBRANCH  26  27
ENDBRANCH   9  26
TORSDOF 9
ENDMDL
MODEL 8
REMARK VINA RESULT:      -6.8      2.535      3.650
REMARK  Name = 
REMARK  13 active torsions:
REMARK  status: ('A' for Active; 'I' for Inactive)
REMARK    1  A    between atoms: C_1  and  C_2
REMARK    2  A    between atoms: C_2  and  N_3
REMARK    3  A    between atoms: N_3  and  C_4
REMARK    4  A    between atoms: N_3  and  C_6
REMARK    5  A    between atoms: C_4  and  C_5
REMARK    6  A    between atoms: C_6  and  C_7
REMARK    7  A    between atoms: C_7  and  O_8
REMARK    8  A    between atoms: O_8  and  C_9
REMARK    9  A    between atoms: C_9  and  C_11
REMARK   10  A    between atoms: C_19  and  O_20
REMARK   11  A    between atoms: O_20  and  C_21
REMARK   12  A    between atoms: C_21  and  C_22
REMARK   13  A    between atoms: C_21  and  C_23
REMARK                            x       y       z     vdW  Elec       q    Type
REMARK                         _______ _______ _______ _____ _____    ______ ____
ROOT
ATOM      1  C   UNL     1       2.406   6.996  19.522  0.00  0.00    +0.000 A 
ATOM      2  C   UNL     1       2.659   7.572  18.218  0.00  0.00    +0.000 A 
ATOM      3  C   UNL     1       2.120   8.744  17.862  0.00  0.00    +0.000 A 
ATOM      4  C   UNL     1       1.255   9.490  18.817  0.00  0.00    +0.000 A 
ATOM      5  N   UNL     1       0.747  10.624  18.452  0.00  0.00    +0.000 NA
ATOM      6  C   UNL     1      -0.057  11.313  19.363  0.00  0.00    +0.000 A 
ATOM      7  C   UNL     1      -0.569  12.564  19.013  0.00  0.00    +0.000 A 
ATOM      8  C   UNL     1      -1.332  13.300  19.927  0.00  0.00    +0.000 A 
ATOM      9  C   UNL     1      -1.597  12.792  21.200  0.00  0.00    +0.000 A 
ATOM     10  C   UNL     1      -1.152  11.516  21.529  0.00  0.00    +0.000 A 
ATOM     11  C   UNL     1      -0.361  10.803  20.622  0.00  0.00    +0.000 A 
ATOM     12  C   UNL     1       0.222   9.508  21.007  0.00  0.00    +0.000 A 
ATOM     13  O   UNL     1      -0.028   9.048  22.121  0.00  0.00    +0.000 OA
ATOM     14  N   UNL     1       1.043   8.895  20.060  0.00  0.00    +0.000 N 
ATOM     15  C   UNL     1       1.627   7.670  20.385  0.00  0.00    +0.000 A 
ENDROOT
BRANCH   1  16
ATOM     16  C   UNL     1       2.918   5.630  19.839  0.00  0.00    +0.000 C 
ATOM     17  O   UNL     1       2.243   4.757  20.363  0.00  0.00    +0.000 OA
BRANCH  16  18
ATOM     18  O   UNL     1       4.261   5.577  19.659  0.00  0.00    +0.000 OA
BRANCH  18  19
ATOM     19  C   UNL     1       4.708   4.411  18.952  0.00  0.00    +0.000 C 
BRANCH  19  20
ATOM     20  C   UNL     1       5.956   4.683  18.103  0.00  0.00    +0.000 C 
BRANCH  20  21
ATOM     21  N   UNL     1       6.106   6.098  17.692  0.00  0.00    +0.000 NA
BRANCH  21  23
ATOM     22  C   UNL     1       7.753   8.009  17.591  0.00  0.00    +0.000 C 
ATOM     23  C   UNL     1       7.501   6.532  17.886  0.00  0.00    +0.000 C 
ENDBRANCH  21  23
BRANCH  21  24
ATOM     24  C   UNL     1       5.567   6.400  16.357  0.00  0.00    +0.000 C 
ATOM     25  C   UNL     1       5.571   5.250  15.355  0.00  0.00    +0.000 C 
ENDBRANCH  21  24
ENDBRANCH  20  21
ENDBRANCH  19  20
ENDBRANCH  18  19
ENDBRANCH  16  18
ENDBRANCH   1  16
BRANCH   9  26
ATOM     26  O   UNL     1      -2.269  13.634  22.043  0.00  0.00    +0.000 OA
BRANCH  26  27
ATOM     27  C   UNL     1      -2.038  13.489  23.454  0.00  0.00    +0.000 C 
ATOM     28  C   UNL     1      -1.227  14.657  24.017  0.00  0.00    +0.000 C 
ATOM     29  C   UNL     1      -3.410  13.463  24.125  0.00  0.00    +0.000 C 
ENDBRANCH  26  27
ENDBRANCH   9  26
TORSDOF 9
ENDMDL
MODEL 9
REMARK VINA RESULT:      -6.8      0.784      1.515
REMARK  Name = 
REMARK  13 active torsions:
REMARK  status: ('A' for Active; 'I' for Inactive)
REMARK    1  A    between atoms: C_1  and  C_2
REMARK    2  A    between atoms: C_2  and  N_3
REMARK    3  A    between atoms: N_3  and  C_4
REMARK    4  A    between atoms: N_3  and  C_6
REMARK    5  A    between atoms: C_4  and  C_5
REMARK    6  A    between atoms: C_6  and  C_7
REMARK    7  A    between atoms: C_7  and  O_8
REMARK    8  A    between atoms: O_8  and  C_9
REMARK    9  A    between atoms: C_9  and  C_11
REMARK   10  A    between atoms: C_19  and  O_20
REMARK   11  A    between atoms: O_20  and  C_21
REMARK   12  A    between atoms: C_21  and  C_22
REMARK   13  A    between atoms: C_21  and  C_23
REMARK                            x       y       z     vdW  Elec       q    Type
REMARK                         _______ _______ _______ _____ _____    ______ ____
ROOT
ATOM      1  C   UNL     1       3.164   4.474  18.178  0.00  0.00    +0.000 A 
ATOM      2  C   UNL     1       2.832   3.977  19.497  0.00  0.00    +0.000 A 
ATOM      3  C   UNL     1       2.308   4.782  20.429  0.00  0.00    +0.000 A 
ATOM      4  C   UNL     1       2.043   6.213  20.116  0.00  0.00    +0.000 A 
ATOM      5  N   UNL     1       1.533   6.973  21.033  0.00  0.00    +0.000 NA
ATOM      6  C   UNL     1       1.284   8.312  20.720  0.00  0.00    +0.000 A 
ATOM      7  C   UNL     1       0.682   9.136  21.673  0.00  0.00    +0.000 A 
ATOM      8  C   UNL     1       0.372  10.467  21.367  0.00  0.00    +0.000 A 
ATOM      9  C   UNL     1       0.665  10.991  20.107  0.00  0.00    +0.000 A 
ATOM     10  C   UNL     1       1.331  10.197  19.178  0.00  0.00    +0.000 A 
ATOM     11  C   UNL     1       1.604   8.859  19.481  0.00  0.00    +0.000 A 
ATOM     12  C   UNL     1       2.192   7.975  18.462  0.00  0.00    +0.000 A 
ATOM     13  O   UNL     1       2.472   8.440  17.357  0.00  0.00    +0.000 OA
ATOM     14  N   UNL     1       2.378   6.644  18.833  0.00  0.00    +0.000 N 
ATOM     15  C   UNL     1       2.923   5.765  17.896  0.00  0.00    +0.000 A 
ENDROOT
BRANCH   1  16
ATOM     16  C   UNL     1       3.863   3.581  17.207  0.00  0.00    +0.000 C 
ATOM     17  O   UNL     1       4.174   2.425  17.451  0.00  0.00    +0.000 OA
BRANCH  16  18
ATOM     18  O   UNL     1       4.278   4.291  16.129  0.00  0.00    +0.000 OA
BRANCH  18  19
ATOM     19  C   UNL     1       5.653   4.073  15.783  0.00  0.00    +0.000 C 
BRANCH  19  20
ATOM     20  C   UNL     1       6.484   5.360  15.844  0.00  0.00    +0.000 C 
BRANCH  20  21
ATOM     21  N   UNL     1       6.413   6.058  17.149  0.00  0.00    +0.000 NA
BRANCH  21  23
ATOM     22  C   UNL     1       6.521   5.218  19.528  0.00  0.00    +0.000 C 
ATOM     23  C   UNL     1       7.190   5.317  18.159  0.00  0.00    +0.000 C 
ENDBRANCH  21  23
BRANCH  21  24
ATOM     24  C   UNL     1       6.733   7.493  17.086  0.00  0.00    +0.000 C 
ATOM     25  C   UNL     1       7.961   7.942  17.872  0.00  0.00    +0.000 C 
ENDBRANCH  21  24
ENDBRANCH  20  21
ENDBRANCH  19  20
ENDBRANCH  18  19
ENDBRANCH  16  18
ENDBRANCH   1  16
BRANCH   9  26
ATOM     26  O   UNL     1       0.234  12.269  19.885  0.00  0.00    +0.000 OA
BRANCH  26  27
ATOM     27  C   UNL     1      -0.283  12.582  18.581  0.00  0.00    +0.000 C 
ATOM     28  C   UNL     1      -1.717  12.077  18.406  0.00  0.00    +0.000 C 
ATOM     29  C   UNL     1      -0.269  14.104  18.454  0.00  0.00    +0.000 C 
ENDBRANCH  26  27
ENDBRANCH   9  26
TORSDOF 9
ENDMDL
