MODEL 1
REMARK VINA RESULT:      -9.6      0.000      0.000
REMARK  Name = 
REMARK  4 active torsions:
REMARK  status: ('A' for Active; 'I' for Inactive)
REMARK    1  A    between atoms: C_6  and  C_7
REMARK    2  A    between atoms: C_7  and  N_8
REMARK    3  A    between atoms: N_8  and  C_9
REMARK    4  A    between atoms: N_21  and  C_22
REMARK                            x       y       z     vdW  Elec       q    Type
REMARK                         _______ _______ _______ _____ _____    ______ ____
ROOT
ATOM      1  O   UNL     1       1.479   8.254  17.579  0.00  0.00    +0.000 OA
ATOM      2  C   UNL     1       1.885   8.197  18.735  0.00  0.00    +0.000 C 
ATOM      3  N   UNL     1       1.494   9.074  19.737  0.00  0.00    +0.000 N 
ATOM      4  C   UNL     1       0.676  10.140  19.421  0.00  0.00    +0.000 A 
ATOM      5  C   UNL     1      -0.577  10.132  18.771  0.00  0.00    +0.000 A 
ATOM      6  C   UNL     1      -0.957  11.458  18.688  0.00  0.00    +0.000 A 
ATOM      7  N   UNL     1       0.099  12.156  19.209  0.00  0.00    +0.000 N 
ATOM      8  N   UNL     1       1.035  11.376  19.780  0.00  0.00    +0.000 NA
ATOM      9  N   UNL     1       2.816   7.282  19.215  0.00  0.00    +0.000 N 
ATOM     10  H   UNL     1       2.224   9.355  20.373  0.00  0.00    +0.000 HD
ATOM     11  H   UNL     1       0.233  13.160  19.239  0.00  0.00    +0.000 HD
ATOM     12  H   UNL     1       2.905   7.257  20.220  0.00  0.00    +0.000 HD
ENDROOT
BRANCH   9  13
ATOM     13  C   UNL     1       3.523   6.308  18.475  0.00  0.00    +0.000 A 
ATOM     14  C   UNL     1       4.563   6.614  17.579  0.00  0.00    +0.000 A 
ATOM     15  C   UNL     1       5.206   5.618  16.817  0.00  0.00    +0.000 A 
ATOM     16  C   UNL     1       4.837   4.281  16.932  0.00  0.00    +0.000 A 
ATOM     17  C   UNL     1       3.821   3.989  17.821  0.00  0.00    +0.000 A 
ATOM     18  C   UNL     1       3.185   4.964  18.603  0.00  0.00    +0.000 A 
ATOM     19  C   UNL     1       2.131   4.303  19.420  0.00  0.00    +0.000 C 
ATOM     20  C   UNL     1       2.349   4.142  20.923  0.00  0.00    +0.000 C 
ATOM     21  C   UNL     1       1.495   2.899  21.217  0.00  0.00    +0.000 C 
ATOM     22  C   UNL     1       1.723   2.001  19.995  0.00  0.00    +0.000 C 
ATOM     23  N   UNL     1       2.153   2.927  18.968  0.00  0.00    +0.000 N 
ATOM     24  C   UNL     1       3.224   2.674  18.121  0.00  0.00    +0.000 C 
ATOM     25  O   UNL     1       3.660   1.607  17.754  0.00  0.00    +0.000 OA
ENDBRANCH   9  13
BRANCH   6  26
ATOM     26  C   UNL     1      -2.184  12.118  18.159  0.00  0.00    +0.000 C 
BRANCH  26  27
ATOM     27  N   UNL     1      -3.345  11.484  18.770  0.00  0.00    +0.000 NA
ATOM     28  H   UNL     1      -3.091  11.184  19.711  0.00  0.00    +0.000 HD
BRANCH  27  29
ATOM     29  C   UNL     1      -4.552  12.329  18.845  0.00  0.00    +0.000 C 
ATOM     30  C   UNL     1      -5.907  11.569  18.930  0.00  0.00    +0.000 C 
ATOM     31  C   UNL     1      -6.437  11.905  20.289  0.00  0.00    +0.000 A 
ATOM     32  C   UNL     1      -7.584  11.419  20.893  0.00  0.00    +0.000 A 
ATOM     33  C   UNL     1      -7.896  11.843  22.192  0.00  0.00    +0.000 A 
ATOM     34  C   UNL     1      -7.055  12.745  22.853  0.00  0.00    +0.000 A 
ATOM     35 CL   UNL     1      -7.436  13.239  24.462  0.00  0.00    +0.000 Cl
ATOM     36  C   UNL     1      -5.911  13.246  22.235  0.00  0.00    +0.000 A 
ATOM     37  C   UNL     1      -5.616  12.817  20.950  0.00  0.00    +0.000 A 
ATOM     38  C   UNL     1      -4.456  13.233  20.108  0.00  0.00    +0.000 C 
ENDBRANCH  27  29
ENDBRANCH  26  27
ENDBRANCH   6  26
TORSDOF 4
ENDMDL
MODEL 2
REMARK VINA RESULT:      -9.4      1.783      2.404
REMARK  Name = 
REMARK  4 active torsions:
REMARK  status: ('A' for Active; 'I' for Inactive)
REMARK    1  A    between atoms: C_6  and  C_7
REMARK    2  A    between atoms: C_7  and  N_8
REMARK    3  A    between atoms: N_8  and  C_9
REMARK    4  A    between atoms: N_21  and  C_22
REMARK                            x       y       z     vdW  Elec       q    Type
REMARK                         _______ _______ _______ _____ _____    ______ ____
ROOT
ATOM      1  O   UNL     1       1.115   8.383  17.722  0.00  0.00    +0.000 OA
ATOM      2  C   UNL     1       1.689   8.377  18.806  0.00  0.00    +0.000 C 
ATOM      3  N   UNL     1       1.418   9.272  19.831  0.00  0.00    +0.000 N 
ATOM      4  C   UNL     1       0.523  10.300  19.612  0.00  0.00    +0.000 A 
ATOM      5  C   UNL     1      -0.812  10.230  19.155  0.00  0.00    +0.000 A 
ATOM      6  C   UNL     1      -1.250  11.538  19.094  0.00  0.00    +0.000 A 
ATOM      7  N   UNL     1      -0.155  12.287  19.433  0.00  0.00    +0.000 N 
ATOM      8  N   UNL     1       0.883  11.558  19.880  0.00  0.00    +0.000 NA
ATOM      9  N   UNL     1       2.714   7.510  19.167  0.00  0.00    +0.000 N 
ATOM     10  H   UNL     1       2.223   9.598  20.343  0.00  0.00    +0.000 HD
ATOM     11  H   UNL     1      -0.055  13.296  19.416  0.00  0.00    +0.000 HD
ATOM     12  H   UNL     1       2.952   7.520  20.148  0.00  0.00    +0.000 HD
ENDROOT
BRANCH   9  13
ATOM     13  C   UNL     1       3.341   6.537  18.357  0.00  0.00    +0.000 A 
ATOM     14  C   UNL     1       4.320   6.838  17.394  0.00  0.00    +0.000 A 
ATOM     15  C   UNL     1       4.880   5.844  16.565  0.00  0.00    +0.000 A 
ATOM     16  C   UNL     1       4.487   4.515  16.678  0.00  0.00    +0.000 A 
ATOM     17  C   UNL     1       3.531   4.226  17.633  0.00  0.00    +0.000 A 
ATOM     18  C   UNL     1       2.978   5.198  18.480  0.00  0.00    +0.000 A 
ATOM     19  C   UNL     1       1.970   4.544  19.358  0.00  0.00    +0.000 C 
ATOM     20  C   UNL     1       2.292   4.343  20.837  0.00  0.00    +0.000 C 
ATOM     21  C   UNL     1       1.430   3.115  21.166  0.00  0.00    +0.000 C 
ATOM     22  C   UNL     1       1.546   2.240  19.912  0.00  0.00    +0.000 C 
ATOM     23  N   UNL     1       1.923   3.179  18.876  0.00  0.00    +0.000 N 
ATOM     24  C   UNL     1       2.923   2.920  17.948  0.00  0.00    +0.000 C 
ATOM     25  O   UNL     1       3.304   1.851  17.527  0.00  0.00    +0.000 OA
ENDBRANCH   9  13
BRANCH   6  26
ATOM     26  C   UNL     1      -2.565  12.140  18.736  0.00  0.00    +0.000 C 
BRANCH  26  27
ATOM     27  N   UNL     1      -2.831  13.240  19.655  0.00  0.00    +0.000 NA
ATOM     28  H   UNL     1      -3.318  13.977  19.144  0.00  0.00    +0.000 HD
BRANCH  27  29
ATOM     29  C   UNL     1      -3.620  12.881  20.847  0.00  0.00    +0.000 C 
ATOM     30  C   UNL     1      -2.812  12.685  22.162  0.00  0.00    +0.000 C 
ATOM     31  C   UNL     1      -3.272  13.797  23.052  0.00  0.00    +0.000 A 
ATOM     32  C   UNL     1      -2.802  14.120  24.313  0.00  0.00    +0.000 A 
ATOM     33  C   UNL     1      -3.352  15.224  24.978  0.00  0.00    +0.000 A 
ATOM     34  C   UNL     1      -4.361  15.975  24.366  0.00  0.00    +0.000 A 
ATOM     35 CL   UNL     1      -5.012  17.348  25.184  0.00  0.00    +0.000 Cl
ATOM     36  C   UNL     1      -4.844  15.637  23.103  0.00  0.00    +0.000 A 
ATOM     37  C   UNL     1      -4.289  14.543  22.459  0.00  0.00    +0.000 A 
ATOM     38  C   UNL     1      -4.664  14.005  21.118  0.00  0.00    +0.000 C 
ENDBRANCH  27  29
ENDBRANCH  26  27
ENDBRANCH   6  26
TORSDOF 4
ENDMDL
MODEL 3
REMARK VINA RESULT:      -9.3      1.953      2.329
REMARK  Name = 
REMARK  4 active torsions:
REMARK  status: ('A' for Active; 'I' for Inactive)
REMARK    1  A    between atoms: C_6  and  C_7
REMARK    2  A    between atoms: C_7  and  N_8
REMARK    3  A    between atoms: N_8  and  C_9
REMARK    4  A    between atoms: N_21  and  C_22
REMARK                            x       y       z     vdW  Elec       q    Type
REMARK                         _______ _______ _______ _____ _____    ______ ____
ROOT
ATOM      1  O   UNL     1       1.072   8.118  17.224  0.00  0.00    +0.000 OA
ATOM      2  C   UNL     1       1.755   8.415  18.198  0.00  0.00    +0.000 C 
ATOM      3  N   UNL     1       1.497   9.500  19.023  0.00  0.00    +0.000 N 
ATOM      4  C   UNL     1       0.475  10.369  18.698  0.00  0.00    +0.000 A 
ATOM      5  C   UNL     1      -0.885  10.081  18.445  0.00  0.00    +0.000 A 
ATOM      6  C   UNL     1      -1.470  11.298  18.150  0.00  0.00    +0.000 A 
ATOM      7  N   UNL     1      -0.435  12.194  18.168  0.00  0.00    +0.000 N 
ATOM      8  N   UNL     1       0.720  11.680  18.629  0.00  0.00    +0.000 NA
ATOM      9  N   UNL     1       2.903   7.746  18.608  0.00  0.00    +0.000 N 
ATOM     10  H   UNL     1       2.311  10.003  19.341  0.00  0.00    +0.000 HD
ATOM     11  H   UNL     1      -0.451  13.176  17.913  0.00  0.00    +0.000 HD
ATOM     12  H   UNL     1       3.241   8.006  19.523  0.00  0.00    +0.000 HD
ENDROOT
BRANCH   9  13
ATOM     13  C   UNL     1       3.544   6.665  17.962  0.00  0.00    +0.000 A 
ATOM     14  C   UNL     1       4.605   6.819  17.053  0.00  0.00    +0.000 A 
ATOM     15  C   UNL     1       5.181   5.719  16.385  0.00  0.00    +0.000 A 
ATOM     16  C   UNL     1       4.720   4.426  16.611  0.00  0.00    +0.000 A 
ATOM     17  C   UNL     1       3.683   4.282  17.512  0.00  0.00    +0.000 A 
ATOM     18  C   UNL     1       3.113   5.363  18.201  0.00  0.00    +0.000 A 
ATOM     19  C   UNL     1       2.012   4.849  19.061  0.00  0.00    +0.000 C 
ATOM     20  C   UNL     1       2.212   4.804  20.575  0.00  0.00    +0.000 C 
ATOM     21  C   UNL     1       1.273   3.654  20.967  0.00  0.00    +0.000 C 
ATOM     22  C   UNL     1       1.443   2.640  19.829  0.00  0.00    +0.000 C 
ATOM     23  N   UNL     1       1.940   3.441  18.730  0.00  0.00    +0.000 N 
ATOM     24  C   UNL     1       2.994   3.043  17.919  0.00  0.00    +0.000 C 
ATOM     25  O   UNL     1       3.356   1.920  17.649  0.00  0.00    +0.000 OA
ENDBRANCH   9  13
BRANCH   6  26
ATOM     26  C   UNL     1      -2.875  11.686  17.840  0.00  0.00    +0.000 C 
BRANCH  26  27
ATOM     27  N   UNL     1      -3.758  10.626  18.310  0.00  0.00    +0.000 NA
ATOM     28  H   UNL     1      -3.712  10.595  19.328  0.00  0.00    +0.000 HD
BRANCH  27  29
ATOM     29  C   UNL     1      -5.167  10.758  17.897  0.00  0.00    +0.000 C 
ATOM     30  C   UNL     1      -6.185  11.041  19.039  0.00  0.00    +0.000 C 
ATOM     31  C   UNL     1      -6.699  12.416  18.748  0.00  0.00    +0.000 A 
ATOM     32  C   UNL     1      -7.574  13.171  19.510  0.00  0.00    +0.000 A 
ATOM     33  C   UNL     1      -7.915  14.457  19.073  0.00  0.00    +0.000 A 
ATOM     34  C   UNL     1      -7.376  14.956  17.882  0.00  0.00    +0.000 A 
ATOM     35 CL   UNL     1      -7.784  16.552  17.367  0.00  0.00    +0.000 Cl
ATOM     36  C   UNL     1      -6.509  14.187  17.108  0.00  0.00    +0.000 A 
ATOM     37  C   UNL     1      -6.181  12.916  17.554  0.00  0.00    +0.000 A 
ATOM     38  C   UNL     1      -5.287  11.930  16.879  0.00  0.00    +0.000 C 
ENDBRANCH  27  29
ENDBRANCH  26  27
ENDBRANCH   6  26
TORSDOF 4
ENDMDL
MODEL 4
REMARK VINA RESULT:      -9.3      6.948     10.705
REMARK  Name = 
REMARK  4 active torsions:
REMARK  status: ('A' for Active; 'I' for Inactive)
REMARK    1  A    between atoms: C_6  and  C_7
REMARK    2  A    between atoms: C_7  and  N_8
REMARK    3  A    between atoms: N_8  and  C_9
REMARK    4  A    between atoms: N_21  and  C_22
REMARK                            x       y       z     vdW  Elec       q    Type
REMARK                         _______ _______ _______ _____ _____    ______ ____
ROOT
ATOM      1  O   UNL     1       7.639   9.521  17.743  0.00  0.00    +0.000 OA
ATOM      2  C   UNL     1       8.533   9.279  18.547  0.00  0.00    +0.000 C 
ATOM      3  N   UNL     1       8.848   8.003  18.993  0.00  0.00    +0.000 N 
ATOM      4  C   UNL     1       8.065   6.936  18.600  0.00  0.00    +0.000 A 
ATOM      5  C   UNL     1       7.720   6.526  17.294  0.00  0.00    +0.000 A 
ATOM      6  C   UNL     1       6.908   5.420  17.457  0.00  0.00    +0.000 A 
ATOM      7  N   UNL     1       6.763   5.293  18.813  0.00  0.00    +0.000 N 
ATOM      8  N   UNL     1       7.560   6.112  19.522  0.00  0.00    +0.000 NA
ATOM      9  N   UNL     1       9.339  10.230  19.161  0.00  0.00    +0.000 N 
ATOM     10  H   UNL     1       9.086   7.935  19.970  0.00  0.00    +0.000 HD
ATOM     11  H   UNL     1       6.167   4.651  19.323  0.00  0.00    +0.000 HD
ATOM     12  H   UNL     1      10.136   9.855  19.654  0.00  0.00    +0.000 HD
ENDROOT
BRANCH   9  13
ATOM     13  C   UNL     1       9.248  11.635  19.049  0.00  0.00    +0.000 A 
ATOM     14  C   UNL     1       9.206  12.317  17.820  0.00  0.00    +0.000 A 
ATOM     15  C   UNL     1       9.173  13.725  17.749  0.00  0.00    +0.000 A 
ATOM     16  C   UNL     1       9.170  14.498  18.906  0.00  0.00    +0.000 A 
ATOM     17  C   UNL     1       9.202  13.820  20.109  0.00  0.00    +0.000 A 
ATOM     18  C   UNL     1       9.214  12.419  20.198  0.00  0.00    +0.000 A 
ATOM     19  C   UNL     1       9.275  12.037  21.635  0.00  0.00    +0.000 C 
ATOM     20  C   UNL     1       8.036  11.440  22.298  0.00  0.00    +0.000 C 
ATOM     21  C   UNL     1       8.254  11.847  23.763  0.00  0.00    +0.000 C 
ATOM     22  C   UNL     1       8.846  13.259  23.664  0.00  0.00    +0.000 C 
ATOM     23  N   UNL     1       9.401  13.302  22.327  0.00  0.00    +0.000 N 
ATOM     24  C   UNL     1       9.229  14.383  21.472  0.00  0.00    +0.000 C 
ATOM     25  O   UNL     1       9.048  15.546  21.752  0.00  0.00    +0.000 OA
ENDBRANCH   9  13
BRANCH   6  26
ATOM     26  C   UNL     1       6.254   4.502  16.482  0.00  0.00    +0.000 C 
BRANCH  26  27
ATOM     27  N   UNL     1       5.446   3.544  17.225  0.00  0.00    +0.000 NA
ATOM     28  H   UNL     1       5.757   3.544  18.197  0.00  0.00    +0.000 HD
BRANCH  27  29
ATOM     29  C   UNL     1       3.993   3.790  17.188  0.00  0.00    +0.000 C 
ATOM     30  C   UNL     1       3.171   3.180  18.360  0.00  0.00    +0.000 C 
ATOM     31  C   UNL     1       2.647   4.368  19.105  0.00  0.00    +0.000 A 
ATOM     32  C   UNL     1       1.917   4.374  20.281  0.00  0.00    +0.000 A 
ATOM     33  C   UNL     1       1.538   5.603  20.836  0.00  0.00    +0.000 A 
ATOM     34  C   UNL     1       1.896   6.797  20.199  0.00  0.00    +0.000 A 
ATOM     35 CL   UNL     1       1.447   8.305  20.907  0.00  0.00    +0.000 Cl
ATOM     36  C   UNL     1       2.616   6.787  19.006  0.00  0.00    +0.000 A 
ATOM     37  C   UNL     1       2.983   5.563  18.470  0.00  0.00    +0.000 A 
ATOM     38  C   UNL     1       3.740   5.326  17.205  0.00  0.00    +0.000 C 
ENDBRANCH  27  29
ENDBRANCH  26  27
ENDBRANCH   6  26
TORSDOF 4
ENDMDL
MODEL 5
REMARK VINA RESULT:      -9.3      4.787      6.918
REMARK  Name = 
REMARK  4 active torsions:
REMARK  status: ('A' for Active; 'I' for Inactive)
REMARK    1  A    between atoms: C_6  and  C_7
REMARK    2  A    between atoms: C_7  and  N_8
REMARK    3  A    between atoms: N_8  and  C_9
REMARK    4  A    between atoms: N_21  and  C_22
REMARK                            x       y       z     vdW  Elec       q    Type
REMARK                         _______ _______ _______ _____ _____    ______ ____
ROOT
ATOM      1  O   UNL     1       2.430   9.559  17.992  0.00  0.00    +0.000 OA
ATOM      2  C   UNL     1       1.892   8.900  18.876  0.00  0.00    +0.000 C 
ATOM      3  N   UNL     1       1.065   9.440  19.850  0.00  0.00    +0.000 N 
ATOM      4  C   UNL     1       0.897  10.809  19.912  0.00  0.00    +0.000 A 
ATOM      5  C   UNL     1       0.482  11.696  18.895  0.00  0.00    +0.000 A 
ATOM      6  C   UNL     1       0.498  12.951  19.471  0.00  0.00    +0.000 A 
ATOM      7  N   UNL     1       0.982  12.747  20.735  0.00  0.00    +0.000 N 
ATOM      8  N   UNL     1       1.101  11.448  21.067  0.00  0.00    +0.000 NA
ATOM      9  N   UNL     1       2.048   7.531  19.065  0.00  0.00    +0.000 N 
ATOM     10  H   UNL     1       1.173   9.048  20.773  0.00  0.00    +0.000 HD
ATOM     11  H   UNL     1       1.222  13.440  21.435  0.00  0.00    +0.000 HD
ATOM     12  H   UNL     1       1.401   7.118  19.720  0.00  0.00    +0.000 HD
ENDROOT
BRANCH   9  13
ATOM     13  C   UNL     1       2.894   6.657  18.347  0.00  0.00    +0.000 A 
ATOM     14  C   UNL     1       3.911   7.093  17.480  0.00  0.00    +0.000 A 
ATOM     15  C   UNL     1       4.697   6.188  16.737  0.00  0.00    +0.000 A 
ATOM     16  C   UNL     1       4.499   4.815  16.845  0.00  0.00    +0.000 A 
ATOM     17  C   UNL     1       3.504   4.395  17.706  0.00  0.00    +0.000 A 
ATOM     18  C   UNL     1       2.727   5.280  18.469  0.00  0.00    +0.000 A 
ATOM     19  C   UNL     1       1.744   4.489  19.257  0.00  0.00    +0.000 C 
ATOM     20  C   UNL     1       1.939   4.354  20.766  0.00  0.00    +0.000 C 
ATOM     21  C   UNL     1       1.242   3.013  21.040  0.00  0.00    +0.000 C 
ATOM     22  C   UNL     1       1.617   2.153  19.827  0.00  0.00    +0.000 C 
ATOM     23  N   UNL     1       1.953   3.127  18.809  0.00  0.00    +0.000 N 
ATOM     24  C   UNL     1       3.071   3.014  17.994  0.00  0.00    +0.000 C 
ATOM     25  O   UNL     1       3.650   2.011  17.641  0.00  0.00    +0.000 OA
ENDBRANCH   9  13
BRANCH   6  26
ATOM     26  C   UNL     1       0.128  14.299  18.953  0.00  0.00    +0.000 C 
BRANCH  26  27
ATOM     27  N   UNL     1       1.052  15.276  19.514  0.00  0.00    +0.000 NA
ATOM     28  H   UNL     1       1.648  14.803  20.194  0.00  0.00    +0.000 HD
BRANCH  27  29
ATOM     29  C   UNL     1       1.902  15.969  18.530  0.00  0.00    +0.000 C 
ATOM     30  C   UNL     1       2.847  17.065  19.102  0.00  0.00    +0.000 C 
ATOM     31  C   UNL     1       4.225  16.526  18.872  0.00  0.00    +0.000 A 
ATOM     32  C   UNL     1       5.428  17.084  19.270  0.00  0.00    +0.000 A 
ATOM     33  C   UNL     1       6.617  16.405  18.976  0.00  0.00    +0.000 A 
ATOM     34  C   UNL     1       6.575  15.187  18.288  0.00  0.00    +0.000 A 
ATOM     35 CL   UNL     1       8.046  14.347  17.956  0.00  0.00    +0.000 Cl
ATOM     36  C   UNL     1       5.364  14.637  17.874  0.00  0.00    +0.000 A 
ATOM     37  C   UNL     1       4.195  15.321  18.172  0.00  0.00    +0.000 A 
ATOM     38  C   UNL     1       2.803  14.920  17.814  0.00  0.00    +0.000 C 
ENDBRANCH  27  29
ENDBRANCH  26  27
ENDBRANCH   6  26
TORSDOF 4
ENDMDL
MODEL 6
REMARK VINA RESULT:      -9.3      2.076      2.527
REMARK  Name = 
REMARK  4 active torsions:
REMARK  status: ('A' for Active; 'I' for Inactive)
REMARK    1  A    between atoms: C_6  and  C_7
REMARK    2  A    between atoms: C_7  and  N_8
REMARK    3  A    between atoms: N_8  and  C_9
REMARK    4  A    between atoms: N_21  and  C_22
REMARK                            x       y       z     vdW  Elec       q    Type
REMARK                         _______ _______ _______ _____ _____    ______ ____
ROOT
ATOM      1  O   UNL     1       1.402   9.015  18.256  0.00  0.00    +0.000 OA
ATOM      2  C   UNL     1       1.577   8.571  19.385  0.00  0.00    +0.000 C 
ATOM      3  N   UNL     1       1.151   9.208  20.542  0.00  0.00    +0.000 N 
ATOM      4  C   UNL     1       0.580  10.462  20.452  0.00  0.00    +0.000 A 
ATOM      5  C   UNL     1      -0.519  10.881  19.672  0.00  0.00    +0.000 A 
ATOM      6  C   UNL     1      -0.667  12.229  19.936  0.00  0.00    +0.000 A 
ATOM      7  N   UNL     1       0.372  12.535  20.773  0.00  0.00    +0.000 N 
ATOM      8  N   UNL     1       1.055  11.459  21.204  0.00  0.00    +0.000 NA
ATOM      9  N   UNL     1       2.250   7.394  19.690  0.00  0.00    +0.000 N 
ATOM     10  H   UNL     1       1.788   9.157  21.322  0.00  0.00    +0.000 HD
ATOM     11  H   UNL     1       0.653  13.446  21.116  0.00  0.00    +0.000 HD
ATOM     12  H   UNL     1       2.150   7.083  20.645  0.00  0.00    +0.000 HD
ENDROOT
BRANCH   9  13
ATOM     13  C   UNL     1       2.920   6.531  18.794  0.00  0.00    +0.000 A 
ATOM     14  C   UNL     1       3.845   6.973  17.831  0.00  0.00    +0.000 A 
ATOM     15  C   UNL     1       4.449   6.087  16.916  0.00  0.00    +0.000 A 
ATOM     16  C   UNL     1       4.157   4.727  16.940  0.00  0.00    +0.000 A 
ATOM     17  C   UNL     1       3.255   4.300  17.894  0.00  0.00    +0.000 A 
ATOM     18  C   UNL     1       2.660   5.164  18.826  0.00  0.00    +0.000 A 
ATOM     19  C   UNL     1       1.729   4.375  19.678  0.00  0.00    +0.000 C 
ATOM     20  C   UNL     1       2.111   4.091  21.129  0.00  0.00    +0.000 C 
ATOM     21  C   UNL     1       1.350   2.782  21.388  0.00  0.00    +0.000 C 
ATOM     22  C   UNL     1       1.490   2.011  20.069  0.00  0.00    +0.000 C 
ATOM     23  N   UNL     1       1.766   3.048  19.097  0.00  0.00    +0.000 N 
ATOM     24  C   UNL     1       2.753   2.933  18.127  0.00  0.00    +0.000 C 
ATOM     25  O   UNL     1       3.197   1.928  17.618  0.00  0.00    +0.000 OA
ENDBRANCH   9  13
BRANCH   6  26
ATOM     26  C   UNL     1      -1.659  13.239  19.471  0.00  0.00    +0.000 C 
BRANCH  26  27
ATOM     27  N   UNL     1      -2.995  12.684  19.645  0.00  0.00    +0.000 NA
ATOM     28  H   UNL     1      -2.906  11.741  20.026  0.00  0.00    +0.000 HD
BRANCH  27  29
ATOM     29  C   UNL     1      -3.891  13.469  20.514  0.00  0.00    +0.000 C 
ATOM     30  C   UNL     1      -4.504  12.706  21.724  0.00  0.00    +0.000 C 
ATOM     31  C   UNL     1      -3.903  13.368  22.924  0.00  0.00    +0.000 A 
ATOM     32  C   UNL     1      -4.062  13.014  24.253  0.00  0.00    +0.000 A 
ATOM     33  C   UNL     1      -3.389  13.752  25.235  0.00  0.00    +0.000 A 
ATOM     34  C   UNL     1      -2.577  14.830  24.864  0.00  0.00    +0.000 A 
ATOM     35 CL   UNL     1      -1.733  15.716  26.081  0.00  0.00    +0.000 Cl
ATOM     36  C   UNL     1      -2.434  15.195  23.527  0.00  0.00    +0.000 A 
ATOM     37  C   UNL     1      -3.106  14.454  22.568  0.00  0.00    +0.000 A 
ATOM     38  C   UNL     1      -3.099  14.679  21.092  0.00  0.00    +0.000 C 
ENDBRANCH  27  29
ENDBRANCH  26  27
ENDBRANCH   6  26
TORSDOF 4
ENDMDL
MODEL 7
REMARK VINA RESULT:      -9.2      1.873      2.285
REMARK  Name = 
REMARK  4 active torsions:
REMARK  status: ('A' for Active; 'I' for Inactive)
REMARK    1  A    between atoms: C_6  and  C_7
REMARK    2  A    between atoms: C_7  and  N_8
REMARK    3  A    between atoms: N_8  and  C_9
REMARK    4  A    between atoms: N_21  and  C_22
REMARK                            x       y       z     vdW  Elec       q    Type
REMARK                         _______ _______ _______ _____ _____    ______ ____
ROOT
ATOM      1  O   UNL     1       1.881   9.466  18.185  0.00  0.00    +0.000 OA
ATOM      2  C   UNL     1       1.708   8.863  19.239  0.00  0.00    +0.000 C 
ATOM      3  N   UNL     1       1.102   9.419  20.357  0.00  0.00    +0.000 N 
ATOM      4  C   UNL     1       0.750  10.754  20.343  0.00  0.00    +0.000 A 
ATOM      5  C   UNL     1      -0.053  11.447  19.412  0.00  0.00    +0.000 A 
ATOM      6  C   UNL     1      -0.074  12.758  19.848  0.00  0.00    +0.000 A 
ATOM      7  N   UNL     1       0.758  12.776  20.934  0.00  0.00    +0.000 N 
ATOM      8  N   UNL     1       1.158  11.554  21.331  0.00  0.00    +0.000 NA
ATOM      9  N   UNL     1       2.116   7.560  19.495  0.00  0.00    +0.000 N 
ATOM     10  H   UNL     1       1.513   9.163  21.241  0.00  0.00    +0.000 HD
ATOM     11  H   UNL     1       1.069  13.577  21.473  0.00  0.00    +0.000 HD
ATOM     12  H   UNL     1       1.741   7.157  20.341  0.00  0.00    +0.000 HD
ENDROOT
BRANCH   9  13
ATOM     13  C   UNL     1       2.861   6.710  18.647  0.00  0.00    +0.000 A 
ATOM     14  C   UNL     1       3.797   7.175  17.706  0.00  0.00    +0.000 A 
ATOM     15  C   UNL     1       4.478   6.298  16.837  0.00  0.00    +0.000 A 
ATOM     16  C   UNL     1       4.254   4.926  16.887  0.00  0.00    +0.000 A 
ATOM     17  C   UNL     1       3.340   4.478  17.820  0.00  0.00    +0.000 A 
ATOM     18  C   UNL     1       2.669   5.333  18.706  0.00  0.00    +0.000 A 
ATOM     19  C   UNL     1       1.749   4.518  19.546  0.00  0.00    +0.000 C 
ATOM     20  C   UNL     1       2.091   4.291  21.016  0.00  0.00    +0.000 C 
ATOM     21  C   UNL     1       1.388   2.951  21.284  0.00  0.00    +0.000 C 
ATOM     22  C   UNL     1       1.615   2.156  19.992  0.00  0.00    +0.000 C 
ATOM     23  N   UNL     1       1.874   3.181  19.002  0.00  0.00    +0.000 N 
ATOM     24  C   UNL     1       2.900   3.092  18.071  0.00  0.00    +0.000 C 
ATOM     25  O   UNL     1       3.412   2.100  17.605  0.00  0.00    +0.000 OA
ENDBRANCH   9  13
BRANCH   6  26
ATOM     26  C   UNL     1      -0.771  13.973  19.339  0.00  0.00    +0.000 C 
BRANCH  26  27
ATOM     27  N   UNL     1      -2.117  13.997  19.897  0.00  0.00    +0.000 NA
ATOM     28  H   UNL     1      -2.570  13.108  19.685  0.00  0.00    +0.000 HD
BRANCH  27  29
ATOM     29  C   UNL     1      -2.188  14.236  21.350  0.00  0.00    +0.000 C 
ATOM     30  C   UNL     1      -2.796  15.601  21.784  0.00  0.00    +0.000 C 
ATOM     31  C   UNL     1      -4.066  15.236  22.488  0.00  0.00    +0.000 A 
ATOM     32  C   UNL     1      -5.025  16.093  23.000  0.00  0.00    +0.000 A 
ATOM     33  C   UNL     1      -6.164  15.547  23.606  0.00  0.00    +0.000 A 
ATOM     34  C   UNL     1      -6.315  14.159  23.689  0.00  0.00    +0.000 A 
ATOM     35 CL   UNL     1      -7.735  13.499  24.414  0.00  0.00    +0.000 Cl
ATOM     36  C   UNL     1      -5.339  13.299  23.187  0.00  0.00    +0.000 A 
ATOM     37  C   UNL     1      -4.218  13.854  22.590  0.00  0.00    +0.000 A 
ATOM     38  C   UNL     1      -3.057  13.122  22.003  0.00  0.00    +0.000 C 
ENDBRANCH  27  29
ENDBRANCH  26  27
ENDBRANCH   6  26
TORSDOF 4
ENDMDL
MODEL 8
REMARK VINA RESULT:      -9.1      1.047      1.236
REMARK  Name = 
REMARK  4 active torsions:
REMARK  status: ('A' for Active; 'I' for Inactive)
REMARK    1  A    between atoms: C_6  and  C_7
REMARK    2  A    between atoms: C_7  and  N_8
REMARK    3  A    between atoms: N_8  and  C_9
REMARK    4  A    between atoms: N_21  and  C_22
REMARK                            x       y       z     vdW  Elec       q    Type
REMARK                         _______ _______ _______ _____ _____    ______ ____
ROOT
ATOM      1  O   UNL     1       1.292   8.057  17.218  0.00  0.00    +0.000 OA
ATOM      2  C   UNL     1       1.835   8.262  18.298  0.00  0.00    +0.000 C 
ATOM      3  N   UNL     1       1.474   9.282  19.165  0.00  0.00    +0.000 N 
ATOM      4  C   UNL     1       0.515  10.195  18.773  0.00  0.00    +0.000 A 
ATOM      5  C   UNL     1      -0.798   9.957  18.313  0.00  0.00    +0.000 A 
ATOM      6  C   UNL     1      -1.325  11.204  18.040  0.00  0.00    +0.000 A 
ATOM      7  N   UNL     1      -0.295  12.075  18.275  0.00  0.00    +0.000 N 
ATOM      8  N   UNL     1       0.779  11.503  18.847  0.00  0.00    +0.000 NA
ATOM      9  N   UNL     1       2.908   7.539  18.807  0.00  0.00    +0.000 N 
ATOM     10  H   UNL     1       2.240   9.742  19.633  0.00  0.00    +0.000 HD
ATOM     11  H   UNL     1      -0.266  13.074  18.101  0.00  0.00    +0.000 HD
ATOM     12  H   UNL     1       3.118   7.718  19.778  0.00  0.00    +0.000 HD
ENDROOT
BRANCH   9  13
ATOM     13  C   UNL     1       3.623   6.500  18.169  0.00  0.00    +0.000 A 
ATOM     14  C   UNL     1       4.716   6.719  17.311  0.00  0.00    +0.000 A 
ATOM     15  C   UNL     1       5.367   5.658  16.649  0.00  0.00    +0.000 A 
ATOM     16  C   UNL     1       4.954   4.342  16.830  0.00  0.00    +0.000 A 
ATOM     17  C   UNL     1       3.886   4.136  17.681  0.00  0.00    +0.000 A 
ATOM     18  C   UNL     1       3.240   5.177  18.365  0.00  0.00    +0.000 A 
ATOM     19  C   UNL     1       2.127   4.598  19.166  0.00  0.00    +0.000 C 
ATOM     20  C   UNL     1       2.263   4.530  20.685  0.00  0.00    +0.000 C 
ATOM     21  C   UNL     1       1.358   3.333  21.014  0.00  0.00    +0.000 C 
ATOM     22  C   UNL     1       1.622   2.350  19.866  0.00  0.00    +0.000 C 
ATOM     23  N   UNL     1       2.131   3.195  18.805  0.00  0.00    +0.000 N 
ATOM     24  C   UNL     1       3.235   2.860  18.034  0.00  0.00    +0.000 C 
ATOM     25  O   UNL     1       3.658   1.759  17.759  0.00  0.00    +0.000 OA
ENDBRANCH   9  13
BRANCH   6  26
ATOM     26  C   UNL     1      -2.669  11.645  17.571  0.00  0.00    +0.000 C 
BRANCH  26  27
ATOM     27  N   UNL     1      -3.618  11.460  18.661  0.00  0.00    +0.000 NA
ATOM     28  H   UNL     1      -3.210  10.815  19.338  0.00  0.00    +0.000 HD
BRANCH  27  29
ATOM     29  C   UNL     1      -4.019  12.696  19.357  0.00  0.00    +0.000 C 
ATOM     30  C   UNL     1      -5.496  12.751  19.845  0.00  0.00    +0.000 C 
ATOM     31  C   UNL     1      -5.395  12.772  21.338  0.00  0.00    +0.000 A 
ATOM     32  C   UNL     1      -6.431  12.743  22.256  0.00  0.00    +0.000 A 
ATOM     33  C   UNL     1      -6.123  12.744  23.623  0.00  0.00    +0.000 A 
ATOM     34  C   UNL     1      -4.787  12.780  24.038  0.00  0.00    +0.000 A 
ATOM     35 CL   UNL     1      -4.420  12.756  25.724  0.00  0.00    +0.000 Cl
ATOM     36  C   UNL     1      -3.747  12.828  23.111  0.00  0.00    +0.000 A 
ATOM     37  C   UNL     1      -4.068  12.825  21.763  0.00  0.00    +0.000 A 
ATOM     38  C   UNL     1      -3.118  12.883  20.613  0.00  0.00    +0.000 C 
ENDBRANCH  27  29
ENDBRANCH  26  27
ENDBRANCH   6  26
TORSDOF 4
ENDMDL
MODEL 9
REMARK VINA RESULT:      -9.1      5.108     11.794
REMARK  Name = 
REMARK  4 active torsions:
REMARK  status: ('A' for Active; 'I' for Inactive)
REMARK    1  A    between atoms: C_6  and  C_7
REMARK    2  A    between atoms: C_7  and  N_8
REMARK    3  A    between atoms: N_8  and  C_9
REMARK    4  A    between atoms: N_21  and  C_22
REMARK                            x       y       z     vdW  Elec       q    Type
REMARK                         _______ _______ _______ _____ _____    ______ ____
ROOT
ATOM      1  O   UNL     1       1.260  10.733  19.946  0.00  0.00    +0.000 OA
ATOM      2  C   UNL     1       0.870  10.886  18.794  0.00  0.00    +0.000 C 
ATOM      3  N   UNL     1       1.074   9.963  17.779  0.00  0.00    +0.000 N 
ATOM      4  C   UNL     1       1.840   8.842  18.028  0.00  0.00    +0.000 A 
ATOM      5  C   UNL     1       1.687   7.873  19.045  0.00  0.00    +0.000 A 
ATOM      6  C   UNL     1       2.722   6.977  18.859  0.00  0.00    +0.000 A 
ATOM      7  N   UNL     1       3.450   7.497  17.822  0.00  0.00    +0.000 N 
ATOM      8  N   UNL     1       2.861   8.546  17.219  0.00  0.00    +0.000 NA
ATOM      9  N   UNL     1       0.203  12.008  18.314  0.00  0.00    +0.000 N 
ATOM     10  H   UNL     1       1.293  10.356  16.876  0.00  0.00    +0.000 HD
ATOM     11  H   UNL     1       4.335   7.171  17.452  0.00  0.00    +0.000 HD
ATOM     12  H   UNL     1      -0.203  11.898  17.396  0.00  0.00    +0.000 HD
ENDROOT
BRANCH   9  13
ATOM     13  C   UNL     1      -0.087  13.200  19.015  0.00  0.00    +0.000 A 
ATOM     14  C   UNL     1      -1.233  13.376  19.810  0.00  0.00    +0.000 A 
ATOM     15  C   UNL     1      -1.516  14.602  20.448  0.00  0.00    +0.000 A 
ATOM     16  C   UNL     1      -0.657  15.688  20.319  0.00  0.00    +0.000 A 
ATOM     17  C   UNL     1       0.470  15.503  19.543  0.00  0.00    +0.000 A 
ATOM     18  C   UNL     1       0.778  14.285  18.919  0.00  0.00    +0.000 A 
ATOM     19  C   UNL     1       2.042  14.453  18.150  0.00  0.00    +0.000 C 
ATOM     20  C   UNL     1       3.317  13.790  18.665  0.00  0.00    +0.000 C 
ATOM     21  C   UNL     1       4.394  14.719  18.083  0.00  0.00    +0.000 C 
ATOM     22  C   UNL     1       3.780  16.118  18.218  0.00  0.00    +0.000 C 
ATOM     23  N   UNL     1       2.357  15.858  18.301  0.00  0.00    +0.000 N 
ATOM     24  C   UNL     1       1.527  16.482  19.223  0.00  0.00    +0.000 C 
ATOM     25  O   UNL     1       1.657  17.567  19.744  0.00  0.00    +0.000 OA
ENDBRANCH   9  13
BRANCH   6  26
ATOM     26  C   UNL     1       3.096   5.716  19.560  0.00  0.00    +0.000 C 
BRANCH  26  27
ATOM     27  N   UNL     1       4.542   5.702  19.738  0.00  0.00    +0.000 NA
ATOM     28  H   UNL     1       4.744   5.687  20.737  0.00  0.00    +0.000 HD
BRANCH  27  29
ATOM     29  C   UNL     1       5.240   4.576  19.090  0.00  0.00    +0.000 C 
ATOM     30  C   UNL     1       4.448   3.840  17.971  0.00  0.00    +0.000 C 
ATOM     31  C   UNL     1       5.218   4.127  16.720  0.00  0.00    +0.000 A 
ATOM     32  C   UNL     1       4.890   3.764  15.424  0.00  0.00    +0.000 A 
ATOM     33  C   UNL     1       5.738   4.153  14.379  0.00  0.00    +0.000 A 
ATOM     34  C   UNL     1       6.894   4.892  14.655  0.00  0.00    +0.000 A 
ATOM     35 CL   UNL     1       7.916   5.388  13.356  0.00  0.00    +0.000 Cl
ATOM     36  C   UNL     1       7.230   5.240  15.962  0.00  0.00    +0.000 A 
ATOM     37  C   UNL     1       6.381   4.847  16.985  0.00  0.00    +0.000 A 
ATOM     38  C   UNL     1       6.556   5.103  18.446  0.00  0.00    +0.000 C 
ENDBRANCH  27  29
ENDBRANCH  26  27
ENDBRANCH   6  26
TORSDOF 4
ENDMDL
