MODEL 1
REMARK VINA RESULT:      -8.5      0.000      0.000
REMARK  Name = 
REMARK  3 active torsions:
REMARK  status: ('A' for Active; 'I' for Inactive)
REMARK    1  A    between atoms: C_2  and  C_16
REMARK    2  A    between atoms: N_3  and  C_4
REMARK    3  A    between atoms: C_9  and  N_10
REMARK                            x       y       z     vdW  Elec       q    Type
REMARK                         _______ _______ _______ _____ _____    ______ ____
ROOT
ATOM      1  C   UNL     1       3.713   6.109  18.169  0.00  0.00    +0.000 A 
ATOM      2  C   UNL     1       4.401   6.820  17.179  0.00  0.00    +0.000 A 
ATOM      3  C   UNL     1       5.110   6.148  16.187  0.00  0.00    +0.000 A 
ATOM      4  C   UNL     1       5.141   4.774  16.172  0.00  0.00    +0.000 A 
ATOM      5  C   UNL     1       4.428   4.059  17.135  0.00  0.00    +0.000 A 
ATOM      6  C   UNL     1       3.658   4.695  18.139  0.00  0.00    +0.000 A 
ENDROOT
BRANCH   6   7
ATOM      7  N   UNL     1       2.888   3.906  18.971  0.00  0.00    +0.000 N 
ATOM      8  C   UNL     1       1.432   3.898  18.805  0.00  0.00    +0.000 C 
ATOM      9  C   UNL     1       0.818   4.009  20.188  0.00  0.00    +0.000 C 
ATOM     10  C   UNL     1       1.328   2.896  21.101  0.00  0.00    +0.000 C 
ATOM     11  C   UNL     1       2.861   2.810  21.110  0.00  0.00    +0.000 C 
ATOM     12  C   UNL     1       3.429   2.756  19.691  0.00  0.00    +0.000 C 
ENDBRANCH   6   7
BRANCH   1  15
ATOM     13  O   UNL     1       1.988   8.287  17.595  0.00  0.00    +0.000 OA
ATOM     14  C   UNL     1       2.138   7.889  18.733  0.00  0.00    +0.000 C 
ATOM     15  N   UNL     1       2.999   6.873  19.128  0.00  0.00    +0.000 N 
ATOM     16  H   UNL     1       2.898   6.445  20.028  0.00  0.00    +0.000 HD
BRANCH  14  17
ATOM     17  C   UNL     1       1.422   8.596  19.844  0.00  0.00    +0.000 A 
ATOM     18  C   UNL     1       1.443   8.142  21.166  0.00  0.00    +0.000 A 
ATOM     19  C   UNL     1       0.712   8.816  22.148  0.00  0.00    +0.000 A 
ATOM     20  C   UNL     1      -0.021   9.953  21.813  0.00  0.00    +0.000 A 
ATOM     21 CL   UNL     1      -0.931  10.769  23.023  0.00  0.00    +0.000 Cl
ATOM     22  C   UNL     1      -0.018  10.437  20.506  0.00  0.00    +0.000 A 
ATOM     23  C   UNL     1       0.702   9.760  19.519  0.00  0.00    +0.000 A 
ENDBRANCH  14  17
ENDBRANCH   1  15
TORSDOF 3
ENDMDL
MODEL 2
REMARK VINA RESULT:      -8.4      0.229      1.056
REMARK  Name = 
REMARK  3 active torsions:
REMARK  status: ('A' for Active; 'I' for Inactive)
REMARK    1  A    between atoms: C_2  and  C_16
REMARK    2  A    between atoms: N_3  and  C_4
REMARK    3  A    between atoms: C_9  and  N_10
REMARK                            x       y       z     vdW  Elec       q    Type
REMARK                         _______ _______ _______ _____ _____    ______ ____
ROOT
ATOM      1  C   UNL     1       3.700   6.073  17.984  0.00  0.00    +0.000 A 
ATOM      2  C   UNL     1       4.400   6.777  16.997  0.00  0.00    +0.000 A 
ATOM      3  C   UNL     1       5.152   6.099  16.042  0.00  0.00    +0.000 A 
ATOM      4  C   UNL     1       5.214   4.726  16.060  0.00  0.00    +0.000 A 
ATOM      5  C   UNL     1       4.489   4.017  17.019  0.00  0.00    +0.000 A 
ATOM      6  C   UNL     1       3.677   4.658  17.986  0.00  0.00    +0.000 A 
ENDROOT
BRANCH   6   7
ATOM      7  N   UNL     1       2.901   3.870  18.814  0.00  0.00    +0.000 N 
ATOM      8  C   UNL     1       1.451   3.828  18.609  0.00  0.00    +0.000 C 
ATOM      9  C   UNL     1       0.797   3.956  19.972  0.00  0.00    +0.000 C 
ATOM     10  C   UNL     1       1.305   2.874  20.923  0.00  0.00    +0.000 C 
ATOM     11  C   UNL     1       2.838   2.820  20.975  0.00  0.00    +0.000 C 
ATOM     12  C   UNL     1       3.446   2.748  19.573  0.00  0.00    +0.000 C 
ENDBRANCH   6   7
BRANCH   1  15
ATOM     13  O   UNL     1       2.311   8.474  17.382  0.00  0.00    +0.000 OA
ATOM     14  C   UNL     1       2.256   7.977  18.490  0.00  0.00    +0.000 C 
ATOM     15  N   UNL     1       2.941   6.842  18.904  0.00  0.00    +0.000 N 
ATOM     16  H   UNL     1       2.669   6.363  19.741  0.00  0.00    +0.000 HD
BRANCH  14  17
ATOM     17  C   UNL     1       1.469   8.680  19.556  0.00  0.00    +0.000 A 
ATOM     18  C   UNL     1       0.778   9.873  19.321  0.00  0.00    +0.000 A 
ATOM     19  C   UNL     1       0.105  10.507  20.369  0.00  0.00    +0.000 A 
ATOM     20  C   UNL     1       0.105   9.940  21.642  0.00  0.00    +0.000 A 
ATOM     21 CL   UNL     1      -0.711  10.734  22.930  0.00  0.00    +0.000 Cl
ATOM     22  C   UNL     1       0.759   8.731  21.879  0.00  0.00    +0.000 A 
ATOM     23  C   UNL     1       1.442   8.100  20.837  0.00  0.00    +0.000 A 
ENDBRANCH  14  17
ENDBRANCH   1  15
TORSDOF 3
ENDMDL
MODEL 3
REMARK VINA RESULT:      -8.0      3.755      6.601
REMARK  Name = 
REMARK  3 active torsions:
REMARK  status: ('A' for Active; 'I' for Inactive)
REMARK    1  A    between atoms: C_2  and  C_16
REMARK    2  A    between atoms: N_3  and  C_4
REMARK    3  A    between atoms: C_9  and  N_10
REMARK                            x       y       z     vdW  Elec       q    Type
REMARK                         _______ _______ _______ _____ _____    ______ ____
ROOT
ATOM      1  C   UNL     1       2.789   6.121  18.617  0.00  0.00    +0.000 A 
ATOM      2  C   UNL     1       2.628   7.477  18.926  0.00  0.00    +0.000 A 
ATOM      3  C   UNL     1       1.919   7.867  20.058  0.00  0.00    +0.000 A 
ATOM      4  C   UNL     1       1.368   6.920  20.887  0.00  0.00    +0.000 A 
ATOM      5  C   UNL     1       1.555   5.566  20.605  0.00  0.00    +0.000 A 
ATOM      6  C   UNL     1       2.303   5.118  19.489  0.00  0.00    +0.000 A 
ENDROOT
BRANCH   6   7
ATOM      7  N   UNL     1       2.538   3.763  19.360  0.00  0.00    +0.000 N 
ATOM      8  C   UNL     1       3.263   3.059  20.421  0.00  0.00    +0.000 C 
ATOM      9  C   UNL     1       4.292   2.167  19.750  0.00  0.00    +0.000 C 
ATOM     10  C   UNL     1       3.626   1.227  18.746  0.00  0.00    +0.000 C 
ATOM     11  C   UNL     1       2.721   1.979  17.760  0.00  0.00    +0.000 C 
ATOM     12  C   UNL     1       1.743   2.904  18.487  0.00  0.00    +0.000 C 
ENDBRANCH   6   7
BRANCH   1  15
ATOM     13  O   UNL     1       5.534   5.403  18.573  0.00  0.00    +0.000 OA
ATOM     14  C   UNL     1       4.873   5.422  17.553  0.00  0.00    +0.000 C 
ATOM     15  N   UNL     1       3.544   5.813  17.456  0.00  0.00    +0.000 N 
ATOM     16  H   UNL     1       3.006   5.582  16.644  0.00  0.00    +0.000 HD
BRANCH  14  17
ATOM     17  C   UNL     1       5.546   5.095  16.253  0.00  0.00    +0.000 A 
ATOM     18  C   UNL     1       6.853   5.494  15.958  0.00  0.00    +0.000 A 
ATOM     19  C   UNL     1       7.407   5.203  14.709  0.00  0.00    +0.000 A 
ATOM     20  C   UNL     1       6.662   4.499  13.763  0.00  0.00    +0.000 A 
ATOM     21 CL   UNL     1       7.343   4.159  12.222  0.00  0.00    +0.000 Cl
ATOM     22  C   UNL     1       5.372   4.064  14.060  0.00  0.00    +0.000 A 
ATOM     23  C   UNL     1       4.811   4.361  15.305  0.00  0.00    +0.000 A 
ENDBRANCH  14  17
ENDBRANCH   1  15
TORSDOF 3
ENDMDL
MODEL 4
REMARK VINA RESULT:      -8.0      2.028      3.881
REMARK  Name = 
REMARK  3 active torsions:
REMARK  status: ('A' for Active; 'I' for Inactive)
REMARK    1  A    between atoms: C_2  and  C_16
REMARK    2  A    between atoms: N_3  and  C_4
REMARK    3  A    between atoms: C_9  and  N_10
REMARK                            x       y       z     vdW  Elec       q    Type
REMARK                         _______ _______ _______ _____ _____    ______ ____
ROOT
ATOM      1  C   UNL     1       2.447   4.572  18.093  0.00  0.00    +0.000 A 
ATOM      2  C   UNL     1       1.422   3.648  18.329  0.00  0.00    +0.000 A 
ATOM      3  C   UNL     1       1.682   2.281  18.305  0.00  0.00    +0.000 A 
ATOM      4  C   UNL     1       2.952   1.824  18.046  0.00  0.00    +0.000 A 
ATOM      5  C   UNL     1       3.985   2.741  17.845  0.00  0.00    +0.000 A 
ATOM      6  C   UNL     1       3.781   4.141  17.902  0.00  0.00    +0.000 A 
ENDROOT
BRANCH   6   7
ATOM      7  N   UNL     1       4.885   4.966  17.813  0.00  0.00    +0.000 N 
ATOM      8  C   UNL     1       5.075   5.779  16.608  0.00  0.00    +0.000 C 
ATOM      9  C   UNL     1       6.531   5.649  16.200  0.00  0.00    +0.000 C 
ATOM     10  C   UNL     1       7.456   6.045  17.349  0.00  0.00    +0.000 C 
ATOM     11  C   UNL     1       7.111   5.310  18.652  0.00  0.00    +0.000 C 
ATOM     12  C   UNL     1       5.622   5.427  18.986  0.00  0.00    +0.000 C 
ENDBRANCH   6   7
BRANCH   1  15
ATOM     13  O   UNL     1       2.416   6.159  20.446  0.00  0.00    +0.000 OA
ATOM     14  C   UNL     1       2.167   6.642  19.358  0.00  0.00    +0.000 C 
ATOM     15  N   UNL     1       2.099   5.946  18.159  0.00  0.00    +0.000 N 
ATOM     16  H   UNL     1       2.124   6.437  17.286  0.00  0.00    +0.000 HD
BRANCH  14  17
ATOM     17  C   UNL     1       1.803   8.095  19.283  0.00  0.00    +0.000 A 
ATOM     18  C   UNL     1       1.158   8.766  20.326  0.00  0.00    +0.000 A 
ATOM     19  C   UNL     1       0.798  10.108  20.176  0.00  0.00    +0.000 A 
ATOM     20  C   UNL     1       1.099  10.782  18.993  0.00  0.00    +0.000 A 
ATOM     21 CL   UNL     1       0.638  12.428  18.808  0.00  0.00    +0.000 Cl
ATOM     22  C   UNL     1       1.775  10.133  17.961  0.00  0.00    +0.000 A 
ATOM     23  C   UNL     1       2.128   8.789  18.104  0.00  0.00    +0.000 A 
ENDBRANCH  14  17
ENDBRANCH   1  15
TORSDOF 3
ENDMDL
MODEL 5
REMARK VINA RESULT:      -7.9      1.985      4.002
REMARK  Name = 
REMARK  3 active torsions:
REMARK  status: ('A' for Active; 'I' for Inactive)
REMARK    1  A    between atoms: C_2  and  C_16
REMARK    2  A    between atoms: N_3  and  C_4
REMARK    3  A    between atoms: C_9  and  N_10
REMARK                            x       y       z     vdW  Elec       q    Type
REMARK                         _______ _______ _______ _____ _____    ______ ____
ROOT
ATOM      1  C   UNL     1       2.444   4.284  18.164  0.00  0.00    +0.000 A 
ATOM      2  C   UNL     1       1.482   3.366  18.602  0.00  0.00    +0.000 A 
ATOM      3  C   UNL     1       1.757   2.002  18.612  0.00  0.00    +0.000 A 
ATOM      4  C   UNL     1       2.981   1.542  18.189  0.00  0.00    +0.000 A 
ATOM      5  C   UNL     1       3.957   2.454  17.785  0.00  0.00    +0.000 A 
ATOM      6  C   UNL     1       3.741   3.854  17.797  0.00  0.00    +0.000 A 
ENDROOT
BRANCH   6   7
ATOM      7  N   UNL     1       4.805   4.682  17.497  0.00  0.00    +0.000 N 
ATOM      8  C   UNL     1       6.051   4.549  18.258  0.00  0.00    +0.000 C 
ATOM      9  C   UNL     1       6.508   5.949  18.625  0.00  0.00    +0.000 C 
ATOM     10  C   UNL     1       6.651   6.819  17.378  0.00  0.00    +0.000 C 
ATOM     11  C   UNL     1       5.391   6.790  16.502  0.00  0.00    +0.000 C 
ATOM     12  C   UNL     1       4.942   5.357  16.209  0.00  0.00    +0.000 C 
ENDBRANCH   6   7
BRANCH   1  15
ATOM     13  O   UNL     1       2.906   6.043  20.343  0.00  0.00    +0.000 OA
ATOM     14  C   UNL     1       2.408   6.442  19.308  0.00  0.00    +0.000 C 
ATOM     15  N   UNL     1       2.088   5.657  18.209  0.00  0.00    +0.000 N 
ATOM     16  H   UNL     1       1.905   6.081  17.319  0.00  0.00    +0.000 HD
BRANCH  14  17
ATOM     17  C   UNL     1       2.002   7.882  19.213  0.00  0.00    +0.000 A 
ATOM     18  C   UNL     1       1.337   8.549  20.246  0.00  0.00    +0.000 A 
ATOM     19  C   UNL     1       0.938   9.878  20.078  0.00  0.00    +0.000 A 
ATOM     20  C   UNL     1       1.221  10.544  18.886  0.00  0.00    +0.000 A 
ATOM     21 CL   UNL     1       0.714  12.174  18.679  0.00  0.00    +0.000 Cl
ATOM     22  C   UNL     1       1.917   9.901  17.864  0.00  0.00    +0.000 A 
ATOM     23  C   UNL     1       2.308   8.570  18.025  0.00  0.00    +0.000 A 
ENDBRANCH  14  17
ENDBRANCH   1  15
TORSDOF 3
ENDMDL
MODEL 6
REMARK VINA RESULT:      -7.9      2.005      4.078
REMARK  Name = 
REMARK  3 active torsions:
REMARK  status: ('A' for Active; 'I' for Inactive)
REMARK    1  A    between atoms: C_2  and  C_16
REMARK    2  A    between atoms: N_3  and  C_4
REMARK    3  A    between atoms: C_9  and  N_10
REMARK                            x       y       z     vdW  Elec       q    Type
REMARK                         _______ _______ _______ _____ _____    ______ ____
ROOT
ATOM      1  C   UNL     1       2.556   4.441  18.041  0.00  0.00    +0.000 A 
ATOM      2  C   UNL     1       1.566   3.540  18.452  0.00  0.00    +0.000 A 
ATOM      3  C   UNL     1       1.829   2.175  18.503  0.00  0.00    +0.000 A 
ATOM      4  C   UNL     1       3.067   1.696  18.147  0.00  0.00    +0.000 A 
ATOM      5  C   UNL     1       4.068   2.592  17.771  0.00  0.00    +0.000 A 
ATOM      6  C   UNL     1       3.865   3.993  17.744  0.00  0.00    +0.000 A 
ENDROOT
BRANCH   6   7
ATOM      7  N   UNL     1       4.949   4.807  17.478  0.00  0.00    +0.000 N 
ATOM      8  C   UNL     1       6.245   4.492  18.086  0.00  0.00    +0.000 C 
ATOM      9  C   UNL     1       6.820   5.789  18.623  0.00  0.00    +0.000 C 
ATOM     10  C   UNL     1       6.908   6.843  17.521  0.00  0.00    +0.000 C 
ATOM     11  C   UNL     1       5.578   7.018  16.777  0.00  0.00    +0.000 C 
ATOM     12  C   UNL     1       5.016   5.675  16.306  0.00  0.00    +0.000 C 
ENDBRANCH   6   7
BRANCH   1  15
ATOM     13  O   UNL     1       2.662   6.174  20.286  0.00  0.00    +0.000 OA
ATOM     14  C   UNL     1       2.349   6.589  19.187  0.00  0.00    +0.000 C 
ATOM     15  N   UNL     1       2.210   5.818  18.041  0.00  0.00    +0.000 N 
ATOM     16  H   UNL     1       2.182   6.252  17.138  0.00  0.00    +0.000 HD
BRANCH  14  17
ATOM     17  C   UNL     1       1.977   8.034  19.041  0.00  0.00    +0.000 A 
ATOM     18  C   UNL     1       2.294   8.784  17.905  0.00  0.00    +0.000 A 
ATOM     19  C   UNL     1       1.966  10.142  17.851  0.00  0.00    +0.000 A 
ATOM     20  C   UNL     1       1.308  10.743  18.922  0.00  0.00    +0.000 A 
ATOM     21 CL   UNL     1       0.923  12.417  18.856  0.00  0.00    +0.000 Cl
ATOM     22  C   UNL     1       0.954   9.996  20.045  0.00  0.00    +0.000 A 
ATOM     23  C   UNL     1       1.289   8.641  20.107  0.00  0.00    +0.000 A 
ENDBRANCH  14  17
ENDBRANCH   1  15
TORSDOF 3
ENDMDL
MODEL 7
REMARK VINA RESULT:      -7.9      2.033      3.959
REMARK  Name = 
REMARK  3 active torsions:
REMARK  status: ('A' for Active; 'I' for Inactive)
REMARK    1  A    between atoms: C_2  and  C_16
REMARK    2  A    between atoms: N_3  and  C_4
REMARK    3  A    between atoms: C_9  and  N_10
REMARK                            x       y       z     vdW  Elec       q    Type
REMARK                         _______ _______ _______ _____ _____    ______ ____
ROOT
ATOM      1  C   UNL     1       2.456   4.597  18.067  0.00  0.00    +0.000 A 
ATOM      2  C   UNL     1       1.414   3.694  18.310  0.00  0.00    +0.000 A 
ATOM      3  C   UNL     1       1.658   2.325  18.345  0.00  0.00    +0.000 A 
ATOM      4  C   UNL     1       2.929   1.845  18.141  0.00  0.00    +0.000 A 
ATOM      5  C   UNL     1       3.978   2.742  17.934  0.00  0.00    +0.000 A 
ATOM      6  C   UNL     1       3.790   4.145  17.930  0.00  0.00    +0.000 A 
ENDROOT
BRANCH   6   7
ATOM      7  N   UNL     1       4.905   4.955  17.841  0.00  0.00    +0.000 N 
ATOM      8  C   UNL     1       5.124   5.739  16.622  0.00  0.00    +0.000 C 
ATOM      9  C   UNL     1       6.584   5.582  16.239  0.00  0.00    +0.000 C 
ATOM     10  C   UNL     1       7.497   5.991  17.393  0.00  0.00    +0.000 C 
ATOM     11  C   UNL     1       7.123   5.289  18.706  0.00  0.00    +0.000 C 
ATOM     12  C   UNL     1       5.631   5.431  19.015  0.00  0.00    +0.000 C 
ENDBRANCH   6   7
BRANCH   1  15
ATOM     13  O   UNL     1       2.413   6.283  20.349  0.00  0.00    +0.000 OA
ATOM     14  C   UNL     1       2.184   6.723  19.239  0.00  0.00    +0.000 C 
ATOM     15  N   UNL     1       2.123   5.977  18.070  0.00  0.00    +0.000 N 
ATOM     16  H   UNL     1       2.164   6.430  17.177  0.00  0.00    +0.000 HD
BRANCH  14  17
ATOM     17  C   UNL     1       1.836   8.175  19.098  0.00  0.00    +0.000 A 
ATOM     18  C   UNL     1       2.164   8.922  17.963  0.00  0.00    +0.000 A 
ATOM     19  C   UNL     1       1.859  10.285  17.912  0.00  0.00    +0.000 A 
ATOM     20  C   UNL     1       1.211  10.895  18.985  0.00  0.00    +0.000 A 
ATOM     21 CL   UNL     1       0.853  12.575  18.924  0.00  0.00    +0.000 Cl
ATOM     22  C   UNL     1       0.846  10.151  20.106  0.00  0.00    +0.000 A 
ATOM     23  C   UNL     1       1.158   8.791  20.165  0.00  0.00    +0.000 A 
ENDBRANCH  14  17
ENDBRANCH   1  15
TORSDOF 3
ENDMDL
MODEL 8
REMARK VINA RESULT:      -7.8      0.712      1.596
REMARK  Name = 
REMARK  3 active torsions:
REMARK  status: ('A' for Active; 'I' for Inactive)
REMARK    1  A    between atoms: C_2  and  C_16
REMARK    2  A    between atoms: N_3  and  C_4
REMARK    3  A    between atoms: C_9  and  N_10
REMARK                            x       y       z     vdW  Elec       q    Type
REMARK                         _______ _______ _______ _____ _____    ______ ____
ROOT
ATOM      1  C   UNL     1       3.635   6.503  17.960  0.00  0.00    +0.000 A 
ATOM      2  C   UNL     1       4.399   7.219  17.031  0.00  0.00    +0.000 A 
ATOM      3  C   UNL     1       5.170   6.552  16.084  0.00  0.00    +0.000 A 
ATOM      4  C   UNL     1       5.189   5.178  16.052  0.00  0.00    +0.000 A 
ATOM      5  C   UNL     1       4.401   4.459  16.952  0.00  0.00    +0.000 A 
ATOM      6  C   UNL     1       3.568   5.091  17.907  0.00  0.00    +0.000 A 
ENDROOT
BRANCH   6   7
ATOM      7  N   UNL     1       2.733   4.299  18.672  0.00  0.00    +0.000 N 
ATOM      8  C   UNL     1       2.982   4.177  20.111  0.00  0.00    +0.000 C 
ATOM      9  C   UNL     1       2.863   2.707  20.468  0.00  0.00    +0.000 C 
ATOM     10  C   UNL     1       1.506   2.151  20.040  0.00  0.00    +0.000 C 
ATOM     11  C   UNL     1       1.191   2.458  18.569  0.00  0.00    +0.000 C 
ATOM     12  C   UNL     1       1.380   3.942  18.251  0.00  0.00    +0.000 C 
ENDBRANCH   6   7
BRANCH   1  15
ATOM     13  O   UNL     1       2.072   8.781  17.313  0.00  0.00    +0.000 OA
ATOM     14  C   UNL     1       2.090   8.332  18.442  0.00  0.00    +0.000 C 
ATOM     15  N   UNL     1       2.861   7.263  18.876  0.00  0.00    +0.000 N 
ATOM     16  H   UNL     1       2.652   6.805  19.742  0.00  0.00    +0.000 HD
BRANCH  14  17
ATOM     17  C   UNL     1       1.297   9.030  19.507  0.00  0.00    +0.000 A 
ATOM     18  C   UNL     1       0.620  10.231  19.279  0.00  0.00    +0.000 A 
ATOM     19  C   UNL     1      -0.059  10.860  20.326  0.00  0.00    +0.000 A 
ATOM     20  C   UNL     1      -0.077  10.279  21.593  0.00  0.00    +0.000 A 
ATOM     21 CL   UNL     1      -0.901  11.066  22.881  0.00  0.00    +0.000 Cl
ATOM     22  C   UNL     1       0.563   9.062  21.823  0.00  0.00    +0.000 A 
ATOM     23  C   UNL     1       1.252   8.436  20.781  0.00  0.00    +0.000 A 
ENDBRANCH  14  17
ENDBRANCH   1  15
TORSDOF 3
ENDMDL
MODEL 9
REMARK VINA RESULT:      -7.8      0.687      1.202
REMARK  Name = 
REMARK  3 active torsions:
REMARK  status: ('A' for Active; 'I' for Inactive)
REMARK    1  A    between atoms: C_2  and  C_16
REMARK    2  A    between atoms: N_3  and  C_4
REMARK    3  A    between atoms: C_9  and  N_10
REMARK                            x       y       z     vdW  Elec       q    Type
REMARK                         _______ _______ _______ _____ _____    ______ ____
ROOT
ATOM      1  C   UNL     1       3.661   6.462  18.009  0.00  0.00    +0.000 A 
ATOM      2  C   UNL     1       4.429   7.175  17.081  0.00  0.00    +0.000 A 
ATOM      3  C   UNL     1       5.162   6.505  16.106  0.00  0.00    +0.000 A 
ATOM      4  C   UNL     1       5.140   5.133  16.046  0.00  0.00    +0.000 A 
ATOM      5  C   UNL     1       4.348   4.418  16.946  0.00  0.00    +0.000 A 
ATOM      6  C   UNL     1       3.551   5.054  17.929  0.00  0.00    +0.000 A 
ENDROOT
BRANCH   6   7
ATOM      7  N   UNL     1       2.707   4.271  18.693  0.00  0.00    +0.000 N 
ATOM      8  C   UNL     1       2.947   4.156  20.134  0.00  0.00    +0.000 C 
ATOM      9  C   UNL     1       2.818   2.689  20.498  0.00  0.00    +0.000 C 
ATOM     10  C   UNL     1       1.460   2.138  20.065  0.00  0.00    +0.000 C 
ATOM     11  C   UNL     1       1.155   2.439  18.592  0.00  0.00    +0.000 C 
ATOM     12  C   UNL     1       1.355   3.920  18.267  0.00  0.00    +0.000 C 
ENDBRANCH   6   7
BRANCH   1  15
ATOM     13  O   UNL     1       1.979   8.667  17.407  0.00  0.00    +0.000 OA
ATOM     14  C   UNL     1       2.090   8.255  18.545  0.00  0.00    +0.000 C 
ATOM     15  N   UNL     1       2.926   7.225  18.954  0.00  0.00    +0.000 N 
ATOM     16  H   UNL     1       2.794   6.788  19.847  0.00  0.00    +0.000 HD
BRANCH  14  17
ATOM     17  C   UNL     1       1.349   8.959  19.642  0.00  0.00    +0.000 A 
ATOM     18  C   UNL     1       1.270   8.456  20.944  0.00  0.00    +0.000 A 
ATOM     19  C   UNL     1       0.521   9.133  21.910  0.00  0.00    +0.000 A 
ATOM     20  C   UNL     1      -0.132  10.320  21.580  0.00  0.00    +0.000 A 
ATOM     21 CL   UNL     1      -1.066  11.139  22.768  0.00  0.00    +0.000 Cl
ATOM     22  C   UNL     1      -0.029  10.851  20.295  0.00  0.00    +0.000 A 
ATOM     23  C   UNL     1       0.711  10.171  19.324  0.00  0.00    +0.000 A 
ENDBRANCH  14  17
ENDBRANCH   1  15
TORSDOF 3
ENDMDL
