MODEL 1
REMARK VINA RESULT:      -8.0      0.000      0.000
REMARK  Name = 
REMARK  15 active torsions:
REMARK  status: ('A' for Active; 'I' for Inactive)
REMARK    1  A    between atoms: C_1  and  O_2
REMARK    2  A    between atoms: O_2  and  C_3
REMARK    3  A    between atoms: C_5  and  C_6
REMARK    4  A    between atoms: C_7  and  C_8
REMARK    5  A    between atoms: C_11  and  O_12
REMARK    6  A    between atoms: O_12  and  C_13
REMARK    7  A    between atoms: C_13  and  C_14
REMARK    8  A    between atoms: N_16  and  C_17
REMARK    9  A    between atoms: C_17  and  C_18
REMARK   10  A    between atoms: C_18  and  N_19
REMARK   11  A    between atoms: N_19  and  C_20
REMARK   12  A    between atoms: N_19  and  C_21
REMARK   13  A    between atoms: C_21  and  C_22
REMARK   14  A    between atoms: C_31  and  O_32
REMARK   15  A    between atoms: O_32  and  C_33
REMARK                            x       y       z     vdW  Elec       q    Type
REMARK                         _______ _______ _______ _____ _____    ______ ____
ROOT
ATOM      1  C   UNL     1       8.211   7.801  18.432  0.00  0.00    +0.000 A 
ATOM      2  C   UNL     1       8.293   6.587  19.125  0.00  0.00    +0.000 A 
ATOM      3  C   UNL     1       7.702   5.433  18.612  0.00  0.00    +0.000 A 
ATOM      4  C   UNL     1       6.989   5.479  17.418  0.00  0.00    +0.000 A 
ATOM      5  C   UNL     1       6.885   6.683  16.721  0.00  0.00    +0.000 A 
ATOM      6  C   UNL     1       7.488   7.840  17.232  0.00  0.00    +0.000 A 
ENDROOT
BRANCH   1   8
ATOM      7  C   UNL     1       9.004  10.133  18.189  0.00  0.00    +0.000 C 
ATOM      8  C   UNL     1       8.845   9.029  18.938  0.00  0.00    +0.000 C 
BRANCH   7  11
ATOM      9  C   UNL     1      10.608  13.537  18.094  0.00  0.00    +0.000 A 
ATOM     10  C   UNL     1      10.112  12.290  17.709  0.00  0.00    +0.000 A 
ATOM     11  C   UNL     1       9.592  11.395  18.655  0.00  0.00    +0.000 A 
ATOM     12  C   UNL     1       9.563  11.783  19.997  0.00  0.00    +0.000 A 
ATOM     13  C   UNL     1      10.052  13.030  20.396  0.00  0.00    +0.000 A 
ATOM     14  C   UNL     1      10.582  13.904  19.441  0.00  0.00    +0.000 A 
BRANCH   9  16
ATOM     15  C   UNL     1      10.737  15.690  17.086  0.00  0.00    +0.000 C 
ATOM     16  O   UNL     1      11.071  14.308  17.061  0.00  0.00    +0.000 OA
ENDBRANCH   9  16
BRANCH  13  17
ATOM     17  O   UNL     1       9.939  13.277  21.736  0.00  0.00    +0.000 OA
ATOM     18  C   UNL     1       8.755  12.821  22.379  0.00  0.00    +0.000 C 
ENDBRANCH  13  17
ENDBRANCH   7  11
ENDBRANCH   1   8
BRANCH   4  19
ATOM     19  O   UNL     1       6.464   4.283  17.018  0.00  0.00    +0.000 OA
BRANCH  19  20
ATOM     20  C   UNL     1       5.058   4.271  16.807  0.00  0.00    +0.000 C 
BRANCH  20  21
ATOM     21  C   UNL     1       4.373   3.262  17.731  0.00  0.00    +0.000 C 
ATOM     22  O   UNL     1       3.409   2.595  17.348  0.00  0.00    +0.000 OA
ATOM     23  N   UNL     1       4.891   3.156  19.001  0.00  0.00    +0.000 N 
ATOM     24  H   UNL     1       5.706   3.714  19.243  0.00  0.00    +0.000 HD
BRANCH  23  25
ATOM     25  C   UNL     1       4.338   2.232  19.969  0.00  0.00    +0.000 C 
BRANCH  25  26
ATOM     26  C   UNL     1       3.273   2.838  20.906  0.00  0.00    +0.000 C 
BRANCH  26  27
ATOM     27  N   UNL     1       2.114   3.492  20.250  0.00  0.00    +0.000 NA
ATOM     28  C   UNL     1       0.938   2.611  20.237  0.00  0.00    +0.000 C 
BRANCH  27  29
ATOM     29  C   UNL     1       1.734   4.737  20.965  0.00  0.00    +0.000 C 
BRANCH  29  30
ATOM     30  C   UNL     1       1.900   6.012  20.167  0.00  0.00    +0.000 A 
ATOM     31  C   UNL     1       2.315   5.977  18.830  0.00  0.00    +0.000 A 
ATOM     32  C   UNL     1       2.467   7.160  18.103  0.00  0.00    +0.000 A 
ATOM     33  C   UNL     1       2.192   8.390  18.703  0.00  0.00    +0.000 A 
ATOM     34  C   UNL     1       1.756   8.437  20.024  0.00  0.00    +0.000 A 
ATOM     35  C   UNL     1       1.607   7.255  20.752  0.00  0.00    +0.000 A 
ENDBRANCH  29  30
ENDBRANCH  27  29
ENDBRANCH  26  27
ENDBRANCH  25  26
ENDBRANCH  23  25
ENDBRANCH  20  21
ENDBRANCH  19  20
ENDBRANCH   4  19
TORSDOF 12
ENDMDL
MODEL 2
REMARK VINA RESULT:      -7.7      6.114     10.305
REMARK  Name = 
REMARK  15 active torsions:
REMARK  status: ('A' for Active; 'I' for Inactive)
REMARK    1  A    between atoms: C_1  and  O_2
REMARK    2  A    between atoms: O_2  and  C_3
REMARK    3  A    between atoms: C_5  and  C_6
REMARK    4  A    between atoms: C_7  and  C_8
REMARK    5  A    between atoms: C_11  and  O_12
REMARK    6  A    between atoms: O_12  and  C_13
REMARK    7  A    between atoms: C_13  and  C_14
REMARK    8  A    between atoms: N_16  and  C_17
REMARK    9  A    between atoms: C_17  and  C_18
REMARK   10  A    between atoms: C_18  and  N_19
REMARK   11  A    between atoms: N_19  and  C_20
REMARK   12  A    between atoms: N_19  and  C_21
REMARK   13  A    between atoms: C_21  and  C_22
REMARK   14  A    between atoms: C_31  and  O_32
REMARK   15  A    between atoms: O_32  and  C_33
REMARK                            x       y       z     vdW  Elec       q    Type
REMARK                         _______ _______ _______ _____ _____    ______ ____
ROOT
ATOM      1  C   UNL     1       0.887   8.903  20.885  0.00  0.00    +0.000 A 
ATOM      2  C   UNL     1       0.400   8.721  22.185  0.00  0.00    +0.000 A 
ATOM      3  C   UNL     1      -0.203   9.775  22.873  0.00  0.00    +0.000 A 
ATOM      4  C   UNL     1      -0.295  11.034  22.289  0.00  0.00    +0.000 A 
ATOM      5  C   UNL     1       0.198  11.236  21.001  0.00  0.00    +0.000 A 
ATOM      6  C   UNL     1       0.794  10.176  20.305  0.00  0.00    +0.000 A 
ENDROOT
BRANCH   1   8
ATOM      7  C   UNL     1       2.198   7.996  18.991  0.00  0.00    +0.000 C 
ATOM      8  C   UNL     1       1.506   7.804  20.127  0.00  0.00    +0.000 C 
BRANCH   7  11
ATOM      9  C   UNL     1       4.769   6.269  16.852  0.00  0.00    +0.000 A 
ATOM     10  C   UNL     1       4.051   7.255  17.533  0.00  0.00    +0.000 A 
ATOM     11  C   UNL     1       2.868   6.943  18.219  0.00  0.00    +0.000 A 
ATOM     12  C   UNL     1       2.426   5.617  18.221  0.00  0.00    +0.000 A 
ATOM     13  C   UNL     1       3.137   4.621  17.546  0.00  0.00    +0.000 A 
ATOM     14  C   UNL     1       4.306   4.952  16.855  0.00  0.00    +0.000 A 
BRANCH   9  16
ATOM     15  C   UNL     1       6.986   5.796  16.124  0.00  0.00    +0.000 C 
ATOM     16  O   UNL     1       5.910   6.718  16.240  0.00  0.00    +0.000 OA
ENDBRANCH   9  16
BRANCH  13  17
ATOM     17  O   UNL     1       2.593   3.370  17.655  0.00  0.00    +0.000 OA
ATOM     18  C   UNL     1       1.421   3.243  18.450  0.00  0.00    +0.000 C 
ENDBRANCH  13  17
ENDBRANCH   7  11
ENDBRANCH   1   8
BRANCH   4  19
ATOM     19  O   UNL     1      -0.911  11.979  23.060  0.00  0.00    +0.000 OA
BRANCH  19  20
ATOM     20  C   UNL     1      -1.682  12.940  22.352  0.00  0.00    +0.000 C 
BRANCH  20  21
ATOM     21  C   UNL     1      -3.164  12.832  22.717  0.00  0.00    +0.000 C 
ATOM     22  O   UNL     1      -3.523  12.488  23.845  0.00  0.00    +0.000 OA
ATOM     23  N   UNL     1      -4.057  13.131  21.713  0.00  0.00    +0.000 N 
ATOM     24  H   UNL     1      -3.695  13.437  20.814  0.00  0.00    +0.000 HD
BRANCH  23  25
ATOM     25  C   UNL     1      -5.488  13.074  21.931  0.00  0.00    +0.000 C 
BRANCH  25  26
ATOM     26  C   UNL     1      -6.323  12.786  20.666  0.00  0.00    +0.000 C 
BRANCH  26  27
ATOM     27  N   UNL     1      -5.805  11.732  19.761  0.00  0.00    +0.000 NA
ATOM     28  C   UNL     1      -6.869  10.801  19.359  0.00  0.00    +0.000 C 
BRANCH  27  29
ATOM     29  C   UNL     1      -5.240  12.328  18.523  0.00  0.00    +0.000 C 
BRANCH  29  30
ATOM     30  C   UNL     1      -4.139  11.522  17.867  0.00  0.00    +0.000 A 
ATOM     31  C   UNL     1      -2.915  11.313  18.516  0.00  0.00    +0.000 A 
ATOM     32  C   UNL     1      -1.905  10.569  17.901  0.00  0.00    +0.000 A 
ATOM     33  C   UNL     1      -2.114  10.016  16.637  0.00  0.00    +0.000 A 
ATOM     34  C   UNL     1      -3.335  10.197  15.992  0.00  0.00    +0.000 A 
ATOM     35  C   UNL     1      -4.344  10.943  16.605  0.00  0.00    +0.000 A 
ENDBRANCH  29  30
ENDBRANCH  27  29
ENDBRANCH  26  27
ENDBRANCH  25  26
ENDBRANCH  23  25
ENDBRANCH  20  21
ENDBRANCH  19  20
ENDBRANCH   4  19
TORSDOF 12
ENDMDL
MODEL 3
REMARK VINA RESULT:      -7.5      5.986     10.426
REMARK  Name = 
REMARK  15 active torsions:
REMARK  status: ('A' for Active; 'I' for Inactive)
REMARK    1  A    between atoms: C_1  and  O_2
REMARK    2  A    between atoms: O_2  and  C_3
REMARK    3  A    between atoms: C_5  and  C_6
REMARK    4  A    between atoms: C_7  and  C_8
REMARK    5  A    between atoms: C_11  and  O_12
REMARK    6  A    between atoms: O_12  and  C_13
REMARK    7  A    between atoms: C_13  and  C_14
REMARK    8  A    between atoms: N_16  and  C_17
REMARK    9  A    between atoms: C_17  and  C_18
REMARK   10  A    between atoms: C_18  and  N_19
REMARK   11  A    between atoms: N_19  and  C_20
REMARK   12  A    between atoms: N_19  and  C_21
REMARK   13  A    between atoms: C_21  and  C_22
REMARK   14  A    between atoms: C_31  and  O_32
REMARK   15  A    between atoms: O_32  and  C_33
REMARK                            x       y       z     vdW  Elec       q    Type
REMARK                         _______ _______ _______ _____ _____    ______ ____
ROOT
ATOM      1  C   UNL     1       1.581   9.460  18.814  0.00  0.00    +0.000 A 
ATOM      2  C   UNL     1       1.801  10.729  18.267  0.00  0.00    +0.000 A 
ATOM      3  C   UNL     1       1.383  11.877  18.942  0.00  0.00    +0.000 A 
ATOM      4  C   UNL     1       0.707  11.773  20.152  0.00  0.00    +0.000 A 
ATOM      5  C   UNL     1       0.466  10.515  20.705  0.00  0.00    +0.000 A 
ATOM      6  C   UNL     1       0.895   9.363  20.033  0.00  0.00    +0.000 A 
ENDROOT
BRANCH   1   8
ATOM      7  C   UNL     1       2.540   7.177  18.794  0.00  0.00    +0.000 C 
ATOM      8  C   UNL     1       2.032   8.234  18.136  0.00  0.00    +0.000 C 
BRANCH   7  11
ATOM      9  C   UNL     1       4.771   4.590  17.214  0.00  0.00    +0.000 A 
ATOM     10  C   UNL     1       4.294   5.794  17.736  0.00  0.00    +0.000 A 
ATOM     11  C   UNL     1       2.968   5.918  18.173  0.00  0.00    +0.000 A 
ATOM     12  C   UNL     1       2.129   4.803  18.091  0.00  0.00    +0.000 A 
ATOM     13  C   UNL     1       2.595   3.590  17.573  0.00  0.00    +0.000 A 
ATOM     14  C   UNL     1       3.916   3.489  17.128  0.00  0.00    +0.000 A 
BRANCH   9  16
ATOM     15  C   UNL     1       6.605   5.855  16.375  0.00  0.00    +0.000 C 
ATOM     16  O   UNL     1       6.088   4.614  16.840  0.00  0.00    +0.000 OA
ENDBRANCH   9  16
BRANCH  13  17
ATOM     17  O   UNL     1       1.667   2.585  17.575  0.00  0.00    +0.000 OA
ATOM     18  C   UNL     1       0.938   2.381  18.779  0.00  0.00    +0.000 C 
ENDBRANCH  13  17
ENDBRANCH   7  11
ENDBRANCH   1   8
BRANCH   4  19
ATOM     19  O   UNL     1       0.355  12.967  20.716  0.00  0.00    +0.000 OA
BRANCH  19  20
ATOM     20  C   UNL     1       0.112  14.028  19.803  0.00  0.00    +0.000 C 
BRANCH  20  21
ATOM     21  C   UNL     1      -1.190  14.758  20.142  0.00  0.00    +0.000 C 
ATOM     22  O   UNL     1      -1.389  15.917  19.774  0.00  0.00    +0.000 OA
ATOM     23  N   UNL     1      -2.105  14.046  20.882  0.00  0.00    +0.000 N 
ATOM     24  H   UNL     1      -1.892  13.083  21.128  0.00  0.00    +0.000 HD
BRANCH  23  25
ATOM     25  C   UNL     1      -3.380  14.619  21.263  0.00  0.00    +0.000 C 
BRANCH  25  26
ATOM     26  C   UNL     1      -4.569  14.199  20.374  0.00  0.00    +0.000 C 
BRANCH  26  27
ATOM     27  N   UNL     1      -4.821  12.743  20.256  0.00  0.00    +0.000 NA
ATOM     28  C   UNL     1      -5.907  12.313  21.149  0.00  0.00    +0.000 C 
BRANCH  27  29
ATOM     29  C   UNL     1      -5.213  12.384  18.869  0.00  0.00    +0.000 C 
BRANCH  29  30
ATOM     30  C   UNL     1      -4.165  11.628  18.081  0.00  0.00    +0.000 A 
ATOM     31  C   UNL     1      -2.902  11.366  18.627  0.00  0.00    +0.000 A 
ATOM     32  C   UNL     1      -1.942  10.669  17.891  0.00  0.00    +0.000 A 
ATOM     33  C   UNL     1      -2.239  10.215  16.605  0.00  0.00    +0.000 A 
ATOM     34  C   UNL     1      -3.499  10.449  16.059  0.00  0.00    +0.000 A 
ATOM     35  C   UNL     1      -4.458  11.148  16.794  0.00  0.00    +0.000 A 
ENDBRANCH  29  30
ENDBRANCH  27  29
ENDBRANCH  26  27
ENDBRANCH  25  26
ENDBRANCH  23  25
ENDBRANCH  20  21
ENDBRANCH  19  20
ENDBRANCH   4  19
TORSDOF 12
ENDMDL
MODEL 4
REMARK VINA RESULT:      -7.4      2.301      3.349
REMARK  Name = 
REMARK  15 active torsions:
REMARK  status: ('A' for Active; 'I' for Inactive)
REMARK    1  A    between atoms: C_1  and  O_2
REMARK    2  A    between atoms: O_2  and  C_3
REMARK    3  A    between atoms: C_5  and  C_6
REMARK    4  A    between atoms: C_7  and  C_8
REMARK    5  A    between atoms: C_11  and  O_12
REMARK    6  A    between atoms: O_12  and  C_13
REMARK    7  A    between atoms: C_13  and  C_14
REMARK    8  A    between atoms: N_16  and  C_17
REMARK    9  A    between atoms: C_17  and  C_18
REMARK   10  A    between atoms: C_18  and  N_19
REMARK   11  A    between atoms: N_19  and  C_20
REMARK   12  A    between atoms: N_19  and  C_21
REMARK   13  A    between atoms: C_21  and  C_22
REMARK   14  A    between atoms: C_31  and  O_32
REMARK   15  A    between atoms: O_32  and  C_33
REMARK                            x       y       z     vdW  Elec       q    Type
REMARK                         _______ _______ _______ _____ _____    ______ ____
ROOT
ATOM      1  C   UNL     1       7.961   7.648  18.432  0.00  0.00    +0.000 A 
ATOM      2  C   UNL     1       7.053   7.823  17.382  0.00  0.00    +0.000 A 
ATOM      3  C   UNL     1       6.254   6.765  16.948  0.00  0.00    +0.000 A 
ATOM      4  C   UNL     1       6.374   5.509  17.532  0.00  0.00    +0.000 A 
ATOM      5  C   UNL     1       7.284   5.313  18.571  0.00  0.00    +0.000 A 
ATOM      6  C   UNL     1       8.079   6.378  19.013  0.00  0.00    +0.000 A 
ENDROOT
BRANCH   1   8
ATOM      7  C   UNL     1       9.016   9.878  18.223  0.00  0.00    +0.000 C 
ATOM      8  C   UNL     1       8.800   8.753  18.925  0.00  0.00    +0.000 C 
BRANCH   7  11
ATOM      9  C   UNL     1      11.367  12.817  18.136  0.00  0.00    +0.000 A 
ATOM     10  C   UNL     1      10.654  11.673  17.770  0.00  0.00    +0.000 A 
ATOM     11  C   UNL     1       9.809  11.025  18.682  0.00  0.00    +0.000 A 
ATOM     12  C   UNL     1       9.680  11.556  19.968  0.00  0.00    +0.000 A 
ATOM     13  C   UNL     1      10.385  12.703  20.347  0.00  0.00    +0.000 A 
ATOM     14  C   UNL     1      11.234  13.327  19.429  0.00  0.00    +0.000 A 
BRANCH   9  16
ATOM     15  C   UNL     1      12.311  14.760  17.136  0.00  0.00    +0.000 C 
ATOM     16  O   UNL     1      12.141  13.348  17.139  0.00  0.00    +0.000 OA
ENDBRANCH   9  16
BRANCH  13  17
ATOM     17  O   UNL     1      10.141  13.115  21.628  0.00  0.00    +0.000 OA
ATOM     18  C   UNL     1       8.779  13.236  22.020  0.00  0.00    +0.000 C 
ENDBRANCH  13  17
ENDBRANCH   7  11
ENDBRANCH   1   8
BRANCH   4  19
ATOM     19  O   UNL     1       5.533   4.559  17.025  0.00  0.00    +0.000 OA
BRANCH  19  20
ATOM     20  C   UNL     1       4.760   3.849  17.985  0.00  0.00    +0.000 C 
BRANCH  20  21
ATOM     21  C   UNL     1       3.454   4.585  18.290  0.00  0.00    +0.000 C 
ATOM     22  O   UNL     1       2.455   4.436  17.583  0.00  0.00    +0.000 OA
ATOM     23  N   UNL     1       3.471   5.419  19.384  0.00  0.00    +0.000 N 
ATOM     24  H   UNL     1       4.320   5.474  19.942  0.00  0.00    +0.000 HD
BRANCH  23  25
ATOM     25  C   UNL     1       2.297   6.167  19.785  0.00  0.00    +0.000 C 
BRANCH  25  26
ATOM     26  C   UNL     1       2.244   7.616  19.258  0.00  0.00    +0.000 C 
BRANCH  26  27
ATOM     27  N   UNL     1       1.115   8.450  19.736  0.00  0.00    +0.000 NA
ATOM     28  C   UNL     1       1.152   8.615  21.197  0.00  0.00    +0.000 C 
BRANCH  27  29
ATOM     29  C   UNL     1       1.164   9.805  19.131  0.00  0.00    +0.000 C 
BRANCH  29  30
ATOM     30  C   UNL     1      -0.183  10.399  18.777  0.00  0.00    +0.000 A 
ATOM     31  C   UNL     1      -0.699  11.490  19.489  0.00  0.00    +0.000 A 
ATOM     32  C   UNL     1      -1.943  12.029  19.155  0.00  0.00    +0.000 A 
ATOM     33  C   UNL     1      -2.678  11.493  18.097  0.00  0.00    +0.000 A 
ATOM     34  C   UNL     1      -2.165  10.424  17.366  0.00  0.00    +0.000 A 
ATOM     35  C   UNL     1      -0.922   9.882  17.702  0.00  0.00    +0.000 A 
ENDBRANCH  29  30
ENDBRANCH  27  29
ENDBRANCH  26  27
ENDBRANCH  25  26
ENDBRANCH  23  25
ENDBRANCH  20  21
ENDBRANCH  19  20
ENDBRANCH   4  19
TORSDOF 12
ENDMDL
MODEL 5
REMARK VINA RESULT:      -7.3      6.678     11.324
REMARK  Name = 
REMARK  15 active torsions:
REMARK  status: ('A' for Active; 'I' for Inactive)
REMARK    1  A    between atoms: C_1  and  O_2
REMARK    2  A    between atoms: O_2  and  C_3
REMARK    3  A    between atoms: C_5  and  C_6
REMARK    4  A    between atoms: C_7  and  C_8
REMARK    5  A    between atoms: C_11  and  O_12
REMARK    6  A    between atoms: O_12  and  C_13
REMARK    7  A    between atoms: C_13  and  C_14
REMARK    8  A    between atoms: N_16  and  C_17
REMARK    9  A    between atoms: C_17  and  C_18
REMARK   10  A    between atoms: C_18  and  N_19
REMARK   11  A    between atoms: N_19  and  C_20
REMARK   12  A    between atoms: N_19  and  C_21
REMARK   13  A    between atoms: C_21  and  C_22
REMARK   14  A    between atoms: C_31  and  O_32
REMARK   15  A    between atoms: O_32  and  C_33
REMARK                            x       y       z     vdW  Elec       q    Type
REMARK                         _______ _______ _______ _____ _____    ______ ____
ROOT
ATOM      1  C   UNL     1      -0.461  10.356  21.107  0.00  0.00    +0.000 A 
ATOM      2  C   UNL     1      -0.692  10.461  22.484  0.00  0.00    +0.000 A 
ATOM      3  C   UNL     1      -1.197  11.640  23.032  0.00  0.00    +0.000 A 
ATOM      4  C   UNL     1      -1.444  12.743  22.222  0.00  0.00    +0.000 A 
ATOM      5  C   UNL     1      -1.206  12.661  20.851  0.00  0.00    +0.000 A 
ATOM      6  C   UNL     1      -0.708  11.473  20.298  0.00  0.00    +0.000 A 
ENDROOT
BRANCH   1   8
ATOM      7  C   UNL     1       1.229   8.567  20.835  0.00  0.00    +0.000 C 
ATOM      8  C   UNL     1       0.049   9.117  20.498  0.00  0.00    +0.000 C 
BRANCH   7  11
ATOM      9  C   UNL     1       1.843   4.881  20.382  0.00  0.00    +0.000 A 
ATOM     10  C   UNL     1       1.424   6.104  20.911  0.00  0.00    +0.000 A 
ATOM     11  C   UNL     1       1.766   7.314  20.290  0.00  0.00    +0.000 A 
ATOM     12  C   UNL     1       2.525   7.274  19.118  0.00  0.00    +0.000 A 
ATOM     13  C   UNL     1       2.947   6.056  18.576  0.00  0.00    +0.000 A 
ATOM     14  C   UNL     1       2.611   4.860  19.216  0.00  0.00    +0.000 A 
BRANCH   9  16
ATOM     15  C   UNL     1       2.421   2.852  21.487  0.00  0.00    +0.000 C 
ATOM     16  O   UNL     1       1.423   3.784  21.087  0.00  0.00    +0.000 OA
ENDBRANCH   9  16
BRANCH  13  17
ATOM     17  O   UNL     1       3.664   6.175  17.417  0.00  0.00    +0.000 OA
ATOM     18  C   UNL     1       4.872   5.430  17.326  0.00  0.00    +0.000 C 
ENDBRANCH  13  17
ENDBRANCH   7  11
ENDBRANCH   1   8
BRANCH   4  19
ATOM     19  O   UNL     1      -1.943  13.835  22.876  0.00  0.00    +0.000 OA
BRANCH  19  20
ATOM     20  C   UNL     1      -3.095  13.597  23.675  0.00  0.00    +0.000 C 
BRANCH  20  21
ATOM     21  C   UNL     1      -4.310  13.276  22.803  0.00  0.00    +0.000 C 
ATOM     22  O   UNL     1      -4.915  12.207  22.916  0.00  0.00    +0.000 OA
ATOM     23  N   UNL     1      -4.672  14.240  21.891  0.00  0.00    +0.000 N 
ATOM     24  H   UNL     1      -4.149  15.112  21.869  0.00  0.00    +0.000 HD
BRANCH  23  25
ATOM     25  C   UNL     1      -5.809  14.062  21.011  0.00  0.00    +0.000 C 
BRANCH  25  26
ATOM     26  C   UNL     1      -5.463  13.513  19.612  0.00  0.00    +0.000 C 
BRANCH  26  27
ATOM     27  N   UNL     1      -5.787  12.087  19.365  0.00  0.00    +0.000 NA
ATOM     28  C   UNL     1      -7.107  11.735  19.909  0.00  0.00    +0.000 C 
BRANCH  27  29
ATOM     29  C   UNL     1      -5.810  11.794  17.909  0.00  0.00    +0.000 C 
BRANCH  29  30
ATOM     30  C   UNL     1      -4.546  11.168  17.360  0.00  0.00    +0.000 A 
ATOM     31  C   UNL     1      -3.733  10.360  18.165  0.00  0.00    +0.000 A 
ATOM     32  C   UNL     1      -2.568   9.789  17.649  0.00  0.00    +0.000 A 
ATOM     33  C   UNL     1      -2.212  10.008  16.318  0.00  0.00    +0.000 A 
ATOM     34  C   UNL     1      -3.024  10.789  15.500  0.00  0.00    +0.000 A 
ATOM     35  C   UNL     1      -4.187  11.364  16.016  0.00  0.00    +0.000 A 
ENDBRANCH  29  30
ENDBRANCH  27  29
ENDBRANCH  26  27
ENDBRANCH  25  26
ENDBRANCH  23  25
ENDBRANCH  20  21
ENDBRANCH  19  20
ENDBRANCH   4  19
TORSDOF 12
ENDMDL
MODEL 6
REMARK VINA RESULT:      -7.2      6.248     10.376
REMARK  Name = 
REMARK  15 active torsions:
REMARK  status: ('A' for Active; 'I' for Inactive)
REMARK    1  A    between atoms: C_1  and  O_2
REMARK    2  A    between atoms: O_2  and  C_3
REMARK    3  A    between atoms: C_5  and  C_6
REMARK    4  A    between atoms: C_7  and  C_8
REMARK    5  A    between atoms: C_11  and  O_12
REMARK    6  A    between atoms: O_12  and  C_13
REMARK    7  A    between atoms: C_13  and  C_14
REMARK    8  A    between atoms: N_16  and  C_17
REMARK    9  A    between atoms: C_17  and  C_18
REMARK   10  A    between atoms: C_18  and  N_19
REMARK   11  A    between atoms: N_19  and  C_20
REMARK   12  A    between atoms: N_19  and  C_21
REMARK   13  A    between atoms: C_21  and  C_22
REMARK   14  A    between atoms: C_31  and  O_32
REMARK   15  A    between atoms: O_32  and  C_33
REMARK                            x       y       z     vdW  Elec       q    Type
REMARK                         _______ _______ _______ _____ _____    ______ ____
ROOT
ATOM      1  C   UNL     1       1.319   9.557  18.917  0.00  0.00    +0.000 A 
ATOM      2  C   UNL     1       0.625   9.342  20.113  0.00  0.00    +0.000 A 
ATOM      3  C   UNL     1       0.024  10.405  20.788  0.00  0.00    +0.000 A 
ATOM      4  C   UNL     1       0.137  11.702  20.299  0.00  0.00    +0.000 A 
ATOM      5  C   UNL     1       0.837  11.936  19.116  0.00  0.00    +0.000 A 
ATOM      6  C   UNL     1       1.432  10.867  18.432  0.00  0.00    +0.000 A 
ENDROOT
BRANCH   1   8
ATOM      7  C   UNL     1       2.302   7.291  18.748  0.00  0.00    +0.000 C 
ATOM      8  C   UNL     1       1.942   8.451  18.172  0.00  0.00    +0.000 C 
BRANCH   7  11
ATOM      9  C   UNL     1       4.800   5.190  16.874  0.00  0.00    +0.000 A 
ATOM     10  C   UNL     1       4.165   6.276  17.480  0.00  0.00    +0.000 A 
ATOM     11  C   UNL     1       2.889   6.143  18.047  0.00  0.00    +0.000 A 
ATOM     12  C   UNL     1       2.266   4.892  18.007  0.00  0.00    +0.000 A 
ATOM     13  C   UNL     1       2.893   3.796  17.407  0.00  0.00    +0.000 A 
ATOM     14  C   UNL     1       4.158   3.950  16.834  0.00  0.00    +0.000 A 
BRANCH   9  16
ATOM     15  C   UNL     1       6.476   4.707  15.253  0.00  0.00    +0.000 C 
ATOM     16  O   UNL     1       6.047   5.465  16.378  0.00  0.00    +0.000 OA
ENDBRANCH   9  16
BRANCH  13  17
ATOM     17  O   UNL     1       2.171   2.636  17.463  0.00  0.00    +0.000 OA
ATOM     18  C   UNL     1       1.242   2.505  18.532  0.00  0.00    +0.000 C 
ENDBRANCH  13  17
ENDBRANCH   7  11
ENDBRANCH   1   8
BRANCH   4  19
ATOM     19  O   UNL     1      -0.499  12.654  21.045  0.00  0.00    +0.000 OA
BRANCH  19  20
ATOM     20  C   UNL     1      -1.366  12.160  22.057  0.00  0.00    +0.000 C 
BRANCH  20  21
ATOM     21  C   UNL     1      -2.775  12.736  21.902  0.00  0.00    +0.000 C 
ATOM     22  O   UNL     1      -3.379  13.220  22.862  0.00  0.00    +0.000 OA
ATOM     23  N   UNL     1      -3.319  12.669  20.640  0.00  0.00    +0.000 N 
ATOM     24  H   UNL     1      -2.756  12.285  19.886  0.00  0.00    +0.000 HD
BRANCH  23  25
ATOM     25  C   UNL     1      -4.643  13.186  20.358  0.00  0.00    +0.000 C 
BRANCH  25  26
ATOM     26  C   UNL     1      -5.738  12.110  20.212  0.00  0.00    +0.000 C 
BRANCH  26  27
ATOM     27  N   UNL     1      -6.477  12.092  18.926  0.00  0.00    +0.000 NA
ATOM     28  C   UNL     1      -6.074  13.211  18.061  0.00  0.00    +0.000 C 
BRANCH  27  29
ATOM     29  C   UNL     1      -6.214  10.834  18.182  0.00  0.00    +0.000 C 
BRANCH  29  30
ATOM     30  C   UNL     1      -4.819  10.706  17.608  0.00  0.00    +0.000 A 
ATOM     31  C   UNL     1      -3.827   9.982  18.281  0.00  0.00    +0.000 A 
ATOM     32  C   UNL     1      -2.543   9.871  17.743  0.00  0.00    +0.000 A 
ATOM     33  C   UNL     1      -2.241  10.473  16.521  0.00  0.00    +0.000 A 
ATOM     34  C   UNL     1      -3.225  11.176  15.831  0.00  0.00    +0.000 A 
ATOM     35  C   UNL     1      -4.509  11.290  16.369  0.00  0.00    +0.000 A 
ENDBRANCH  29  30
ENDBRANCH  27  29
ENDBRANCH  26  27
ENDBRANCH  25  26
ENDBRANCH  23  25
ENDBRANCH  20  21
ENDBRANCH  19  20
ENDBRANCH   4  19
TORSDOF 12
ENDMDL
MODEL 7
REMARK VINA RESULT:      -7.2      5.868      9.652
REMARK  Name = 
REMARK  15 active torsions:
REMARK  status: ('A' for Active; 'I' for Inactive)
REMARK    1  A    between atoms: C_1  and  O_2
REMARK    2  A    between atoms: O_2  and  C_3
REMARK    3  A    between atoms: C_5  and  C_6
REMARK    4  A    between atoms: C_7  and  C_8
REMARK    5  A    between atoms: C_11  and  O_12
REMARK    6  A    between atoms: O_12  and  C_13
REMARK    7  A    between atoms: C_13  and  C_14
REMARK    8  A    between atoms: N_16  and  C_17
REMARK    9  A    between atoms: C_17  and  C_18
REMARK   10  A    between atoms: C_18  and  N_19
REMARK   11  A    between atoms: N_19  and  C_20
REMARK   12  A    between atoms: N_19  and  C_21
REMARK   13  A    between atoms: C_21  and  C_22
REMARK   14  A    between atoms: C_31  and  O_32
REMARK   15  A    between atoms: O_32  and  C_33
REMARK                            x       y       z     vdW  Elec       q    Type
REMARK                         _______ _______ _______ _____ _____    ______ ____
ROOT
ATOM      1  C   UNL     1       2.208   8.034  18.930  0.00  0.00    +0.000 A 
ATOM      2  C   UNL     1       1.727   7.989  20.244  0.00  0.00    +0.000 A 
ATOM      3  C   UNL     1       0.838   8.958  20.709  0.00  0.00    +0.000 A 
ATOM      4  C   UNL     1       0.445  10.006  19.884  0.00  0.00    +0.000 A 
ATOM      5  C   UNL     1       0.925  10.074  18.576  0.00  0.00    +0.000 A 
ATOM      6  C   UNL     1       1.810   9.095  18.105  0.00  0.00    +0.000 A 
ENDROOT
BRANCH   1   8
ATOM      7  C   UNL     1       4.066   7.276  17.479  0.00  0.00    +0.000 C 
ATOM      8  C   UNL     1       3.128   7.012  18.405  0.00  0.00    +0.000 C 
BRANCH   7  11
ATOM      9  C   UNL     1       6.978   4.896  17.352  0.00  0.00    +0.000 A 
ATOM     10  C   UNL     1       6.081   5.877  17.779  0.00  0.00    +0.000 A 
ATOM     11  C   UNL     1       5.033   6.307  16.952  0.00  0.00    +0.000 A 
ATOM     12  C   UNL     1       4.893   5.721  15.690  0.00  0.00    +0.000 A 
ATOM     13  C   UNL     1       5.782   4.735  15.253  0.00  0.00    +0.000 A 
ATOM     14  C   UNL     1       6.830   4.329  16.084  0.00  0.00    +0.000 A 
BRANCH   9  16
ATOM     15  C   UNL     1       8.123   5.461  19.362  0.00  0.00    +0.000 C 
ATOM     16  O   UNL     1       7.941   4.568  18.270  0.00  0.00    +0.000 OA
ENDBRANCH   9  16
BRANCH  13  17
ATOM     17  O   UNL     1       5.506   4.242  14.007  0.00  0.00    +0.000 OA
ATOM     18  C   UNL     1       6.613   3.819  13.220  0.00  0.00    +0.000 C 
ENDBRANCH  13  17
ENDBRANCH   7  11
ENDBRANCH   1   8
BRANCH   4  19
ATOM     19  O   UNL     1      -0.432  10.886  20.453  0.00  0.00    +0.000 OA
BRANCH  19  20
ATOM     20  C   UNL     1       0.158  11.983  21.137  0.00  0.00    +0.000 C 
BRANCH  20  21
ATOM     21  C   UNL     1      -0.653  13.263  20.926  0.00  0.00    +0.000 C 
ATOM     22  O   UNL     1      -0.160  14.251  20.378  0.00  0.00    +0.000 OA
ATOM     23  N   UNL     1      -1.949  13.240  21.389  0.00  0.00    +0.000 N 
ATOM     24  H   UNL     1      -2.303  12.383  21.805  0.00  0.00    +0.000 HD
BRANCH  23  25
ATOM     25  C   UNL     1      -2.825  14.385  21.244  0.00  0.00    +0.000 C 
BRANCH  25  26
ATOM     26  C   UNL     1      -4.117  14.112  20.446  0.00  0.00    +0.000 C 
BRANCH  26  27
ATOM     27  N   UNL     1      -4.546  12.696  20.352  0.00  0.00    +0.000 NA
ATOM     28  C   UNL     1      -5.528  12.363  21.394  0.00  0.00    +0.000 C 
BRANCH  27  29
ATOM     29  C   UNL     1      -5.178  12.420  19.036  0.00  0.00    +0.000 C 
BRANCH  29  30
ATOM     30  C   UNL     1      -4.319  11.645  18.060  0.00  0.00    +0.000 A 
ATOM     31  C   UNL     1      -3.197  10.930  18.498  0.00  0.00    +0.000 A 
ATOM     32  C   UNL     1      -2.410  10.220  17.589  0.00  0.00    +0.000 A 
ATOM     33  C   UNL     1      -2.744  10.207  16.235  0.00  0.00    +0.000 A 
ATOM     34  C   UNL     1      -3.870  10.894  15.790  0.00  0.00    +0.000 A 
ATOM     35  C   UNL     1      -4.656  11.607  16.698  0.00  0.00    +0.000 A 
ENDBRANCH  29  30
ENDBRANCH  27  29
ENDBRANCH  26  27
ENDBRANCH  25  26
ENDBRANCH  23  25
ENDBRANCH  20  21
ENDBRANCH  19  20
ENDBRANCH   4  19
TORSDOF 12
ENDMDL
MODEL 8
REMARK VINA RESULT:      -7.1      6.165     10.798
REMARK  Name = 
REMARK  15 active torsions:
REMARK  status: ('A' for Active; 'I' for Inactive)
REMARK    1  A    between atoms: C_1  and  O_2
REMARK    2  A    between atoms: O_2  and  C_3
REMARK    3  A    between atoms: C_5  and  C_6
REMARK    4  A    between atoms: C_7  and  C_8
REMARK    5  A    between atoms: C_11  and  O_12
REMARK    6  A    between atoms: O_12  and  C_13
REMARK    7  A    between atoms: C_13  and  C_14
REMARK    8  A    between atoms: N_16  and  C_17
REMARK    9  A    between atoms: C_17  and  C_18
REMARK   10  A    between atoms: C_18  and  N_19
REMARK   11  A    between atoms: N_19  and  C_20
REMARK   12  A    between atoms: N_19  and  C_21
REMARK   13  A    between atoms: C_21  and  C_22
REMARK   14  A    between atoms: C_31  and  O_32
REMARK   15  A    between atoms: O_32  and  C_33
REMARK                            x       y       z     vdW  Elec       q    Type
REMARK                         _______ _______ _______ _____ _____    ______ ____
ROOT
ATOM      1  C   UNL     1       0.531   9.684  21.263  0.00  0.00    +0.000 A 
ATOM      2  C   UNL     1       0.725  11.036  20.957  0.00  0.00    +0.000 A 
ATOM      3  C   UNL     1       0.113  12.033  21.718  0.00  0.00    +0.000 A 
ATOM      4  C   UNL     1      -0.729  11.695  22.772  0.00  0.00    +0.000 A 
ATOM      5  C   UNL     1      -0.944  10.352  23.082  0.00  0.00    +0.000 A 
ATOM      6  C   UNL     1      -0.322   9.351  22.325  0.00  0.00    +0.000 A 
ENDROOT
BRANCH   1   8
ATOM      7  C   UNL     1       1.371   7.373  20.976  0.00  0.00    +0.000 C 
ATOM      8  C   UNL     1       1.183   8.613  20.492  0.00  0.00    +0.000 C 
BRANCH   7  11
ATOM      9  C   UNL     1       3.319   5.516  18.345  0.00  0.00    +0.000 A 
ATOM     10  C   UNL     1       2.657   6.529  19.041  0.00  0.00    +0.000 A 
ATOM     11  C   UNL     1       1.977   6.259  20.237  0.00  0.00    +0.000 A 
ATOM     12  C   UNL     1       1.988   4.951  20.732  0.00  0.00    +0.000 A 
ATOM     13  C   UNL     1       2.650   3.929  20.046  0.00  0.00    +0.000 A 
ATOM     14  C   UNL     1       3.310   4.213  18.847  0.00  0.00    +0.000 A 
BRANCH   9  16
ATOM     15  C   UNL     1       4.868   7.010  17.324  0.00  0.00    +0.000 C 
ATOM     16  O   UNL     1       3.949   5.931  17.201  0.00  0.00    +0.000 OA
ENDBRANCH   9  16
BRANCH  13  17
ATOM     17  O   UNL     1       2.590   2.709  20.662  0.00  0.00    +0.000 OA
ATOM     18  C   UNL     1       1.682   2.577  21.748  0.00  0.00    +0.000 C 
ENDBRANCH  13  17
ENDBRANCH   7  11
ENDBRANCH   1   8
BRANCH   4  19
ATOM     19  O   UNL     1      -1.262  12.759  23.443  0.00  0.00    +0.000 OA
BRANCH  19  20
ATOM     20  C   UNL     1      -1.243  13.996  22.745  0.00  0.00    +0.000 C 
BRANCH  20  21
ATOM     21  C   UNL     1      -2.580  14.255  22.048  0.00  0.00    +0.000 C 
ATOM     22  O   UNL     1      -2.640  14.882  20.988  0.00  0.00    +0.000 OA
ATOM     23  N   UNL     1      -3.696  13.755  22.679  0.00  0.00    +0.000 N 
ATOM     24  H   UNL     1      -3.575  13.221  23.535  0.00  0.00    +0.000 HD
BRANCH  23  25
ATOM     25  C   UNL     1      -5.022  13.925  22.119  0.00  0.00    +0.000 C 
BRANCH  25  26
ATOM     26  C   UNL     1      -5.111  13.708  20.594  0.00  0.00    +0.000 C 
BRANCH  26  27
ATOM     27  N   UNL     1      -5.328  12.313  20.139  0.00  0.00    +0.000 NA
ATOM     28  C   UNL     1      -6.680  11.844  20.476  0.00  0.00    +0.000 C 
BRANCH  27  29
ATOM     29  C   UNL     1      -5.172  12.207  18.666  0.00  0.00    +0.000 C 
BRANCH  29  30
ATOM     30  C   UNL     1      -3.937  11.462  18.203  0.00  0.00    +0.000 A 
ATOM     31  C   UNL     1      -2.701  11.656  18.832  0.00  0.00    +0.000 A 
ATOM     32  C   UNL     1      -1.568  10.965  18.396  0.00  0.00    +0.000 A 
ATOM     33  C   UNL     1      -1.664  10.062  17.337  0.00  0.00    +0.000 A 
ATOM     34  C   UNL     1      -2.892   9.842  16.719  0.00  0.00    +0.000 A 
ATOM     35  C   UNL     1      -4.024  10.536  17.152  0.00  0.00    +0.000 A 
ENDBRANCH  29  30
ENDBRANCH  27  29
ENDBRANCH  26  27
ENDBRANCH  25  26
ENDBRANCH  23  25
ENDBRANCH  20  21
ENDBRANCH  19  20
ENDBRANCH   4  19
TORSDOF 12
ENDMDL
MODEL 9
REMARK VINA RESULT:      -7.1      6.367     10.575
REMARK  Name = 
REMARK  15 active torsions:
REMARK  status: ('A' for Active; 'I' for Inactive)
REMARK    1  A    between atoms: C_1  and  O_2
REMARK    2  A    between atoms: O_2  and  C_3
REMARK    3  A    between atoms: C_5  and  C_6
REMARK    4  A    between atoms: C_7  and  C_8
REMARK    5  A    between atoms: C_11  and  O_12
REMARK    6  A    between atoms: O_12  and  C_13
REMARK    7  A    between atoms: C_13  and  C_14
REMARK    8  A    between atoms: N_16  and  C_17
REMARK    9  A    between atoms: C_17  and  C_18
REMARK   10  A    between atoms: C_18  and  N_19
REMARK   11  A    between atoms: N_19  and  C_20
REMARK   12  A    between atoms: N_19  and  C_21
REMARK   13  A    between atoms: C_21  and  C_22
REMARK   14  A    between atoms: C_31  and  O_32
REMARK   15  A    between atoms: O_32  and  C_33
REMARK                            x       y       z     vdW  Elec       q    Type
REMARK                         _______ _______ _______ _____ _____    ______ ____
ROOT
ATOM      1  C   UNL     1       1.286   9.516  18.924  0.00  0.00    +0.000 A 
ATOM      2  C   UNL     1       1.252  10.825  18.428  0.00  0.00    +0.000 A 
ATOM      3  C   UNL     1       0.663  11.851  19.167  0.00  0.00    +0.000 A 
ATOM      4  C   UNL     1       0.067  11.581  20.394  0.00  0.00    +0.000 A 
ATOM      5  C   UNL     1       0.079  10.280  20.897  0.00  0.00    +0.000 A 
ATOM      6  C   UNL     1       0.680   9.251  20.160  0.00  0.00    +0.000 A 
ENDROOT
BRANCH   1   8
ATOM      7  C   UNL     1       2.472   7.348  18.774  0.00  0.00    +0.000 C 
ATOM      8  C   UNL     1       1.921   8.419  18.177  0.00  0.00    +0.000 C 
BRANCH   7  11
ATOM      9  C   UNL     1       2.920   3.880  17.384  0.00  0.00    +0.000 A 
ATOM     10  C   UNL     1       2.423   4.971  18.099  0.00  0.00    +0.000 A 
ATOM     11  C   UNL     1       3.081   6.209  18.077  0.00  0.00    +0.000 A 
ATOM     12  C   UNL     1       4.243   6.336  17.311  0.00  0.00    +0.000 A 
ATOM     13  C   UNL     1       4.749   5.252  16.588  0.00  0.00    +0.000 A 
ATOM     14  C   UNL     1       4.089   4.021  16.632  0.00  0.00    +0.000 A 
BRANCH   9  16
ATOM     15  C   UNL     1       1.229   2.682  18.557  0.00  0.00    +0.000 C 
ATOM     16  O   UNL     1       2.166   2.741  17.488  0.00  0.00    +0.000 OA
ENDBRANCH   9  16
BRANCH  13  17
ATOM     17  O   UNL     1       5.880   5.533  15.871  0.00  0.00    +0.000 OA
ATOM     18  C   UNL     1       6.772   4.454  15.622  0.00  0.00    +0.000 C 
ENDBRANCH  13  17
ENDBRANCH   7  11
ENDBRANCH   1   8
BRANCH   4  19
ATOM     19  O   UNL     1      -0.469  12.669  21.023  0.00  0.00    +0.000 OA
BRANCH  19  20
ATOM     20  C   UNL     1      -1.261  13.521  20.205  0.00  0.00    +0.000 C 
BRANCH  20  21
ATOM     21  C   UNL     1      -2.706  13.572  20.704  0.00  0.00    +0.000 C 
ATOM     22  O   UNL     1      -2.967  13.772  21.892  0.00  0.00    +0.000 OA
ATOM     23  N   UNL     1      -3.681  13.374  19.753  0.00  0.00    +0.000 N 
ATOM     24  H   UNL     1      -3.399  13.243  18.785  0.00  0.00    +0.000 HD
BRANCH  23  25
ATOM     25  C   UNL     1      -5.089  13.405  20.094  0.00  0.00    +0.000 C 
BRANCH  25  26
ATOM     26  C   UNL     1      -5.767  12.022  20.164  0.00  0.00    +0.000 C 
BRANCH  26  27
ATOM     27  N   UNL     1      -6.714  11.696  19.071  0.00  0.00    +0.000 NA
ATOM     28  C   UNL     1      -6.846  12.813  18.125  0.00  0.00    +0.000 C 
BRANCH  27  29
ATOM     29  C   UNL     1      -6.251  10.512  18.304  0.00  0.00    +0.000 C 
BRANCH  29  30
ATOM     30  C   UNL     1      -4.831  10.597  17.785  0.00  0.00    +0.000 A 
ATOM     31  C   UNL     1      -3.791   9.903  18.416  0.00  0.00    +0.000 A 
ATOM     32  C   UNL     1      -2.485   9.991  17.930  0.00  0.00    +0.000 A 
ATOM     33  C   UNL     1      -2.208  10.762  16.800  0.00  0.00    +0.000 A 
ATOM     34  C   UNL     1      -3.237  11.438  16.150  0.00  0.00    +0.000 A 
ATOM     35  C   UNL     1      -4.544  11.353  16.638  0.00  0.00    +0.000 A 
ENDBRANCH  29  30
ENDBRANCH  27  29
ENDBRANCH  26  27
ENDBRANCH  25  26
ENDBRANCH  23  25
ENDBRANCH  20  21
ENDBRANCH  19  20
ENDBRANCH   4  19
TORSDOF 12
ENDMDL
