MODEL 1
REMARK VINA RESULT:      -8.4      0.000      0.000
REMARK  Name = 
REMARK  3 active torsions:
REMARK  status: ('A' for Active; 'I' for Inactive)
REMARK    1  A    between atoms: C_12  and  O_13
REMARK    2  A    between atoms: O_13  and  C_14
REMARK    3  A    between atoms: C_14  and  C_15
REMARK                            x       y       z     vdW  Elec       q    Type
REMARK                         _______ _______ _______ _____ _____    ______ ____
ROOT
ATOM      1  O   UNL     1      -1.014  12.139  17.902  0.00  0.00    +0.000 OA
ATOM      2  C   UNL     1      -1.072  11.914  19.101  0.00  0.00    +0.000 A 
ATOM      3  C   UNL     1      -1.921  12.695  20.066  0.00  0.00    +0.000 A 
ATOM      4  C   UNL     1      -1.976  12.426  21.385  0.00  0.00    +0.000 A 
ATOM      5  C   UNL     1      -1.192  11.338  21.940  0.00  0.00    +0.000 A 
ATOM      6  N   UNL     1      -1.187  10.993  23.237  0.00  0.00    +0.000 NA
ATOM      7  C   UNL     1      -0.401   9.949  23.607  0.00  0.00    +0.000 A 
ATOM      8  C   UNL     1       0.406   9.204  22.747  0.00  0.00    +0.000 A 
ATOM      9  C   UNL     1       0.388   9.586  21.398  0.00  0.00    +0.000 A 
ATOM     10  C   UNL     1       1.006   9.150  20.195  0.00  0.00    +0.000 A 
ATOM     11  C   UNL     1       1.918   8.115  19.925  0.00  0.00    +0.000 A 
ATOM     12  C   UNL     1       2.311   7.858  18.611  0.00  0.00    +0.000 A 
ATOM     13  C   UNL     1       1.872   8.685  17.579  0.00  0.00    +0.000 A 
ATOM     14  C   UNL     1       0.983   9.743  17.819  0.00  0.00    +0.000 A 
ATOM     15  C   UNL     1       0.547   9.952  19.139  0.00  0.00    +0.000 A 
ATOM     16  N   UNL     1      -0.330  10.878  19.691  0.00  0.00    +0.000 N 
ATOM     17  C   UNL     1      -0.418  10.641  21.043  0.00  0.00    +0.000 A 
ENDROOT
BRANCH  12  18
ATOM     18  O   UNL     1       3.121   6.812  18.252  0.00  0.00    +0.000 OA
BRANCH  18  19
ATOM     19  C   UNL     1       3.496   5.954  19.334  0.00  0.00    +0.000 C 
BRANCH  19  20
ATOM     20  C   UNL     1       2.541   4.794  19.404  0.00  0.00    +0.000 A 
ATOM     21  C   UNL     1       2.208   4.078  18.248  0.00  0.00    +0.000 A 
ATOM     22  C   UNL     1       1.304   3.019  18.313  0.00  0.00    +0.000 A 
ATOM     23  C   UNL     1       0.731   2.665  19.535  0.00  0.00    +0.000 A 
ATOM     24  C   UNL     1       1.068   3.363  20.693  0.00  0.00    +0.000 A 
ATOM     25  C   UNL     1       1.970   4.423  20.629  0.00  0.00    +0.000 A 
ENDBRANCH  19  20
ENDBRANCH  18  19
ENDBRANCH  12  18
TORSDOF 3
ENDMDL
MODEL 2
REMARK VINA RESULT:      -8.3      3.125      7.720
REMARK  Name = 
REMARK  3 active torsions:
REMARK  status: ('A' for Active; 'I' for Inactive)
REMARK    1  A    between atoms: C_12  and  O_13
REMARK    2  A    between atoms: O_13  and  C_14
REMARK    3  A    between atoms: C_14  and  C_15
REMARK                            x       y       z     vdW  Elec       q    Type
REMARK                         _______ _______ _______ _____ _____    ______ ____
ROOT
ATOM      1  O   UNL     1       2.233   4.521  21.384  0.00  0.00    +0.000 OA
ATOM      2  C   UNL     1       2.941   4.427  20.394  0.00  0.00    +0.000 A 
ATOM      3  C   UNL     1       3.750   3.207  20.049  0.00  0.00    +0.000 A 
ATOM      4  C   UNL     1       4.522   3.121  18.948  0.00  0.00    +0.000 A 
ATOM      5  C   UNL     1       4.603   4.238  18.026  0.00  0.00    +0.000 A 
ATOM      6  N   UNL     1       5.339   4.242  16.903  0.00  0.00    +0.000 NA
ATOM      7  C   UNL     1       5.312   5.365  16.138  0.00  0.00    +0.000 A 
ATOM      8  C   UNL     1       4.583   6.519  16.425  0.00  0.00    +0.000 A 
ATOM      9  C   UNL     1       3.827   6.493  17.606  0.00  0.00    +0.000 A 
ATOM     10  C   UNL     1       2.954   7.381  18.290  0.00  0.00    +0.000 A 
ATOM     11  C   UNL     1       2.524   8.687  18.003  0.00  0.00    +0.000 A 
ATOM     12  C   UNL     1       1.586   9.310  18.828  0.00  0.00    +0.000 A 
ATOM     13  C   UNL     1       1.148   8.672  19.987  0.00  0.00    +0.000 A 
ATOM     14  C   UNL     1       1.580   7.379  20.317  0.00  0.00    +0.000 A 
ATOM     15  C   UNL     1       2.477   6.740  19.444  0.00  0.00    +0.000 A 
ATOM     16  N   UNL     1       3.061   5.480  19.473  0.00  0.00    +0.000 N 
ATOM     17  C   UNL     1       3.861   5.346  18.363  0.00  0.00    +0.000 A 
ENDROOT
BRANCH  12  18
ATOM     18  O   UNL     1       1.045  10.542  18.568  0.00  0.00    +0.000 OA
BRANCH  18  19
ATOM     19  C   UNL     1      -0.107  10.863  19.355  0.00  0.00    +0.000 C 
BRANCH  19  20
ATOM     20  C   UNL     1      -1.334  10.805  18.489  0.00  0.00    +0.000 A 
ATOM     21  C   UNL     1      -2.429  11.637  18.753  0.00  0.00    +0.000 A 
ATOM     22  C   UNL     1      -3.575  11.562  17.961  0.00  0.00    +0.000 A 
ATOM     23  C   UNL     1      -3.631  10.661  16.898  0.00  0.00    +0.000 A 
ATOM     24  C   UNL     1      -2.541   9.840  16.620  0.00  0.00    +0.000 A 
ATOM     25  C   UNL     1      -1.396   9.911  17.411  0.00  0.00    +0.000 A 
ENDBRANCH  19  20
ENDBRANCH  18  19
ENDBRANCH  12  18
TORSDOF 3
ENDMDL
MODEL 3
REMARK VINA RESULT:      -8.3      4.896      7.599
REMARK  Name = 
REMARK  3 active torsions:
REMARK  status: ('A' for Active; 'I' for Inactive)
REMARK    1  A    between atoms: C_12  and  O_13
REMARK    2  A    between atoms: O_13  and  C_14
REMARK    3  A    between atoms: C_14  and  C_15
REMARK                            x       y       z     vdW  Elec       q    Type
REMARK                         _______ _______ _______ _____ _____    ______ ____
ROOT
ATOM      1  O   UNL     1       2.346   7.478  19.686  0.00  0.00    +0.000 OA
ATOM      2  C   UNL     1       2.209   6.266  19.725  0.00  0.00    +0.000 A 
ATOM      3  C   UNL     1       1.338   5.547  20.718  0.00  0.00    +0.000 A 
ATOM      4  C   UNL     1       1.195   4.207  20.740  0.00  0.00    +0.000 A 
ATOM      5  C   UNL     1       1.901   3.383  19.777  0.00  0.00    +0.000 A 
ATOM      6  N   UNL     1       1.816   2.045  19.718  0.00  0.00    +0.000 NA
ATOM      7  C   UNL     1       2.537   1.411  18.756  0.00  0.00    +0.000 A 
ATOM      8  C   UNL     1       3.362   2.038  17.822  0.00  0.00    +0.000 A 
ATOM      9  C   UNL     1       3.438   3.436  17.907  0.00  0.00    +0.000 A 
ATOM     10  C   UNL     1       4.106   4.475  17.206  0.00  0.00    +0.000 A 
ATOM     11  C   UNL     1       4.989   4.459  16.113  0.00  0.00    +0.000 A 
ATOM     12  C   UNL     1       5.448   5.660  15.569  0.00  0.00    +0.000 A 
ATOM     13  C   UNL     1       5.103   6.870  16.167  0.00  0.00    +0.000 A 
ATOM     14  C   UNL     1       4.245   6.919  17.276  0.00  0.00    +0.000 A 
ATOM     15  C   UNL     1       3.742   5.706  17.775  0.00  0.00    +0.000 A 
ATOM     16  N   UNL     1       2.873   5.422  18.821  0.00  0.00    +0.000 N 
ATOM     17  C   UNL     1       2.697   4.059  18.882  0.00  0.00    +0.000 A 
ENDROOT
BRANCH  12  18
ATOM     18  O   UNL     1       6.235   5.734  14.449  0.00  0.00    +0.000 OA
BRANCH  18  19
ATOM     19  C   UNL     1       7.019   4.564  14.196  0.00  0.00    +0.000 C 
BRANCH  19  20
ATOM     20  C   UNL     1       6.416   3.798  13.050  0.00  0.00    +0.000 A 
ATOM     21  C   UNL     1       5.037   3.845  12.814  0.00  0.00    +0.000 A 
ATOM     22  C   UNL     1       4.479   3.114  11.765  0.00  0.00    +0.000 A 
ATOM     23  C   UNL     1       5.297   2.337  10.944  0.00  0.00    +0.000 A 
ATOM     24  C   UNL     1       6.672   2.296  11.164  0.00  0.00    +0.000 A 
ATOM     25  C   UNL     1       7.230   3.024  12.212  0.00  0.00    +0.000 A 
ENDBRANCH  19  20
ENDBRANCH  18  19
ENDBRANCH  12  18
TORSDOF 3
ENDMDL
MODEL 4
REMARK VINA RESULT:      -8.3      2.953      7.200
REMARK  Name = 
REMARK  3 active torsions:
REMARK  status: ('A' for Active; 'I' for Inactive)
REMARK    1  A    between atoms: C_12  and  O_13
REMARK    2  A    between atoms: O_13  and  C_14
REMARK    3  A    between atoms: C_14  and  C_15
REMARK                            x       y       z     vdW  Elec       q    Type
REMARK                         _______ _______ _______ _____ _____    ______ ____
ROOT
ATOM      1  O   UNL     1       4.725   6.333  16.204  0.00  0.00    +0.000 OA
ATOM      2  C   UNL     1       4.420   5.564  17.101  0.00  0.00    +0.000 A 
ATOM      3  C   UNL     1       4.942   4.158  17.221  0.00  0.00    +0.000 A 
ATOM      4  C   UNL     1       4.597   3.326  18.223  0.00  0.00    +0.000 A 
ATOM      5  C   UNL     1       3.679   3.770  19.255  0.00  0.00    +0.000 A 
ATOM      6  N   UNL     1       3.283   3.016  20.292  0.00  0.00    +0.000 NA
ATOM      7  C   UNL     1       2.419   3.572  21.180  0.00  0.00    +0.000 A 
ATOM      8  C   UNL     1       1.905   4.867  21.102  0.00  0.00    +0.000 A 
ATOM      9  C   UNL     1       2.329   5.633  20.008  0.00  0.00    +0.000 A 
ATOM     10  C   UNL     1       2.100   6.948  19.520  0.00  0.00    +0.000 A 
ATOM     11  C   UNL     1       1.308   8.006  19.998  0.00  0.00    +0.000 A 
ATOM     12  C   UNL     1       1.327   9.241  19.347  0.00  0.00    +0.000 A 
ATOM     13  C   UNL     1       2.059   9.396  18.172  0.00  0.00    +0.000 A 
ATOM     14  C   UNL     1       2.838   8.350  17.653  0.00  0.00    +0.000 A 
ATOM     15  C   UNL     1       2.858   7.132  18.353  0.00  0.00    +0.000 A 
ATOM     16  N   UNL     1       3.532   5.940  18.121  0.00  0.00    +0.000 N 
ATOM     17  C   UNL     1       3.209   5.055  19.123  0.00  0.00    +0.000 A 
ENDROOT
BRANCH  12  18
ATOM     18  O   UNL     1       0.658  10.348  19.801  0.00  0.00    +0.000 OA
BRANCH  18  19
ATOM     19  C   UNL     1       0.275  11.270  18.775  0.00  0.00    +0.000 C 
BRANCH  19  20
ATOM     20  C   UNL     1      -1.171  11.051  18.424  0.00  0.00    +0.000 A 
ATOM     21  C   UNL     1      -1.537  10.044  17.523  0.00  0.00    +0.000 A 
ATOM     22  C   UNL     1      -2.877   9.861  17.182  0.00  0.00    +0.000 A 
ATOM     23  C   UNL     1      -3.858  10.680  17.742  0.00  0.00    +0.000 A 
ATOM     24  C   UNL     1      -3.503  11.675  18.649  0.00  0.00    +0.000 A 
ATOM     25  C   UNL     1      -2.165  11.861  18.990  0.00  0.00    +0.000 A 
ENDBRANCH  19  20
ENDBRANCH  18  19
ENDBRANCH  12  18
TORSDOF 3
ENDMDL
MODEL 5
REMARK VINA RESULT:      -8.3      0.953      1.313
REMARK  Name = 
REMARK  3 active torsions:
REMARK  status: ('A' for Active; 'I' for Inactive)
REMARK    1  A    between atoms: C_12  and  O_13
REMARK    2  A    between atoms: O_13  and  C_14
REMARK    3  A    between atoms: C_14  and  C_15
REMARK                            x       y       z     vdW  Elec       q    Type
REMARK                         _______ _______ _______ _____ _____    ______ ____
ROOT
ATOM      1  O   UNL     1       0.317  12.455  17.998  0.00  0.00    +0.000 OA
ATOM      2  C   UNL     1       0.037  12.164  19.151  0.00  0.00    +0.000 A 
ATOM      3  C   UNL     1      -0.741  13.055  20.081  0.00  0.00    +0.000 A 
ATOM      4  C   UNL     1      -1.045  12.713  21.347  0.00  0.00    +0.000 A 
ATOM      5  C   UNL     1      -0.619  11.431  21.878  0.00  0.00    +0.000 A 
ATOM      6  N   UNL     1      -0.880  11.002  23.123  0.00  0.00    +0.000 NA
ATOM      7  C   UNL     1      -0.416   9.775  23.475  0.00  0.00    +0.000 A 
ATOM      8  C   UNL     1       0.314   8.921  22.648  0.00  0.00    +0.000 A 
ATOM      9  C   UNL     1       0.579   9.393  21.354  0.00  0.00    +0.000 A 
ATOM     10  C   UNL     1       1.247   8.909  20.197  0.00  0.00    +0.000 A 
ATOM     11  C   UNL     1       1.927   7.708  19.935  0.00  0.00    +0.000 A 
ATOM     12  C   UNL     1       2.436   7.459  18.659  0.00  0.00    +0.000 A 
ATOM     13  C   UNL     1       2.351   8.440  17.673  0.00  0.00    +0.000 A 
ATOM     14  C   UNL     1       1.702   9.661  17.912  0.00  0.00    +0.000 A 
ATOM     15  C   UNL     1       1.141   9.873  19.182  0.00  0.00    +0.000 A 
ATOM     16  N   UNL     1       0.429  10.940  19.716  0.00  0.00    +0.000 N 
ATOM     17  C   UNL     1       0.095  10.634  21.014  0.00  0.00    +0.000 A 
ENDROOT
BRANCH  12  18
ATOM     18  O   UNL     1       3.028   6.277  18.295  0.00  0.00    +0.000 OA
BRANCH  18  19
ATOM     19  C   UNL     1       2.114   5.197  18.082  0.00  0.00    +0.000 C 
BRANCH  19  20
ATOM     20  C   UNL     1       2.200   4.237  19.237  0.00  0.00    +0.000 A 
ATOM     21  C   UNL     1       1.103   4.046  20.084  0.00  0.00    +0.000 A 
ATOM     22  C   UNL     1       1.196   3.172  21.168  0.00  0.00    +0.000 A 
ATOM     23  C   UNL     1       2.384   2.481  21.407  0.00  0.00    +0.000 A 
ATOM     24  C   UNL     1       3.476   2.655  20.560  0.00  0.00    +0.000 A 
ATOM     25  C   UNL     1       3.386   3.528  19.478  0.00  0.00    +0.000 A 
ENDBRANCH  19  20
ENDBRANCH  18  19
ENDBRANCH  12  18
TORSDOF 3
ENDMDL
MODEL 6
REMARK VINA RESULT:      -8.2      3.141      7.711
REMARK  Name = 
REMARK  3 active torsions:
REMARK  status: ('A' for Active; 'I' for Inactive)
REMARK    1  A    between atoms: C_12  and  O_13
REMARK    2  A    between atoms: O_13  and  C_14
REMARK    3  A    between atoms: C_14  and  C_15
REMARK                            x       y       z     vdW  Elec       q    Type
REMARK                         _______ _______ _______ _____ _____    ______ ____
ROOT
ATOM      1  O   UNL     1       2.162   4.296  21.534  0.00  0.00    +0.000 OA
ATOM      2  C   UNL     1       2.858   4.192  20.536  0.00  0.00    +0.000 A 
ATOM      3  C   UNL     1       3.635   2.956  20.175  0.00  0.00    +0.000 A 
ATOM      4  C   UNL     1       4.392   2.858  19.065  0.00  0.00    +0.000 A 
ATOM      5  C   UNL     1       4.488   3.979  18.148  0.00  0.00    +0.000 A 
ATOM      6  N   UNL     1       5.211   3.973  17.017  0.00  0.00    +0.000 NA
ATOM      7  C   UNL     1       5.201   5.100  16.259  0.00  0.00    +0.000 A 
ATOM      8  C   UNL     1       4.502   6.268  16.560  0.00  0.00    +0.000 A 
ATOM      9  C   UNL     1       3.758   6.253  17.749  0.00  0.00    +0.000 A 
ATOM     10  C   UNL     1       2.914   7.156  18.448  0.00  0.00    +0.000 A 
ATOM     11  C   UNL     1       2.509   8.474  18.172  0.00  0.00    +0.000 A 
ATOM     12  C   UNL     1       1.595   9.113  19.011  0.00  0.00    +0.000 A 
ATOM     13  C   UNL     1       1.155   8.478  20.172  0.00  0.00    +0.000 A 
ATOM     14  C   UNL     1       1.562   7.174  20.490  0.00  0.00    +0.000 A 
ATOM     15  C   UNL     1       2.435   6.520  19.604  0.00  0.00    +0.000 A 
ATOM     16  N   UNL     1       2.990   5.247  19.620  0.00  0.00    +0.000 N 
ATOM     17  C   UNL     1       3.775   5.101  18.499  0.00  0.00    +0.000 A 
ENDROOT
BRANCH  12  18
ATOM     18  O   UNL     1       1.079  10.358  18.764  0.00  0.00    +0.000 OA
BRANCH  18  19
ATOM     19  C   UNL     1      -0.097  10.673  19.516  0.00  0.00    +0.000 C 
BRANCH  19  20
ATOM     20  C   UNL     1      -1.286  10.697  18.596  0.00  0.00    +0.000 A 
ATOM     21  C   UNL     1      -1.318   9.884  17.456  0.00  0.00    +0.000 A 
ATOM     22  C   UNL     1      -2.412   9.928  16.593  0.00  0.00    +0.000 A 
ATOM     23  C   UNL     1      -3.483  10.779  16.866  0.00  0.00    +0.000 A 
ATOM     24  C   UNL     1      -3.466  11.581  18.005  0.00  0.00    +0.000 A 
ATOM     25  C   UNL     1      -2.372  11.541  18.867  0.00  0.00    +0.000 A 
ENDBRANCH  19  20
ENDBRANCH  18  19
ENDBRANCH  12  18
TORSDOF 3
ENDMDL
MODEL 7
REMARK VINA RESULT:      -8.2      4.915      7.228
REMARK  Name = 
REMARK  3 active torsions:
REMARK  status: ('A' for Active; 'I' for Inactive)
REMARK    1  A    between atoms: C_12  and  O_13
REMARK    2  A    between atoms: O_13  and  C_14
REMARK    3  A    between atoms: C_14  and  C_15
REMARK                            x       y       z     vdW  Elec       q    Type
REMARK                         _______ _______ _______ _____ _____    ______ ____
ROOT
ATOM      1  O   UNL     1       2.773   8.266  18.184  0.00  0.00    +0.000 OA
ATOM      2  C   UNL     1       2.648   7.271  18.880  0.00  0.00    +0.000 A 
ATOM      3  C   UNL     1       1.734   7.185  20.072  0.00  0.00    +0.000 A 
ATOM      4  C   UNL     1       1.605   6.075  20.824  0.00  0.00    +0.000 A 
ATOM      5  C   UNL     1       2.368   4.884  20.501  0.00  0.00    +0.000 A 
ATOM      6  N   UNL     1       2.301   3.732  21.187  0.00  0.00    +0.000 NA
ATOM      7  C   UNL     1       3.077   2.701  20.761  0.00  0.00    +0.000 A 
ATOM      8  C   UNL     1       3.942   2.741  19.668  0.00  0.00    +0.000 A 
ATOM      9  C   UNL     1       3.999   3.956  18.971  0.00  0.00    +0.000 A 
ATOM     10  C   UNL     1       4.691   4.462  17.838  0.00  0.00    +0.000 A 
ATOM     11  C   UNL     1       5.629   3.880  16.969  0.00  0.00    +0.000 A 
ATOM     12  C   UNL     1       6.102   4.600  15.870  0.00  0.00    +0.000 A 
ATOM     13  C   UNL     1       5.714   5.925  15.688  0.00  0.00    +0.000 A 
ATOM     14  C   UNL     1       4.800   6.545  16.554  0.00  0.00    +0.000 A 
ATOM     15  C   UNL     1       4.285   5.788  17.620  0.00  0.00    +0.000 A 
ATOM     16  N   UNL     1       3.366   6.095  18.616  0.00  0.00    +0.000 N 
ATOM     17  C   UNL     1       3.202   4.985  19.412  0.00  0.00    +0.000 A 
ENDROOT
BRANCH  12  18
ATOM     18  O   UNL     1       6.945   4.075  14.924  0.00  0.00    +0.000 OA
BRANCH  18  19
ATOM     19  C   UNL     1       6.858   4.700  13.640  0.00  0.00    +0.000 C 
BRANCH  19  20
ATOM     20  C   UNL     1       6.179   3.767  12.676  0.00  0.00    +0.000 A 
ATOM     21  C   UNL     1       4.830   3.945  12.346  0.00  0.00    +0.000 A 
ATOM     22  C   UNL     1       4.199   3.062  11.470  0.00  0.00    +0.000 A 
ATOM     23  C   UNL     1       4.913   1.999  10.916  0.00  0.00    +0.000 A 
ATOM     24  C   UNL     1       6.258   1.823  11.228  0.00  0.00    +0.000 A 
ATOM     25  C   UNL     1       6.891   2.703  12.104  0.00  0.00    +0.000 A 
ENDBRANCH  19  20
ENDBRANCH  18  19
ENDBRANCH  12  18
TORSDOF 3
ENDMDL
MODEL 8
REMARK VINA RESULT:      -8.1      5.130      7.447
REMARK  Name = 
REMARK  3 active torsions:
REMARK  status: ('A' for Active; 'I' for Inactive)
REMARK    1  A    between atoms: C_12  and  O_13
REMARK    2  A    between atoms: O_13  and  C_14
REMARK    3  A    between atoms: C_14  and  C_15
REMARK                            x       y       z     vdW  Elec       q    Type
REMARK                         _______ _______ _______ _____ _____    ______ ____
ROOT
ATOM      1  O   UNL     1       2.723   8.169  18.259  0.00  0.00    +0.000 OA
ATOM      2  C   UNL     1       2.662   7.132  18.901  0.00  0.00    +0.000 A 
ATOM      3  C   UNL     1       1.764   6.929  20.091  0.00  0.00    +0.000 A 
ATOM      4  C   UNL     1       1.706   5.775  20.782  0.00  0.00    +0.000 A 
ATOM      5  C   UNL     1       2.536   4.649  20.393  0.00  0.00    +0.000 A 
ATOM      6  N   UNL     1       2.542   3.461  21.017  0.00  0.00    +0.000 NA
ATOM      7  C   UNL     1       3.374   2.502  20.533  0.00  0.00    +0.000 A 
ATOM      8  C   UNL     1       4.227   2.651  19.440  0.00  0.00    +0.000 A 
ATOM      9  C   UNL     1       4.206   3.902  18.808  0.00  0.00    +0.000 A 
ATOM     10  C   UNL     1       4.859   4.508  17.701  0.00  0.00    +0.000 A 
ATOM     11  C   UNL     1       5.824   4.030  16.798  0.00  0.00    +0.000 A 
ATOM     12  C   UNL     1       6.245   4.834  15.737  0.00  0.00    +0.000 A 
ATOM     13  C   UNL     1       5.778   6.142  15.628  0.00  0.00    +0.000 A 
ATOM     14  C   UNL     1       4.836   6.659  16.530  0.00  0.00    +0.000 A 
ATOM     15  C   UNL     1       4.374   5.818  17.557  0.00  0.00    +0.000 A 
ATOM     16  N   UNL     1       3.446   6.016  18.571  0.00  0.00    +0.000 N 
ATOM     17  C   UNL     1       3.354   4.858  19.308  0.00  0.00    +0.000 A 
ENDROOT
BRANCH  12  18
ATOM     18  O   UNL     1       7.110   4.411  14.762  0.00  0.00    +0.000 OA
BRANCH  18  19
ATOM     19  C   UNL     1       6.805   4.893  13.449  0.00  0.00    +0.000 C 
BRANCH  19  20
ATOM     20  C   UNL     1       6.474   3.730  12.556  0.00  0.00    +0.000 A 
ATOM     21  C   UNL     1       7.495   2.958  11.989  0.00  0.00    +0.000 A 
ATOM     22  C   UNL     1       7.183   1.895  11.141  0.00  0.00    +0.000 A 
ATOM     23  C   UNL     1       5.850   1.594  10.860  0.00  0.00    +0.000 A 
ATOM     24  C   UNL     1       4.828   2.349  11.431  0.00  0.00    +0.000 A 
ATOM     25  C   UNL     1       5.137   3.412  12.276  0.00  0.00    +0.000 A 
ENDBRANCH  19  20
ENDBRANCH  18  19
ENDBRANCH  12  18
TORSDOF 3
ENDMDL
MODEL 9
REMARK VINA RESULT:      -8.0      2.103      3.186
REMARK  Name = 
REMARK  3 active torsions:
REMARK  status: ('A' for Active; 'I' for Inactive)
REMARK    1  A    between atoms: C_12  and  O_13
REMARK    2  A    between atoms: O_13  and  C_14
REMARK    3  A    between atoms: C_14  and  C_15
REMARK                            x       y       z     vdW  Elec       q    Type
REMARK                         _______ _______ _______ _____ _____    ______ ____
ROOT
ATOM      1  O   UNL     1       1.116  12.580  18.062  0.00  0.00    +0.000 OA
ATOM      2  C   UNL     1       0.693  12.319  19.178  0.00  0.00    +0.000 A 
ATOM      3  C   UNL     1      -0.034  13.301  20.055  0.00  0.00    +0.000 A 
ATOM      4  C   UNL     1      -0.498  12.992  21.281  0.00  0.00    +0.000 A 
ATOM      5  C   UNL     1      -0.308  11.657  21.817  0.00  0.00    +0.000 A 
ATOM      6  N   UNL     1      -0.740  11.255  23.023  0.00  0.00    +0.000 NA
ATOM      7  C   UNL     1      -0.487   9.971  23.386  0.00  0.00    +0.000 A 
ATOM      8  C   UNL     1       0.189   9.031  22.607  0.00  0.00    +0.000 A 
ATOM      9  C   UNL     1       0.635   9.475  21.354  0.00  0.00    +0.000 A 
ATOM     10  C   UNL     1       1.332   8.914  20.250  0.00  0.00    +0.000 A 
ATOM     11  C   UNL     1       1.857   7.631  20.021  0.00  0.00    +0.000 A 
ATOM     12  C   UNL     1       2.442   7.326  18.790  0.00  0.00    +0.000 A 
ATOM     13  C   UNL     1       2.586   8.320  17.825  0.00  0.00    +0.000 A 
ATOM     14  C   UNL     1       2.097   9.619  18.033  0.00  0.00    +0.000 A 
ATOM     15  C   UNL     1       1.456   9.894  19.253  0.00  0.00    +0.000 A 
ATOM     16  N   UNL     1       0.855  11.046  19.746  0.00  0.00    +0.000 N 
ATOM     17  C   UNL     1       0.364  10.776  21.002  0.00  0.00    +0.000 A 
ENDROOT
BRANCH  12  18
ATOM     18  O   UNL     1       2.893   6.077  18.453  0.00  0.00    +0.000 OA
BRANCH  18  19
ATOM     19  C   UNL     1       3.776   6.049  17.327  0.00  0.00    +0.000 C 
BRANCH  19  20
ATOM     20  C   UNL     1       5.199   6.126  17.808  0.00  0.00    +0.000 A 
ATOM     21  C   UNL     1       5.623   5.352  18.894  0.00  0.00    +0.000 A 
ATOM     22  C   UNL     1       6.938   5.445  19.351  0.00  0.00    +0.000 A 
ATOM     23  C   UNL     1       7.836   6.308  18.722  0.00  0.00    +0.000 A 
ATOM     24  C   UNL     1       7.425   7.071  17.632  0.00  0.00    +0.000 A 
ATOM     25  C   UNL     1       6.112   6.981  17.175  0.00  0.00    +0.000 A 
ENDBRANCH  19  20
ENDBRANCH  18  19
ENDBRANCH  12  18
TORSDOF 3
ENDMDL
