MODEL 1
REMARK VINA RESULT:      -7.0      0.000      0.000
REMARK  Name = 
REMARK  8 active torsions:
REMARK  status: ('A' for Active; 'I' for Inactive)
REMARK    1  A    between atoms: C_1  and  C_2
REMARK    2  A    between atoms: C_2  and  C_3
REMARK    3  A    between atoms: C_2  and  C_4
REMARK    4  A    between atoms: C_6  and  C_7
REMARK    5  A    between atoms: C_7  and  C_8
REMARK    6  A    between atoms: C_13  and  C_14
REMARK    7  A    between atoms: C_14  and  C_15
REMARK    8  A    between atoms: C_14  and  C_16
REMARK                            x       y       z     vdW  Elec       q    Type
REMARK                         _______ _______ _______ _____ _____    ______ ____
ROOT
ATOM      1  C   UNL     1       6.588   4.792  14.739  0.00  0.00    +0.000 A 
ATOM      2  N   UNL     1       5.381   4.478  15.160  0.00  0.00    +0.000 NA
ATOM      3  C   UNL     1       5.290   5.078  16.397  0.00  0.00    +0.000 A 
ATOM      4  C   UNL     1       6.453   5.778  16.658  0.00  0.00    +0.000 A 
ATOM      5  O   UNL     1       7.299   5.586  15.596  0.00  0.00    +0.000 OA
ENDROOT
BRANCH   1   7
ATOM      6  C   UNL     1       6.258   3.667  12.564  0.00  0.00    +0.000 C 
ATOM      7  C   UNL     1       7.269   4.346  13.488  0.00  0.00    +0.000 C 
ATOM      8  C   UNL     1       7.926   5.533  12.781  0.00  0.00    +0.000 C 
ENDBRANCH   1   7
BRANCH   4   9
ATOM      9  C   UNL     1       6.933   6.602  17.806  0.00  0.00    +0.000 C 
ATOM     10  C   UNL     1       7.766   5.755  18.768  0.00  0.00    +0.000 C 
ATOM     11  C   UNL     1       7.720   7.832  17.355  0.00  0.00    +0.000 C 
ENDBRANCH   4   9
BRANCH   3  12
ATOM     12  C   UNL     1       4.069   4.910  17.233  0.00  0.00    +0.000 C 
BRANCH  12  13
ATOM     13  C   UNL     1       4.135   3.700  18.109  0.00  0.00    +0.000 A 
ATOM     14  C   UNL     1       4.848   3.505  19.274  0.00  0.00    +0.000 A 
ATOM     15  N   UNL     1       4.583   2.220  19.656  0.00  0.00    +0.000 N 
ATOM     16  C   UNL     1       3.743   1.681  18.724  0.00  0.00    +0.000 A 
ATOM     17  N   UNL     1       3.451   2.547  17.780  0.00  0.00    +0.000 NA
ATOM     18  H   UNL     1       4.945   1.748  20.472  0.00  0.00    +0.000 HD
ENDBRANCH  12  13
ENDBRANCH   3  12
TORSDOF 4
ENDMDL
MODEL 2
REMARK VINA RESULT:      -6.9      0.707      1.082
REMARK  Name = 
REMARK  8 active torsions:
REMARK  status: ('A' for Active; 'I' for Inactive)
REMARK    1  A    between atoms: C_1  and  C_2
REMARK    2  A    between atoms: C_2  and  C_3
REMARK    3  A    between atoms: C_2  and  C_4
REMARK    4  A    between atoms: C_6  and  C_7
REMARK    5  A    between atoms: C_7  and  C_8
REMARK    6  A    between atoms: C_13  and  C_14
REMARK    7  A    between atoms: C_14  and  C_15
REMARK    8  A    between atoms: C_14  and  C_16
REMARK                            x       y       z     vdW  Elec       q    Type
REMARK                         _______ _______ _______ _____ _____    ______ ____
ROOT
ATOM      1  C   UNL     1       6.448   4.790  14.873  0.00  0.00    +0.000 A 
ATOM      2  N   UNL     1       5.215   4.599  15.294  0.00  0.00    +0.000 NA
ATOM      3  C   UNL     1       5.177   5.227  16.521  0.00  0.00    +0.000 A 
ATOM      4  C   UNL     1       6.401   5.818  16.775  0.00  0.00    +0.000 A 
ATOM      5  O   UNL     1       7.228   5.528  15.720  0.00  0.00    +0.000 OA
ENDROOT
BRANCH   1   7
ATOM      6  C   UNL     1       6.029   3.602  12.748  0.00  0.00    +0.000 C 
ATOM      7  C   UNL     1       7.088   4.260  13.634  0.00  0.00    +0.000 C 
ATOM      8  C   UNL     1       7.797   5.382  12.874  0.00  0.00    +0.000 C 
ENDBRANCH   1   7
BRANCH   4   9
ATOM      9  C   UNL     1       6.953   6.613  17.911  0.00  0.00    +0.000 C 
ATOM     10  C   UNL     1       7.810   5.733  18.820  0.00  0.00    +0.000 C 
ATOM     11  C   UNL     1       7.747   7.832  17.441  0.00  0.00    +0.000 C 
ENDBRANCH   4   9
BRANCH   3  12
ATOM     12  C   UNL     1       3.943   5.190  17.354  0.00  0.00    +0.000 C 
BRANCH  12  13
ATOM     13  C   UNL     1       3.540   3.798  17.719  0.00  0.00    +0.000 A 
ATOM     14  C   UNL     1       2.454   3.062  17.288  0.00  0.00    +0.000 A 
ATOM     15  N   UNL     1       2.534   1.869  17.947  0.00  0.00    +0.000 N 
ATOM     16  C   UNL     1       3.637   1.918  18.751  0.00  0.00    +0.000 A 
ATOM     17  N   UNL     1       4.267   3.065  18.635  0.00  0.00    +0.000 NA
ATOM     18  H   UNL     1       1.893   1.092  17.865  0.00  0.00    +0.000 HD
ENDBRANCH  12  13
ENDBRANCH   3  12
TORSDOF 4
ENDMDL
MODEL 3
REMARK VINA RESULT:      -6.8      2.826      4.113
REMARK  Name = 
REMARK  8 active torsions:
REMARK  status: ('A' for Active; 'I' for Inactive)
REMARK    1  A    between atoms: C_1  and  C_2
REMARK    2  A    between atoms: C_2  and  C_3
REMARK    3  A    between atoms: C_2  and  C_4
REMARK    4  A    between atoms: C_6  and  C_7
REMARK    5  A    between atoms: C_7  and  C_8
REMARK    6  A    between atoms: C_13  and  C_14
REMARK    7  A    between atoms: C_14  and  C_15
REMARK    8  A    between atoms: C_14  and  C_16
REMARK                            x       y       z     vdW  Elec       q    Type
REMARK                         _______ _______ _______ _____ _____    ______ ____
ROOT
ATOM      1  C   UNL     1       5.882   5.433  17.969  0.00  0.00    +0.000 A 
ATOM      2  N   UNL     1       5.352   4.232  17.870  0.00  0.00    +0.000 NA
ATOM      3  C   UNL     1       4.000   4.446  18.028  0.00  0.00    +0.000 A 
ATOM      4  C   UNL     1       3.761   5.800  18.177  0.00  0.00    +0.000 A 
ATOM      5  O   UNL     1       4.974   6.440  18.152  0.00  0.00    +0.000 OA
ENDROOT
BRANCH   1   7
ATOM      6  C   UNL     1       7.489   7.234  17.443  0.00  0.00    +0.000 C 
ATOM      7  C   UNL     1       7.327   5.804  17.958  0.00  0.00    +0.000 C 
ATOM      8  C   UNL     1       7.927   5.671  19.359  0.00  0.00    +0.000 C 
ENDBRANCH   1   7
BRANCH   4   9
ATOM      9  C   UNL     1       2.531   6.619  18.383  0.00  0.00    +0.000 C 
ATOM     10  C   UNL     1       2.194   6.723  19.870  0.00  0.00    +0.000 C 
ATOM     11  C   UNL     1       2.644   8.011  17.761  0.00  0.00    +0.000 C 
ENDBRANCH   4   9
BRANCH   3  12
ATOM     12  C   UNL     1       3.046   3.302  18.029  0.00  0.00    +0.000 C 
BRANCH  12  13
ATOM     13  C   UNL     1       2.348   3.139  19.341  0.00  0.00    +0.000 A 
ATOM     14  C   UNL     1       0.996   3.156  19.618  0.00  0.00    +0.000 A 
ATOM     15  N   UNL     1       0.896   2.993  20.970  0.00  0.00    +0.000 N 
ATOM     16  C   UNL     1       2.165   2.894  21.466  0.00  0.00    +0.000 A 
ATOM     17  N   UNL     1       3.063   2.975  20.510  0.00  0.00    +0.000 NA
ATOM     18  H   UNL     1       0.043   2.958  21.510  0.00  0.00    +0.000 HD
ENDBRANCH  12  13
ENDBRANCH   3  12
TORSDOF 4
ENDMDL
MODEL 4
REMARK VINA RESULT:      -6.8      2.470      3.620
REMARK  Name = 
REMARK  8 active torsions:
REMARK  status: ('A' for Active; 'I' for Inactive)
REMARK    1  A    between atoms: C_1  and  C_2
REMARK    2  A    between atoms: C_2  and  C_3
REMARK    3  A    between atoms: C_2  and  C_4
REMARK    4  A    between atoms: C_6  and  C_7
REMARK    5  A    between atoms: C_7  and  C_8
REMARK    6  A    between atoms: C_13  and  C_14
REMARK    7  A    between atoms: C_14  and  C_15
REMARK    8  A    between atoms: C_14  and  C_16
REMARK                            x       y       z     vdW  Elec       q    Type
REMARK                         _______ _______ _______ _____ _____    ______ ____
ROOT
ATOM      1  C   UNL     1       5.301   5.134  16.997  0.00  0.00    +0.000 A 
ATOM      2  N   UNL     1       4.583   4.030  17.001  0.00  0.00    +0.000 NA
ATOM      3  C   UNL     1       3.365   4.423  17.512  0.00  0.00    +0.000 A 
ATOM      4  C   UNL     1       3.386   5.783  17.763  0.00  0.00    +0.000 A 
ATOM      5  O   UNL     1       4.637   6.244  17.443  0.00  0.00    +0.000 OA
ENDROOT
BRANCH   1   7
ATOM      6  C   UNL     1       7.622   4.614  17.665  0.00  0.00    +0.000 C 
ATOM      7  C   UNL     1       6.736   5.295  16.622  0.00  0.00    +0.000 C 
ATOM      8  C   UNL     1       6.998   4.708  15.234  0.00  0.00    +0.000 C 
ENDBRANCH   1   7
BRANCH   4   9
ATOM      9  C   UNL     1       2.391   6.752  18.309  0.00  0.00    +0.000 C 
ATOM     10  C   UNL     1       2.386   6.716  19.837  0.00  0.00    +0.000 C 
ATOM     11  C   UNL     1       2.626   8.177  17.808  0.00  0.00    +0.000 C 
ENDBRANCH   4   9
BRANCH   3  12
ATOM     12  C   UNL     1       2.276   3.429  17.726  0.00  0.00    +0.000 C 
BRANCH  12  13
ATOM     13  C   UNL     1       1.987   3.197  19.174  0.00  0.00    +0.000 A 
ATOM     14  C   UNL     1       0.769   3.130  19.820  0.00  0.00    +0.000 A 
ATOM     15  N   UNL     1       1.064   2.932  21.139  0.00  0.00    +0.000 N 
ATOM     16  C   UNL     1       2.424   2.895  21.253  0.00  0.00    +0.000 A 
ATOM     17  N   UNL     1       3.010   3.048  20.088  0.00  0.00    +0.000 NA
ATOM     18  H   UNL     1       0.401   2.836  21.896  0.00  0.00    +0.000 HD
ENDBRANCH  12  13
ENDBRANCH   3  12
TORSDOF 4
ENDMDL
MODEL 5
REMARK VINA RESULT:      -6.7      2.717      3.850
REMARK  Name = 
REMARK  8 active torsions:
REMARK  status: ('A' for Active; 'I' for Inactive)
REMARK    1  A    between atoms: C_1  and  C_2
REMARK    2  A    between atoms: C_2  and  C_3
REMARK    3  A    between atoms: C_2  and  C_4
REMARK    4  A    between atoms: C_6  and  C_7
REMARK    5  A    between atoms: C_7  and  C_8
REMARK    6  A    between atoms: C_13  and  C_14
REMARK    7  A    between atoms: C_14  and  C_15
REMARK    8  A    between atoms: C_14  and  C_16
REMARK                            x       y       z     vdW  Elec       q    Type
REMARK                         _______ _______ _______ _____ _____    ______ ____
ROOT
ATOM      1  C   UNL     1       6.052   5.728  17.640  0.00  0.00    +0.000 A 
ATOM      2  N   UNL     1       5.590   4.595  17.152  0.00  0.00    +0.000 NA
ATOM      3  C   UNL     1       4.223   4.702  17.292  0.00  0.00    +0.000 A 
ATOM      4  C   UNL     1       3.908   5.936  17.831  0.00  0.00    +0.000 A 
ATOM      5  O   UNL     1       5.086   6.596  18.068  0.00  0.00    +0.000 OA
ENDROOT
BRANCH   1   7
ATOM      6  C   UNL     1       7.619   7.635  17.555  0.00  0.00    +0.000 C 
ATOM      7  C   UNL     1       7.475   6.136  17.822  0.00  0.00    +0.000 C 
ATOM      8  C   UNL     1       7.956   5.797  19.233  0.00  0.00    +0.000 C 
ENDBRANCH   1   7
BRANCH   4   9
ATOM      9  C   UNL     1       2.630   6.607  18.208  0.00  0.00    +0.000 C 
ATOM     10  C   UNL     1       2.333   6.408  19.694  0.00  0.00    +0.000 C 
ATOM     11  C   UNL     1       2.625   8.095  17.855  0.00  0.00    +0.000 C 
ENDBRANCH   4   9
BRANCH   3  12
ATOM     12  C   UNL     1       3.330   3.578  16.894  0.00  0.00    +0.000 C 
BRANCH  12  13
ATOM     13  C   UNL     1       2.513   3.063  18.035  0.00  0.00    +0.000 A 
ATOM     14  C   UNL     1       2.922   2.378  19.162  0.00  0.00    +0.000 A 
ATOM     15  N   UNL     1       1.782   2.117  19.866  0.00  0.00    +0.000 N 
ATOM     16  C   UNL     1       0.734   2.630  19.156  0.00  0.00    +0.000 A 
ATOM     17  N   UNL     1       1.141   3.210  18.049  0.00  0.00    +0.000 NA
ATOM     18  H   UNL     1       1.718   1.627  20.747  0.00  0.00    +0.000 HD
ENDBRANCH  12  13
ENDBRANCH   3  12
TORSDOF 4
ENDMDL
MODEL 6
REMARK VINA RESULT:      -6.7      2.385      3.489
REMARK  Name = 
REMARK  8 active torsions:
REMARK  status: ('A' for Active; 'I' for Inactive)
REMARK    1  A    between atoms: C_1  and  C_2
REMARK    2  A    between atoms: C_2  and  C_3
REMARK    3  A    between atoms: C_2  and  C_4
REMARK    4  A    between atoms: C_6  and  C_7
REMARK    5  A    between atoms: C_7  and  C_8
REMARK    6  A    between atoms: C_13  and  C_14
REMARK    7  A    between atoms: C_14  and  C_15
REMARK    8  A    between atoms: C_14  and  C_16
REMARK                            x       y       z     vdW  Elec       q    Type
REMARK                         _______ _______ _______ _____ _____    ______ ____
ROOT
ATOM      1  C   UNL     1       5.251   4.744  17.019  0.00  0.00    +0.000 A 
ATOM      2  N   UNL     1       4.542   3.649  17.202  0.00  0.00    +0.000 NA
ATOM      3  C   UNL     1       3.357   4.103  17.740  0.00  0.00    +0.000 A 
ATOM      4  C   UNL     1       3.385   5.483  17.823  0.00  0.00    +0.000 A 
ATOM      5  O   UNL     1       4.610   5.900  17.369  0.00  0.00    +0.000 OA
ENDROOT
BRANCH   1   7
ATOM      6  C   UNL     1       6.693   4.704  15.013  0.00  0.00    +0.000 C 
ATOM      7  C   UNL     1       6.658   4.856  16.534  0.00  0.00    +0.000 C 
ATOM      8  C   UNL     1       7.264   6.197  16.950  0.00  0.00    +0.000 C 
ENDBRANCH   1   7
BRANCH   4   9
ATOM      9  C   UNL     1       2.422   6.513  18.312  0.00  0.00    +0.000 C 
ATOM     10  C   UNL     1       2.352   6.505  19.838  0.00  0.00    +0.000 C 
ATOM     11  C   UNL     1       2.753   7.914  17.798  0.00  0.00    +0.000 C 
ENDBRANCH   4   9
BRANCH   3  12
ATOM     12  C   UNL     1       2.291   3.144  18.142  0.00  0.00    +0.000 C 
BRANCH  12  13
ATOM     13  C   UNL     1       2.211   2.962  19.623  0.00  0.00    +0.000 A 
ATOM     14  C   UNL     1       3.221   2.688  20.524  0.00  0.00    +0.000 A 
ATOM     15  N   UNL     1       2.611   2.591  21.742  0.00  0.00    +0.000 N 
ATOM     16  C   UNL     1       1.274   2.794  21.547  0.00  0.00    +0.000 A 
ATOM     17  N   UNL     1       1.001   3.023  20.283  0.00  0.00    +0.000 NA
ATOM     18  H   UNL     1       3.060   2.397  22.626  0.00  0.00    +0.000 HD
ENDBRANCH  12  13
ENDBRANCH   3  12
TORSDOF 4
ENDMDL
MODEL 7
REMARK VINA RESULT:      -6.6      1.144      1.641
REMARK  Name = 
REMARK  8 active torsions:
REMARK  status: ('A' for Active; 'I' for Inactive)
REMARK    1  A    between atoms: C_1  and  C_2
REMARK    2  A    between atoms: C_2  and  C_3
REMARK    3  A    between atoms: C_2  and  C_4
REMARK    4  A    between atoms: C_6  and  C_7
REMARK    5  A    between atoms: C_7  and  C_8
REMARK    6  A    between atoms: C_13  and  C_14
REMARK    7  A    between atoms: C_14  and  C_15
REMARK    8  A    between atoms: C_14  and  C_16
REMARK                            x       y       z     vdW  Elec       q    Type
REMARK                         _______ _______ _______ _____ _____    ______ ____
ROOT
ATOM      1  C   UNL     1       6.516   4.931  14.660  0.00  0.00    +0.000 A 
ATOM      2  N   UNL     1       5.312   5.250  15.089  0.00  0.00    +0.000 NA
ATOM      3  C   UNL     1       5.540   5.867  16.301  0.00  0.00    +0.000 A 
ATOM      4  C   UNL     1       6.900   5.931  16.538  0.00  0.00    +0.000 A 
ATOM      5  O   UNL     1       7.534   5.318  15.488  0.00  0.00    +0.000 OA
ENDROOT
BRANCH   1   7
ATOM      6  C   UNL     1       5.620   3.583  12.794  0.00  0.00    +0.000 C 
ATOM      7  C   UNL     1       6.881   4.168  13.432  0.00  0.00    +0.000 C 
ATOM      8  C   UNL     1       7.614   5.068  12.436  0.00  0.00    +0.000 C 
ENDBRANCH   1   7
BRANCH   4   9
ATOM      9  C   UNL     1       7.734   6.466  17.655  0.00  0.00    +0.000 C 
ATOM     10  C   UNL     1       7.644   7.991  17.713  0.00  0.00    +0.000 C 
ATOM     11  C   UNL     1       7.362   5.856  19.006  0.00  0.00    +0.000 C 
ENDBRANCH   4   9
BRANCH   3  12
ATOM     12  C   UNL     1       4.401   6.336  17.138  0.00  0.00    +0.000 C 
BRANCH  12  13
ATOM     13  C   UNL     1       3.649   5.208  17.768  0.00  0.00    +0.000 A 
ATOM     14  C   UNL     1       4.119   3.991  18.219  0.00  0.00    +0.000 A 
ATOM     15  N   UNL     1       3.021   3.320  18.676  0.00  0.00    +0.000 N 
ATOM     16  C   UNL     1       1.937   4.128  18.484  0.00  0.00    +0.000 A 
ATOM     17  N   UNL     1       2.282   5.274  17.942  0.00  0.00    +0.000 NA
ATOM     18  H   UNL     1       3.006   2.392  19.077  0.00  0.00    +0.000 HD
ENDBRANCH  12  13
ENDBRANCH   3  12
TORSDOF 4
ENDMDL
MODEL 8
REMARK VINA RESULT:      -6.6      2.559      3.754
REMARK  Name = 
REMARK  8 active torsions:
REMARK  status: ('A' for Active; 'I' for Inactive)
REMARK    1  A    between atoms: C_1  and  C_2
REMARK    2  A    between atoms: C_2  and  C_3
REMARK    3  A    between atoms: C_2  and  C_4
REMARK    4  A    between atoms: C_6  and  C_7
REMARK    5  A    between atoms: C_7  and  C_8
REMARK    6  A    between atoms: C_13  and  C_14
REMARK    7  A    between atoms: C_14  and  C_15
REMARK    8  A    between atoms: C_14  and  C_16
REMARK                            x       y       z     vdW  Elec       q    Type
REMARK                         _______ _______ _______ _____ _____    ______ ____
ROOT
ATOM      1  C   UNL     1       5.205   5.679  17.037  0.00  0.00    +0.000 A 
ATOM      2  N   UNL     1       4.533   4.548  17.087  0.00  0.00    +0.000 NA
ATOM      3  C   UNL     1       3.306   4.909  17.602  0.00  0.00    +0.000 A 
ATOM      4  C   UNL     1       3.275   6.276  17.808  0.00  0.00    +0.000 A 
ATOM      5  O   UNL     1       4.503   6.776  17.456  0.00  0.00    +0.000 OA
ENDROOT
BRANCH   1   7
ATOM      6  C   UNL     1       7.239   7.015  17.466  0.00  0.00    +0.000 C 
ATOM      7  C   UNL     1       6.628   5.885  16.637  0.00  0.00    +0.000 C 
ATOM      8  C   UNL     1       7.430   4.596  16.819  0.00  0.00    +0.000 C 
ENDBRANCH   1   7
BRANCH   4   9
ATOM      9  C   UNL     1       2.249   7.222  18.336  0.00  0.00    +0.000 C 
ATOM     10  C   UNL     1       2.241   7.211  19.864  0.00  0.00    +0.000 C 
ATOM     11  C   UNL     1       2.440   8.645  17.812  0.00  0.00    +0.000 C 
ENDBRANCH   4   9
BRANCH   3  12
ATOM     12  C   UNL     1       2.261   3.880  17.862  0.00  0.00    +0.000 C 
BRANCH  12  13
ATOM     13  C   UNL     1       2.213   3.462  19.297  0.00  0.00    +0.000 A 
ATOM     14  C   UNL     1       3.225   2.972  20.097  0.00  0.00    +0.000 A 
ATOM     15  N   UNL     1       2.646   2.719  21.308  0.00  0.00    +0.000 N 
ATOM     16  C   UNL     1       1.323   3.046  21.205  0.00  0.00    +0.000 A 
ATOM     17  N   UNL     1       1.031   3.500  20.008  0.00  0.00    +0.000 NA
ATOM     18  H   UNL     1       3.104   2.350  22.129  0.00  0.00    +0.000 HD
ENDBRANCH  12  13
ENDBRANCH   3  12
TORSDOF 4
ENDMDL
MODEL 9
REMARK VINA RESULT:      -6.6      2.851      5.516
REMARK  Name = 
REMARK  8 active torsions:
REMARK  status: ('A' for Active; 'I' for Inactive)
REMARK    1  A    between atoms: C_1  and  C_2
REMARK    2  A    between atoms: C_2  and  C_3
REMARK    3  A    between atoms: C_2  and  C_4
REMARK    4  A    between atoms: C_6  and  C_7
REMARK    5  A    between atoms: C_7  and  C_8
REMARK    6  A    between atoms: C_13  and  C_14
REMARK    7  A    between atoms: C_14  and  C_15
REMARK    8  A    between atoms: C_14  and  C_16
REMARK                            x       y       z     vdW  Elec       q    Type
REMARK                         _______ _______ _______ _____ _____    ______ ____
ROOT
ATOM      1  C   UNL     1       2.535   4.376  18.004  0.00  0.00    +0.000 A 
ATOM      2  N   UNL     1       3.612   4.676  17.308  0.00  0.00    +0.000 NA
ATOM      3  C   UNL     1       3.776   6.030  17.509  0.00  0.00    +0.000 A 
ATOM      4  C   UNL     1       2.795   6.492  18.367  0.00  0.00    +0.000 A 
ATOM      5  O   UNL     1       1.985   5.431  18.680  0.00  0.00    +0.000 OA
ENDROOT
BRANCH   1   7
ATOM      6  C   UNL     1       2.858   1.927  18.018  0.00  0.00    +0.000 C 
ATOM      7  C   UNL     1       1.836   3.062  18.092  0.00  0.00    +0.000 C 
ATOM      8  C   UNL     1       1.028   2.968  19.387  0.00  0.00    +0.000 C 
ENDBRANCH   1   7
BRANCH   4   9
ATOM      9  C   UNL     1       2.461   7.830  18.936  0.00  0.00    +0.000 C 
ATOM     10  C   UNL     1       1.676   8.666  17.926  0.00  0.00    +0.000 C 
ATOM     11  C   UNL     1       1.698   7.731  20.257  0.00  0.00    +0.000 C 
ENDBRANCH   4   9
BRANCH   3  12
ATOM     12  C   UNL     1       4.879   6.769  16.833  0.00  0.00    +0.000 C 
BRANCH  12  13
ATOM     13  C   UNL     1       5.950   5.859  16.323  0.00  0.00    +0.000 A 
ATOM     14  C   UNL     1       6.983   5.256  17.012  0.00  0.00    +0.000 A 
ATOM     15  N   UNL     1       7.689   4.556  16.076  0.00  0.00    +0.000 N 
ATOM     16  C   UNL     1       7.082   4.759  14.869  0.00  0.00    +0.000 A 
ATOM     17  N   UNL     1       6.030   5.536  14.984  0.00  0.00    +0.000 NA
ATOM     18  H   UNL     1       8.514   3.996  16.239  0.00  0.00    +0.000 HD
ENDBRANCH  12  13
ENDBRANCH   3  12
TORSDOF 4
ENDMDL
