MODEL 1
REMARK VINA RESULT:      -8.0      0.000      0.000
REMARK  Name = 
REMARK  6 active torsions:
REMARK  status: ('A' for Active; 'I' for Inactive)
REMARK    1  A    between atoms: C_1  and  C_2
REMARK    2  A    between atoms: C_2  and  O_3
REMARK    3  A    between atoms: O_3  and  C_4
REMARK    4  A    between atoms: C_9  and  N_10
REMARK    5  A    between atoms: N_10  and  C_11
REMARK    6  A    between atoms: N_19  and  C_20
REMARK                            x       y       z     vdW  Elec       q    Type
REMARK                         _______ _______ _______ _____ _____    ______ ____
ROOT
ATOM      1  C   UNL     1       2.658   6.416  18.730  0.00  0.00    +0.000 A 
ATOM      2  N   UNL     1       2.417   5.496  19.697  0.00  0.00    +0.000 NA
ATOM      3  C   UNL     1       1.752   5.864  20.805  0.00  0.00    +0.000 A 
ATOM      4  N   UNL     1       1.272   7.073  21.104  0.00  0.00    +0.000 NA
ATOM      5  C   UNL     1       1.463   7.960  20.112  0.00  0.00    +0.000 A 
ATOM      6  C   UNL     1       2.123   7.701  18.920  0.00  0.00    +0.000 A 
ATOM      7  C   UNL     1       2.029   8.909  18.206  0.00  0.00    +0.000 A 
ATOM      8  N   UNL     1       1.307   9.840  18.833  0.00  0.00    +0.000 NA
ATOM      9  N   UNL     1       1.025   9.278  20.046  0.00  0.00    +0.000 N 
ENDROOT
BRANCH   9  10
ATOM     10  C   UNL     1       0.337  10.026  21.035  0.00  0.00    +0.000 A 
ATOM     11  C   UNL     1      -0.187   9.364  22.153  0.00  0.00    +0.000 A 
ATOM     12  C   UNL     1      -0.858  10.090  23.136  0.00  0.00    +0.000 A 
ATOM     13  C   UNL     1      -1.041  11.463  22.984  0.00  0.00    +0.000 A 
ATOM     14  C   UNL     1      -0.542  12.120  21.863  0.00  0.00    +0.000 A 
ATOM     15  C   UNL     1       0.162  11.407  20.893  0.00  0.00    +0.000 A 
ENDBRANCH   9  10
BRANCH   1  16
ATOM     16  N   UNL     1       3.412   6.068  17.606  0.00  0.00    +0.000 N 
ATOM     17  H   UNL     1       2.826   5.551  16.955  0.00  0.00    +0.000 HD
BRANCH  16  23
ATOM     18  C   UNL     1       6.900   4.777  14.296  0.00  0.00    +0.000 C 
ATOM     19  O   UNL     1       7.825   5.516  14.043  0.00  0.00    +0.000 OA
ATOM     20  N   UNL     1       5.888   5.094  15.188  0.00  0.00    +0.000 N 
ATOM     21  C   UNL     1       5.917   6.395  15.841  0.00  0.00    +0.000 C 
ATOM     22  C   UNL     1       5.923   6.220  17.353  0.00  0.00    +0.000 C 
ATOM     23  C   UNL     1       4.709   5.403  17.820  0.00  0.00    +0.000 C 
ATOM     24  C   UNL     1       4.700   4.056  17.065  0.00  0.00    +0.000 C 
ATOM     25  C   UNL     1       4.772   4.227  15.542  0.00  0.00    +0.000 C 
BRANCH  18  26
ATOM     26  O   UNL     1       6.697   3.579  13.671  0.00  0.00    +0.000 OA
BRANCH  26  28
ATOM     27  C   UNL     1       5.090   3.309  11.901  0.00  0.00    +0.000 C 
ATOM     28  C   UNL     1       6.513   3.705  12.253  0.00  0.00    +0.000 C 
ENDBRANCH  26  28
ENDBRANCH  18  26
ENDBRANCH  16  23
ENDBRANCH   1  16
TORSDOF 5
ENDMDL
MODEL 2
REMARK VINA RESULT:      -7.9      0.744      1.207
REMARK  Name = 
REMARK  6 active torsions:
REMARK  status: ('A' for Active; 'I' for Inactive)
REMARK    1  A    between atoms: C_1  and  C_2
REMARK    2  A    between atoms: C_2  and  O_3
REMARK    3  A    between atoms: O_3  and  C_4
REMARK    4  A    between atoms: C_9  and  N_10
REMARK    5  A    between atoms: N_10  and  C_11
REMARK    6  A    between atoms: N_19  and  C_20
REMARK                            x       y       z     vdW  Elec       q    Type
REMARK                         _______ _______ _______ _____ _____    ______ ____
ROOT
ATOM      1  C   UNL     1       2.458   6.767  18.815  0.00  0.00    +0.000 A 
ATOM      2  N   UNL     1       2.203   6.076  19.955  0.00  0.00    +0.000 NA
ATOM      3  C   UNL     1       1.638   6.709  20.996  0.00  0.00    +0.000 A 
ATOM      4  N   UNL     1       1.273   7.991  21.071  0.00  0.00    +0.000 NA
ATOM      5  C   UNL     1       1.474   8.649  19.916  0.00  0.00    +0.000 A 
ATOM      6  C   UNL     1       2.038   8.107  18.771  0.00  0.00    +0.000 A 
ATOM      7  C   UNL     1       1.997   9.158  17.837  0.00  0.00    +0.000 A 
ATOM      8  N   UNL     1       1.391  10.253  18.298  0.00  0.00    +0.000 NA
ATOM      9  N   UNL     1       1.138   9.963  19.609  0.00  0.00    +0.000 N 
ENDROOT
BRANCH   9  10
ATOM     10  C   UNL     1       0.572  10.947  20.460  0.00  0.00    +0.000 A 
ATOM     11  C   UNL     1       1.157  12.218  20.519  0.00  0.00    +0.000 A 
ATOM     12  C   UNL     1       0.604  13.197  21.345  0.00  0.00    +0.000 A 
ATOM     13  C   UNL     1      -0.502  12.894  22.137  0.00  0.00    +0.000 A 
ATOM     14  C   UNL     1      -1.071  11.625  22.098  0.00  0.00    +0.000 A 
ATOM     15  C   UNL     1      -0.546  10.653  21.247  0.00  0.00    +0.000 A 
ENDBRANCH   9  10
BRANCH   1  16
ATOM     16  N   UNL     1       3.113   6.142  17.750  0.00  0.00    +0.000 N 
ATOM     17  H   UNL     1       2.461   5.527  17.269  0.00  0.00    +0.000 HD
BRANCH  16  23
ATOM     18  C   UNL     1       6.726   4.806  14.596  0.00  0.00    +0.000 C 
ATOM     19  O   UNL     1       7.664   5.539  14.375  0.00  0.00    +0.000 OA
ATOM     20  N   UNL     1       5.680   5.135  15.444  0.00  0.00    +0.000 N 
ATOM     21  C   UNL     1       5.689   6.442  16.086  0.00  0.00    +0.000 C 
ATOM     22  C   UNL     1       5.633   6.281  17.598  0.00  0.00    +0.000 C 
ATOM     23  C   UNL     1       4.397   5.474  18.023  0.00  0.00    +0.000 C 
ATOM     24  C   UNL     1       4.413   4.120  17.280  0.00  0.00    +0.000 C 
ATOM     25  C   UNL     1       4.547   4.277  15.760  0.00  0.00    +0.000 C 
BRANCH  18  26
ATOM     26  O   UNL     1       6.543   3.603  13.974  0.00  0.00    +0.000 OA
BRANCH  26  28
ATOM     27  C   UNL     1       5.246   3.108  12.009  0.00  0.00    +0.000 C 
ATOM     28  C   UNL     1       6.538   3.703  12.542  0.00  0.00    +0.000 C 
ENDBRANCH  26  28
ENDBRANCH  18  26
ENDBRANCH  16  23
ENDBRANCH   1  16
TORSDOF 5
ENDMDL
MODEL 3
REMARK VINA RESULT:      -7.5      2.285      4.132
REMARK  Name = 
REMARK  6 active torsions:
REMARK  status: ('A' for Active; 'I' for Inactive)
REMARK    1  A    between atoms: C_1  and  C_2
REMARK    2  A    between atoms: C_2  and  O_3
REMARK    3  A    between atoms: O_3  and  C_4
REMARK    4  A    between atoms: C_9  and  N_10
REMARK    5  A    between atoms: N_10  and  C_11
REMARK    6  A    between atoms: N_19  and  C_20
REMARK                            x       y       z     vdW  Elec       q    Type
REMARK                         _______ _______ _______ _____ _____    ______ ____
ROOT
ATOM      1  C   UNL     1       1.313   8.764  20.374  0.00  0.00    +0.000 A 
ATOM      2  N   UNL     1       1.157   9.389  19.181  0.00  0.00    +0.000 NA
ATOM      3  C   UNL     1       0.404  10.500  19.113  0.00  0.00    +0.000 A 
ATOM      4  N   UNL     1      -0.247  11.106  20.108  0.00  0.00    +0.000 NA
ATOM      5  C   UNL     1      -0.035  10.512  21.295  0.00  0.00    +0.000 A 
ATOM      6  C   UNL     1       0.727   9.372  21.498  0.00  0.00    +0.000 A 
ATOM      7  C   UNL     1       0.682   9.170  22.889  0.00  0.00    +0.000 A 
ATOM      8  N   UNL     1       0.025  10.131  23.542  0.00  0.00    +0.000 NA
ATOM      9  N   UNL     1      -0.483  10.917  22.547  0.00  0.00    +0.000 N 
ENDROOT
BRANCH   9  10
ATOM     10  C   UNL     1      -1.332  12.008  22.867  0.00  0.00    +0.000 A 
ATOM     11  C   UNL     1      -2.641  11.754  23.298  0.00  0.00    +0.000 A 
ATOM     12  C   UNL     1      -3.482  12.817  23.623  0.00  0.00    +0.000 A 
ATOM     13  C   UNL     1      -3.032  14.128  23.479  0.00  0.00    +0.000 A 
ATOM     14  C   UNL     1      -1.741  14.385  23.028  0.00  0.00    +0.000 A 
ATOM     15  C   UNL     1      -0.882  13.326  22.736  0.00  0.00    +0.000 A 
ENDBRANCH   9  10
BRANCH   1  16
ATOM     16  N   UNL     1       2.031   7.567  20.449  0.00  0.00    +0.000 N 
ATOM     17  H   UNL     1       3.025   7.774  20.490  0.00  0.00    +0.000 HD
BRANCH  16  23
ATOM     18  C   UNL     1       4.937   3.911  18.723  0.00  0.00    +0.000 C 
ATOM     19  O   UNL     1       4.926   2.812  19.232  0.00  0.00    +0.000 OA
ATOM     20  N   UNL     1       4.169   4.972  19.176  0.00  0.00    +0.000 N 
ATOM     21  C   UNL     1       3.321   4.771  20.343  0.00  0.00    +0.000 C 
ATOM     22  C   UNL     1       1.873   5.085  19.996  0.00  0.00    +0.000 C 
ATOM     23  C   UNL     1       1.731   6.517  19.460  0.00  0.00    +0.000 C 
ATOM     24  C   UNL     1       2.682   6.690  18.256  0.00  0.00    +0.000 C 
ATOM     25  C   UNL     1       4.130   6.301  18.581  0.00  0.00    +0.000 C 
BRANCH  18  26
ATOM     26  O   UNL     1       5.767   4.260  17.697  0.00  0.00    +0.000 OA
BRANCH  26  28
ATOM     27  C   UNL     1       5.527   4.885  15.386  0.00  0.00    +0.000 C 
ATOM     28  C   UNL     1       5.313   3.791  16.418  0.00  0.00    +0.000 C 
ENDBRANCH  26  28
ENDBRANCH  18  26
ENDBRANCH  16  23
ENDBRANCH   1  16
TORSDOF 5
ENDMDL
MODEL 4
REMARK VINA RESULT:      -7.4      2.640      4.400
REMARK  Name = 
REMARK  6 active torsions:
REMARK  status: ('A' for Active; 'I' for Inactive)
REMARK    1  A    between atoms: C_1  and  C_2
REMARK    2  A    between atoms: C_2  and  O_3
REMARK    3  A    between atoms: O_3  and  C_4
REMARK    4  A    between atoms: C_9  and  N_10
REMARK    5  A    between atoms: N_10  and  C_11
REMARK    6  A    between atoms: N_19  and  C_20
REMARK                            x       y       z     vdW  Elec       q    Type
REMARK                         _______ _______ _______ _____ _____    ______ ____
ROOT
ATOM      1  C   UNL     1       1.260   8.799  20.374  0.00  0.00    +0.000 A 
ATOM      2  N   UNL     1       1.065   9.408  19.178  0.00  0.00    +0.000 NA
ATOM      3  C   UNL     1       0.287  10.501  19.114  0.00  0.00    +0.000 A 
ATOM      4  N   UNL     1      -0.357  11.103  20.116  0.00  0.00    +0.000 NA
ATOM      5  C   UNL     1      -0.107  10.527  21.305  0.00  0.00    +0.000 A 
ATOM      6  C   UNL     1       0.684   9.406  21.504  0.00  0.00    +0.000 A 
ATOM      7  C   UNL     1       0.672   9.218  22.897  0.00  0.00    +0.000 A 
ATOM      8  N   UNL     1       0.008  10.171  23.554  0.00  0.00    +0.000 NA
ATOM      9  N   UNL     1      -0.539  10.935  22.562  0.00  0.00    +0.000 N 
ENDROOT
BRANCH   9  10
ATOM     10  C   UNL     1      -1.405  12.011  22.888  0.00  0.00    +0.000 A 
ATOM     11  C   UNL     1      -0.931  13.325  22.789  0.00  0.00    +0.000 A 
ATOM     12  C   UNL     1      -1.775  14.392  23.098  0.00  0.00    +0.000 A 
ATOM     13  C   UNL     1      -3.073  14.144  23.541  0.00  0.00    +0.000 A 
ATOM     14  C   UNL     1      -3.540  12.838  23.663  0.00  0.00    +0.000 A 
ATOM     15  C   UNL     1      -2.713  11.769  23.321  0.00  0.00    +0.000 A 
ENDBRANCH   9  10
BRANCH   1  16
ATOM     16  N   UNL     1       2.006   7.619  20.446  0.00  0.00    +0.000 N 
ATOM     17  H   UNL     1       2.997   7.848  20.454  0.00  0.00    +0.000 HD
BRANCH  16  23
ATOM     18  C   UNL     1       4.970   4.068  18.605  0.00  0.00    +0.000 C 
ATOM     19  O   UNL     1       5.032   2.976  19.124  0.00  0.00    +0.000 OA
ATOM     20  N   UNL     1       4.183   5.101  19.088  0.00  0.00    +0.000 N 
ATOM     21  C   UNL     1       3.405   4.878  20.298  0.00  0.00    +0.000 C 
ATOM     22  C   UNL     1       1.929   5.128  20.024  0.00  0.00    +0.000 C 
ATOM     23  C   UNL     1       1.700   6.547  19.483  0.00  0.00    +0.000 C 
ATOM     24  C   UNL     1       2.581   6.746  18.231  0.00  0.00    +0.000 C 
ATOM     25  C   UNL     1       4.058   6.421  18.484  0.00  0.00    +0.000 C 
BRANCH  18  26
ATOM     26  O   UNL     1       5.732   4.440  17.534  0.00  0.00    +0.000 OA
BRANCH  26  28
ATOM     27  C   UNL     1       7.453   6.119  17.614  0.00  0.00    +0.000 C 
ATOM     28  C   UNL     1       7.109   4.662  17.869  0.00  0.00    +0.000 C 
ENDBRANCH  26  28
ENDBRANCH  18  26
ENDBRANCH  16  23
ENDBRANCH   1  16
TORSDOF 5
ENDMDL
MODEL 5
REMARK VINA RESULT:      -7.4      1.406      1.946
REMARK  Name = 
REMARK  6 active torsions:
REMARK  status: ('A' for Active; 'I' for Inactive)
REMARK    1  A    between atoms: C_1  and  C_2
REMARK    2  A    between atoms: C_2  and  O_3
REMARK    3  A    between atoms: O_3  and  C_4
REMARK    4  A    between atoms: C_9  and  N_10
REMARK    5  A    between atoms: N_10  and  C_11
REMARK    6  A    between atoms: N_19  and  C_20
REMARK                            x       y       z     vdW  Elec       q    Type
REMARK                         _______ _______ _______ _____ _____    ______ ____
ROOT
ATOM      1  C   UNL     1       2.216   6.427  19.178  0.00  0.00    +0.000 A 
ATOM      2  N   UNL     1       1.845   6.195  20.462  0.00  0.00    +0.000 NA
ATOM      3  C   UNL     1       1.411   7.218  21.218  0.00  0.00    +0.000 A 
ATOM      4  N   UNL     1       1.290   8.499  20.863  0.00  0.00    +0.000 NA
ATOM      5  C   UNL     1       1.604   8.705  19.572  0.00  0.00    +0.000 A 
ATOM      6  C   UNL     1       2.051   7.734  18.690  0.00  0.00    +0.000 A 
ATOM      7  C   UNL     1       2.200   8.419  17.470  0.00  0.00    +0.000 A 
ATOM      8  N   UNL     1       1.809   9.694  17.528  0.00  0.00    +0.000 NA
ATOM      9  N   UNL     1       1.515   9.889  18.848  0.00  0.00    +0.000 N 
ENDROOT
BRANCH   9  10
ATOM     10  C   UNL     1       1.144  11.178  19.311  0.00  0.00    +0.000 A 
ATOM     11  C   UNL     1       1.963  12.274  19.010  0.00  0.00    +0.000 A 
ATOM     12  C   UNL     1       1.605  13.547  19.453  0.00  0.00    +0.000 A 
ATOM     13  C   UNL     1       0.458  13.718  20.226  0.00  0.00    +0.000 A 
ATOM     14  C   UNL     1      -0.345  12.627  20.546  0.00  0.00    +0.000 A 
ATOM     15  C   UNL     1      -0.013  11.357  20.076  0.00  0.00    +0.000 A 
ENDBRANCH   9  10
BRANCH   1  16
ATOM     16  N   UNL     1       2.739   5.389  18.402  0.00  0.00    +0.000 N 
ATOM     17  H   UNL     1       2.089   4.607  18.406  0.00  0.00    +0.000 HD
BRANCH  16  23
ATOM     18  C   UNL     1       6.563   4.861  15.258  0.00  0.00    +0.000 C 
ATOM     19  O   UNL     1       7.354   5.760  15.081  0.00  0.00    +0.000 OA
ATOM     20  N   UNL     1       5.467   4.960  16.101  0.00  0.00    +0.000 N 
ATOM     21  C   UNL     1       5.233   6.219  16.794  0.00  0.00    +0.000 C 
ATOM     22  C   UNL     1       5.193   5.987  18.298  0.00  0.00    +0.000 C 
ATOM     23  C   UNL     1       4.121   4.952  18.670  0.00  0.00    +0.000 C 
ATOM     24  C   UNL     1       4.388   3.656  17.874  0.00  0.00    +0.000 C 
ATOM     25  C   UNL     1       4.505   3.898  16.364  0.00  0.00    +0.000 C 
BRANCH  18  26
ATOM     26  O   UNL     1       6.606   3.672  14.586  0.00  0.00    +0.000 OA
BRANCH  26  28
ATOM     27  C   UNL     1       5.170   3.615  12.656  0.00  0.00    +0.000 C 
ATOM     28  C   UNL     1       6.588   3.829  13.159  0.00  0.00    +0.000 C 
ENDBRANCH  26  28
ENDBRANCH  18  26
ENDBRANCH  16  23
ENDBRANCH   1  16
TORSDOF 5
ENDMDL
MODEL 6
REMARK VINA RESULT:      -7.4      2.092      3.896
REMARK  Name = 
REMARK  6 active torsions:
REMARK  status: ('A' for Active; 'I' for Inactive)
REMARK    1  A    between atoms: C_1  and  C_2
REMARK    2  A    between atoms: C_2  and  O_3
REMARK    3  A    between atoms: O_3  and  C_4
REMARK    4  A    between atoms: C_9  and  N_10
REMARK    5  A    between atoms: N_10  and  C_11
REMARK    6  A    between atoms: N_19  and  C_20
REMARK                            x       y       z     vdW  Elec       q    Type
REMARK                         _______ _______ _______ _____ _____    ______ ____
ROOT
ATOM      1  C   UNL     1       1.337   9.076  19.590  0.00  0.00    +0.000 A 
ATOM      2  N   UNL     1       1.019   9.828  18.506  0.00  0.00    +0.000 NA
ATOM      3  C   UNL     1       0.227  10.902  18.658  0.00  0.00    +0.000 A 
ATOM      4  N   UNL     1      -0.321  11.357  19.786  0.00  0.00    +0.000 NA
ATOM      5  C   UNL     1       0.050  10.641  20.862  0.00  0.00    +0.000 A 
ATOM      6  C   UNL     1       0.868   9.522  20.838  0.00  0.00    +0.000 A 
ATOM      7  C   UNL     1       0.995   9.159  22.191  0.00  0.00    +0.000 A 
ATOM      8  N   UNL     1       0.388  10.005  23.025  0.00  0.00    +0.000 NA
ATOM      9  N   UNL     1      -0.261  10.877  22.197  0.00  0.00    +0.000 N 
ENDROOT
BRANCH   9  10
ATOM     10  C   UNL     1      -1.102  11.882  22.739  0.00  0.00    +0.000 A 
ATOM     11  C   UNL     1      -0.643  13.205  22.788  0.00  0.00    +0.000 A 
ATOM     12  C   UNL     1      -1.464  14.204  23.310  0.00  0.00    +0.000 A 
ATOM     13  C   UNL     1      -2.719  13.876  23.819  0.00  0.00    +0.000 A 
ATOM     14  C   UNL     1      -3.169  12.559  23.793  0.00  0.00    +0.000 A 
ATOM     15  C   UNL     1      -2.368  11.561  23.239  0.00  0.00    +0.000 A 
ENDBRANCH   9  10
BRANCH   1  16
ATOM     16  N   UNL     1       2.098   7.914  19.438  0.00  0.00    +0.000 N 
ATOM     17  H   UNL     1       3.043   8.085  19.773  0.00  0.00    +0.000 HD
BRANCH  16  23
ATOM     18  C   UNL     1       4.843   4.096  17.802  0.00  0.00    +0.000 C 
ATOM     19  O   UNL     1       4.438   2.958  17.879  0.00  0.00    +0.000 OA
ATOM     20  N   UNL     1       4.134   5.194  18.263  0.00  0.00    +0.000 N 
ATOM     21  C   UNL     1       2.843   4.973  18.899  0.00  0.00    +0.000 C 
ATOM     22  C   UNL     1       1.761   5.754  18.168  0.00  0.00    +0.000 C 
ATOM     23  C   UNL     1       2.096   7.252  18.122  0.00  0.00    +0.000 C 
ATOM     24  C   UNL     1       3.491   7.426  17.482  0.00  0.00    +0.000 C 
ATOM     25  C   UNL     1       4.570   6.581  18.169  0.00  0.00    +0.000 C 
BRANCH  18  26
ATOM     26  O   UNL     1       6.082   4.427  17.330  0.00  0.00    +0.000 OA
BRANCH  26  28
ATOM     27  C   UNL     1       5.703   5.061  15.041  0.00  0.00    +0.000 C 
ATOM     28  C   UNL     1       6.297   4.018  15.972  0.00  0.00    +0.000 C 
ENDBRANCH  26  28
ENDBRANCH  18  26
ENDBRANCH  16  23
ENDBRANCH   1  16
TORSDOF 5
ENDMDL
MODEL 7
REMARK VINA RESULT:      -7.4      1.591      1.910
REMARK  Name = 
REMARK  6 active torsions:
REMARK  status: ('A' for Active; 'I' for Inactive)
REMARK    1  A    between atoms: C_1  and  C_2
REMARK    2  A    between atoms: C_2  and  O_3
REMARK    3  A    between atoms: O_3  and  C_4
REMARK    4  A    between atoms: C_9  and  N_10
REMARK    5  A    between atoms: N_10  and  C_11
REMARK    6  A    between atoms: N_19  and  C_20
REMARK                            x       y       z     vdW  Elec       q    Type
REMARK                         _______ _______ _______ _____ _____    ______ ____
ROOT
ATOM      1  C   UNL     1       2.218   7.524  19.265  0.00  0.00    +0.000 A 
ATOM      2  N   UNL     1       1.824   6.887  20.396  0.00  0.00    +0.000 NA
ATOM      3  C   UNL     1       1.072   7.545  21.295  0.00  0.00    +0.000 A 
ATOM      4  N   UNL     1       0.637   8.805  21.227  0.00  0.00    +0.000 NA
ATOM      5  C   UNL     1       0.983   9.405  20.075  0.00  0.00    +0.000 A 
ATOM      6  C   UNL     1       1.744   8.832  19.068  0.00  0.00    +0.000 A 
ATOM      7  C   UNL     1       1.797   9.822  18.070  0.00  0.00    +0.000 A 
ATOM      8  N   UNL     1       1.072  10.904  18.360  0.00  0.00    +0.000 NA
ATOM      9  N   UNL     1       0.634  10.677  19.634  0.00  0.00    +0.000 N 
ENDROOT
BRANCH   9  10
ATOM     10  C   UNL     1      -0.107  11.673  20.320  0.00  0.00    +0.000 A 
ATOM     11  C   UNL     1      -1.501  11.705  20.184  0.00  0.00    +0.000 A 
ATOM     12  C   UNL     1      -2.241  12.674  20.861  0.00  0.00    +0.000 A 
ATOM     13  C   UNL     1      -1.588  13.630  21.637  0.00  0.00    +0.000 A 
ATOM     14  C   UNL     1      -0.202  13.615  21.756  0.00  0.00    +0.000 A 
ATOM     15  C   UNL     1       0.541  12.627  21.111  0.00  0.00    +0.000 A 
ENDBRANCH   9  10
BRANCH   1  16
ATOM     16  N   UNL     1       3.061   6.878  18.356  0.00  0.00    +0.000 N 
ATOM     17  H   UNL     1       2.612   6.849  17.444  0.00  0.00    +0.000 HD
BRANCH  16  23
ATOM     18  C   UNL     1       6.840   4.330  16.352  0.00  0.00    +0.000 C 
ATOM     19  O   UNL     1       7.964   4.434  16.790  0.00  0.00    +0.000 OA
ATOM     20  N   UNL     1       5.755   5.033  16.853  0.00  0.00    +0.000 N 
ATOM     21  C   UNL     1       5.976   5.968  17.948  0.00  0.00    +0.000 C 
ATOM     22  C   UNL     1       5.098   5.599  19.135  0.00  0.00    +0.000 C 
ATOM     23  C   UNL     1       3.615   5.567  18.736  0.00  0.00    +0.000 C 
ATOM     24  C   UNL     1       3.445   4.599  17.545  0.00  0.00    +0.000 C 
ATOM     25  C   UNL     1       4.384   4.922  16.377  0.00  0.00    +0.000 C 
BRANCH  18  26
ATOM     26  O   UNL     1       6.520   3.574  15.260  0.00  0.00    +0.000 OA
BRANCH  26  28
ATOM     27  C   UNL     1       5.935   3.639  12.927  0.00  0.00    +0.000 C 
ATOM     28  C   UNL     1       6.818   4.225  14.016  0.00  0.00    +0.000 C 
ENDBRANCH  26  28
ENDBRANCH  18  26
ENDBRANCH  16  23
ENDBRANCH   1  16
TORSDOF 5
ENDMDL
MODEL 8
REMARK VINA RESULT:      -7.3      5.032      9.568
REMARK  Name = 
REMARK  6 active torsions:
REMARK  status: ('A' for Active; 'I' for Inactive)
REMARK    1  A    between atoms: C_1  and  C_2
REMARK    2  A    between atoms: C_2  and  O_3
REMARK    3  A    between atoms: O_3  and  C_4
REMARK    4  A    between atoms: C_9  and  N_10
REMARK    5  A    between atoms: N_10  and  C_11
REMARK    6  A    between atoms: N_19  and  C_20
REMARK                            x       y       z     vdW  Elec       q    Type
REMARK                         _______ _______ _______ _____ _____    ______ ____
ROOT
ATOM      1  C   UNL     1       0.687  10.114  20.361  0.00  0.00    +0.000 A 
ATOM      2  N   UNL     1       0.663   9.489  21.565  0.00  0.00    +0.000 NA
ATOM      3  C   UNL     1       1.143   8.238  21.668  0.00  0.00    +0.000 A 
ATOM      4  N   UNL     1       1.668   7.484  20.700  0.00  0.00    +0.000 NA
ATOM      5  C   UNL     1       1.743   8.136  19.526  0.00  0.00    +0.000 A 
ATOM      6  C   UNL     1       1.293   9.427  19.295  0.00  0.00    +0.000 A 
ATOM      7  C   UNL     1       1.625   9.672  17.951  0.00  0.00    +0.000 A 
ATOM      8  N   UNL     1       2.301   8.671  17.382  0.00  0.00    +0.000 NA
ATOM      9  N   UNL     1       2.303   7.692  18.334  0.00  0.00    +0.000 N 
ENDROOT
BRANCH   9  10
ATOM     10  C   UNL     1       2.864   6.421  18.046  0.00  0.00    +0.000 A 
ATOM     11  C   UNL     1       4.239   6.320  17.795  0.00  0.00    +0.000 A 
ATOM     12  C   UNL     1       4.803   5.075  17.520  0.00  0.00    +0.000 A 
ATOM     13  C   UNL     1       3.992   3.943  17.456  0.00  0.00    +0.000 A 
ATOM     14  C   UNL     1       2.622   4.044  17.682  0.00  0.00    +0.000 A 
ATOM     15  C   UNL     1       2.057   5.279  17.994  0.00  0.00    +0.000 A 
ENDBRANCH   9  10
BRANCH   1  16
ATOM     16  N   UNL     1       0.124  11.385  20.221  0.00  0.00    +0.000 N 
ATOM     17  H   UNL     1      -0.157  11.523  19.254  0.00  0.00    +0.000 HD
BRANCH  16  23
ATOM     18  C   UNL     1      -0.502  16.245  19.339  0.00  0.00    +0.000 C 
ATOM     19  O   UNL     1      -1.183  16.929  20.070  0.00  0.00    +0.000 OA
ATOM     20  N   UNL     1      -0.312  14.884  19.521  0.00  0.00    +0.000 N 
ATOM     21  C   UNL     1      -0.987  14.230  20.633  0.00  0.00    +0.000 C 
ATOM     22  C   UNL     1       0.033  13.545  21.532  0.00  0.00    +0.000 C 
ATOM     23  C   UNL     1       0.880  12.538  20.740  0.00  0.00    +0.000 C 
ATOM     24  C   UNL     1       1.534  13.273  19.549  0.00  0.00    +0.000 C 
ATOM     25  C   UNL     1       0.517  14.028  18.684  0.00  0.00    +0.000 C 
BRANCH  18  26
ATOM     26  O   UNL     1       0.093  16.714  18.202  0.00  0.00    +0.000 OA
BRANCH  26  28
ATOM     27  C   UNL     1       0.266  18.499  16.598  0.00  0.00    +0.000 C 
ATOM     28  C   UNL     1      -0.644  17.774  17.575  0.00  0.00    +0.000 C 
ENDBRANCH  26  28
ENDBRANCH  18  26
ENDBRANCH  16  23
ENDBRANCH   1  16
TORSDOF 5
ENDMDL
MODEL 9
REMARK VINA RESULT:      -7.2      0.990      1.899
REMARK  Name = 
REMARK  6 active torsions:
REMARK  status: ('A' for Active; 'I' for Inactive)
REMARK    1  A    between atoms: C_1  and  C_2
REMARK    2  A    between atoms: C_2  and  O_3
REMARK    3  A    between atoms: O_3  and  C_4
REMARK    4  A    between atoms: C_9  and  N_10
REMARK    5  A    between atoms: N_10  and  C_11
REMARK    6  A    between atoms: N_19  and  C_20
REMARK                            x       y       z     vdW  Elec       q    Type
REMARK                         _______ _______ _______ _____ _____    ______ ____
ROOT
ATOM      1  C   UNL     1       2.253   7.536  18.294  0.00  0.00    +0.000 A 
ATOM      2  N   UNL     1       2.421   8.517  17.372  0.00  0.00    +0.000 NA
ATOM      3  C   UNL     1       1.988   9.759  17.646  0.00  0.00    +0.000 A 
ATOM      4  N   UNL     1       1.383  10.186  18.756  0.00  0.00    +0.000 NA
ATOM      5  C   UNL     1       1.278   9.220  19.686  0.00  0.00    +0.000 A 
ATOM      6  C   UNL     1       1.694   7.906  19.529  0.00  0.00    +0.000 A 
ATOM      7  C   UNL     1       1.414   7.306  20.770  0.00  0.00    +0.000 A 
ATOM      8  N   UNL     1       0.938   8.162  21.677  0.00  0.00    +0.000 NA
ATOM      9  N   UNL     1       0.782   9.327  20.980  0.00  0.00    +0.000 N 
ENDROOT
BRANCH   9  10
ATOM     10  C   UNL     1       0.200  10.459  21.608  0.00  0.00    +0.000 A 
ATOM     11  C   UNL     1      -0.783  10.268  22.587  0.00  0.00    +0.000 A 
ATOM     12  C   UNL     1      -1.357  11.371  23.217  0.00  0.00    +0.000 A 
ATOM     13  C   UNL     1      -0.979  12.659  22.843  0.00  0.00    +0.000 A 
ATOM     14  C   UNL     1      -0.019  12.853  21.854  0.00  0.00    +0.000 A 
ATOM     15  C   UNL     1       0.585  11.754  21.245  0.00  0.00    +0.000 A 
ENDBRANCH   9  10
BRANCH   1  16
ATOM     16  N   UNL     1       2.630   6.224  17.996  0.00  0.00    +0.000 N 
ATOM     17  H   UNL     1       1.922   5.583  18.345  0.00  0.00    +0.000 HD
BRANCH  16  23
ATOM     18  C   UNL     1       6.460   4.936  15.086  0.00  0.00    +0.000 C 
ATOM     19  O   UNL     1       7.291   5.750  14.753  0.00  0.00    +0.000 OA
ATOM     20  N   UNL     1       5.361   5.242  15.873  0.00  0.00    +0.000 N 
ATOM     21  C   UNL     1       5.175   6.621  16.304  0.00  0.00    +0.000 C 
ATOM     22  C   UNL     1       5.109   6.689  17.823  0.00  0.00    +0.000 C 
ATOM     23  C   UNL     1       3.989   5.792  18.369  0.00  0.00    +0.000 C 
ATOM     24  C   UNL     1       4.207   4.355  17.846  0.00  0.00    +0.000 C 
ATOM     25  C   UNL     1       4.351   4.293  16.320  0.00  0.00    +0.000 C 
BRANCH  18  26
ATOM     26  O   UNL     1       6.458   3.638  14.659  0.00  0.00    +0.000 OA
BRANCH  26  28
ATOM     27  C   UNL     1       5.181   3.429  12.631  0.00  0.00    +0.000 C 
ATOM     28  C   UNL     1       6.573   3.512  13.235  0.00  0.00    +0.000 C 
ENDBRANCH  26  28
ENDBRANCH  18  26
ENDBRANCH  16  23
ENDBRANCH   1  16
TORSDOF 5
ENDMDL
