MODEL 1
REMARK VINA RESULT:      -7.6      0.000      0.000
REMARK  Name = 
REMARK  9 active torsions:
REMARK  status: ('A' for Active; 'I' for Inactive)
REMARK    1  A    between atoms: C_1  and  C_2
REMARK    2  A    between atoms: C_2  and  O_3
REMARK    3  A    between atoms: O_3  and  C_4
REMARK    4  A    between atoms: C_4  and  C_6
REMARK    5  A    between atoms: C_7  and  C_8
REMARK    6  A    between atoms: C_12  and  C_13
REMARK    7  A    between atoms: N_16  and  C_17
REMARK    8  A    between atoms: N_16  and  C_18
REMARK    9  A    between atoms: C_18  and  C_19
REMARK                            x       y       z     vdW  Elec       q    Type
REMARK                         _______ _______ _______ _____ _____    ______ ____
ROOT
ATOM      1  C   UNL     1       3.294   4.317  19.841  0.00  0.00    +0.000 A 
ATOM      2  C   UNL     1       2.253   4.273  20.758  0.00  0.00    +0.000 A 
ATOM      3  C   UNL     1       1.755   3.259  21.713  0.00  0.00    +0.000 C 
ATOM      4  O   UNL     1       1.595   5.456  20.767  0.00  0.00    +0.000 OA
ATOM      5  C   UNL     1       2.149   6.243  19.807  0.00  0.00    +0.000 A 
ATOM      6  N   UNL     1       1.696   7.479  19.582  0.00  0.00    +0.000 NA
ATOM      7  C   UNL     1       2.334   8.070  18.574  0.00  0.00    +0.000 A 
ATOM      8  C   UNL     1       1.872   9.442  18.190  0.00  0.00    +0.000 C 
ATOM      9  N   UNL     1       3.302   7.517  17.815  0.00  0.00    +0.000 NA
ATOM     10  C   UNL     1       3.687   6.221  17.992  0.00  0.00    +0.000 A 
ATOM     11  N   UNL     1       4.451   5.650  16.988  0.00  0.00    +0.000 N 
ATOM     12  C   UNL     1       4.385   4.236  16.705  0.00  0.00    +0.000 C 
ATOM     13  C   UNL     1       3.149   5.560  19.126  0.00  0.00    +0.000 A 
ENDROOT
BRANCH   1  14
ATOM     14  C   UNL     1       4.286   3.271  19.726  0.00  0.00    +0.000 C 
ATOM     15  O   UNL     1       5.490   3.472  19.668  0.00  0.00    +0.000 OA
BRANCH  14  16
ATOM     16  O   UNL     1       3.707   2.041  19.679  0.00  0.00    +0.000 OA
BRANCH  16  18
ATOM     17  C   UNL     1       1.875   1.866  18.135  0.00  0.00    +0.000 C 
ATOM     18  C   UNL     1       3.330   1.529  18.392  0.00  0.00    +0.000 C 
ENDBRANCH  16  18
ENDBRANCH  14  16
ENDBRANCH   1  14
BRANCH  11  19
ATOM     19  C   UNL     1       5.445   6.448  16.273  0.00  0.00    +0.000 C 
BRANCH  19  20
ATOM     20  C   UNL     1       6.613   6.941  17.112  0.00  0.00    +0.000 A 
ATOM     21  C   UNL     1       7.000   8.289  17.040  0.00  0.00    +0.000 A 
ATOM     22  C   UNL     1       7.986   8.803  17.888  0.00  0.00    +0.000 A 
ATOM     23  C   UNL     1       8.611   7.976  18.816  0.00  0.00    +0.000 A 
ATOM     24  C   UNL     1       8.255   6.628  18.888  0.00  0.00    +0.000 A 
ATOM     25  C   UNL     1       7.264   6.115  18.042  0.00  0.00    +0.000 A 
ENDBRANCH  19  20
ENDBRANCH  11  19
TORSDOF 5
ENDMDL
MODEL 2
REMARK VINA RESULT:      -7.4      2.381      6.010
REMARK  Name = 
REMARK  9 active torsions:
REMARK  status: ('A' for Active; 'I' for Inactive)
REMARK    1  A    between atoms: C_1  and  C_2
REMARK    2  A    between atoms: C_2  and  O_3
REMARK    3  A    between atoms: O_3  and  C_4
REMARK    4  A    between atoms: C_4  and  C_6
REMARK    5  A    between atoms: C_7  and  C_8
REMARK    6  A    between atoms: C_12  and  C_13
REMARK    7  A    between atoms: N_16  and  C_17
REMARK    8  A    between atoms: N_16  and  C_18
REMARK    9  A    between atoms: C_18  and  C_19
REMARK                            x       y       z     vdW  Elec       q    Type
REMARK                         _______ _______ _______ _____ _____    ______ ____
ROOT
ATOM      1  C   UNL     1       4.593   5.352  17.066  0.00  0.00    +0.000 A 
ATOM      2  C   UNL     1       4.860   4.113  16.499  0.00  0.00    +0.000 A 
ATOM      3  C   UNL     1       5.664   3.651  15.346  0.00  0.00    +0.000 C 
ATOM      4  O   UNL     1       4.252   3.138  17.215  0.00  0.00    +0.000 OA
ATOM      5  C   UNL     1       3.528   3.737  18.196  0.00  0.00    +0.000 A 
ATOM      6  N   UNL     1       2.813   3.017  19.064  0.00  0.00    +0.000 NA
ATOM      7  C   UNL     1       2.138   3.786  19.916  0.00  0.00    +0.000 A 
ATOM      8  C   UNL     1       1.251   3.089  20.903  0.00  0.00    +0.000 C 
ATOM      9  N   UNL     1       2.115   5.134  19.921  0.00  0.00    +0.000 NA
ATOM     10  C   UNL     1       2.771   5.857  18.969  0.00  0.00    +0.000 A 
ATOM     11  N   UNL     1       2.448   7.200  18.867  0.00  0.00    +0.000 N 
ATOM     12  C   UNL     1       2.528   7.897  17.604  0.00  0.00    +0.000 C 
ATOM     13  C   UNL     1       3.618   5.121  18.101  0.00  0.00    +0.000 A 
ENDROOT
BRANCH   1  14
ATOM     14  C   UNL     1       5.242   6.570  16.633  0.00  0.00    +0.000 C 
ATOM     15  O   UNL     1       5.124   7.049  15.515  0.00  0.00    +0.000 OA
BRANCH  14  16
ATOM     16  O   UNL     1       6.008   7.104  17.623  0.00  0.00    +0.000 OA
BRANCH  16  18
ATOM     17  C   UNL     1       7.741   5.958  18.828  0.00  0.00    +0.000 C 
ATOM     18  C   UNL     1       7.412   6.805  17.616  0.00  0.00    +0.000 C 
ENDBRANCH  16  18
ENDBRANCH  14  16
ENDBRANCH   1  14
BRANCH  11  19
ATOM     19  C   UNL     1       2.142   7.979  20.064  0.00  0.00    +0.000 C 
BRANCH  19  20
ATOM     20  C   UNL     1       1.052   9.026  19.900  0.00  0.00    +0.000 A 
ATOM     21  C   UNL     1       0.268   9.392  21.006  0.00  0.00    +0.000 A 
ATOM     22  C   UNL     1      -0.656  10.438  20.922  0.00  0.00    +0.000 A 
ATOM     23  C   UNL     1      -0.823  11.129  19.726  0.00  0.00    +0.000 A 
ATOM     24  C   UNL     1      -0.069  10.766  18.609  0.00  0.00    +0.000 A 
ATOM     25  C   UNL     1       0.861   9.722  18.696  0.00  0.00    +0.000 A 
ENDBRANCH  19  20
ENDBRANCH  11  19
TORSDOF 5
ENDMDL
MODEL 3
REMARK VINA RESULT:      -7.2      1.851      5.249
REMARK  Name = 
REMARK  9 active torsions:
REMARK  status: ('A' for Active; 'I' for Inactive)
REMARK    1  A    between atoms: C_1  and  C_2
REMARK    2  A    between atoms: C_2  and  O_3
REMARK    3  A    between atoms: O_3  and  C_4
REMARK    4  A    between atoms: C_4  and  C_6
REMARK    5  A    between atoms: C_7  and  C_8
REMARK    6  A    between atoms: C_12  and  C_13
REMARK    7  A    between atoms: N_16  and  C_17
REMARK    8  A    between atoms: N_16  and  C_18
REMARK    9  A    between atoms: C_18  and  C_19
REMARK                            x       y       z     vdW  Elec       q    Type
REMARK                         _______ _______ _______ _____ _____    ______ ____
ROOT
ATOM      1  C   UNL     1       2.992   3.995  18.045  0.00  0.00    +0.000 A 
ATOM      2  C   UNL     1       3.815   2.881  18.131  0.00  0.00    +0.000 A 
ATOM      3  C   UNL     1       3.587   1.438  18.365  0.00  0.00    +0.000 C 
ATOM      4  O   UNL     1       5.102   3.241  17.913  0.00  0.00    +0.000 OA
ATOM      5  C   UNL     1       5.133   4.591  17.765  0.00  0.00    +0.000 A 
ATOM      6  N   UNL     1       6.282   5.235  17.540  0.00  0.00    +0.000 NA
ATOM      7  C   UNL     1       6.112   6.553  17.472  0.00  0.00    +0.000 A 
ATOM      8  C   UNL     1       7.341   7.387  17.281  0.00  0.00    +0.000 C 
ATOM      9  N   UNL     1       4.948   7.213  17.639  0.00  0.00    +0.000 NA
ATOM     10  C   UNL     1       3.800   6.552  17.966  0.00  0.00    +0.000 A 
ATOM     11  N   UNL     1       2.739   7.320  18.415  0.00  0.00    +0.000 N 
ATOM     12  C   UNL     1       1.776   6.795  19.354  0.00  0.00    +0.000 C 
ATOM     13  C   UNL     1       3.866   5.135  17.933  0.00  0.00    +0.000 A 
ENDROOT
BRANCH   1  14
ATOM     14  C   UNL     1       1.548   3.908  18.057  0.00  0.00    +0.000 C 
ATOM     15  O   UNL     1       0.822   4.448  17.235  0.00  0.00    +0.000 OA
BRANCH  14  16
ATOM     16  O   UNL     1       1.104   3.162  19.104  0.00  0.00    +0.000 OA
BRANCH  16  18
ATOM     17  C   UNL     1       1.683   2.922  21.422  0.00  0.00    +0.000 C 
ATOM     18  C   UNL     1       1.010   3.799  20.386  0.00  0.00    +0.000 C 
ENDBRANCH  16  18
ENDBRANCH  14  16
ENDBRANCH   1  14
BRANCH  11  19
ATOM     19  C   UNL     1       2.493   8.644  17.846  0.00  0.00    +0.000 C 
BRANCH  19  20
ATOM     20  C   UNL     1       1.256   9.358  18.366  0.00  0.00    +0.000 A 
ATOM     21  C   UNL     1       1.319  10.061  19.580  0.00  0.00    +0.000 A 
ATOM     22  C   UNL     1       0.239  10.832  20.025  0.00  0.00    +0.000 A 
ATOM     23  C   UNL     1      -0.927  10.901  19.270  0.00  0.00    +0.000 A 
ATOM     24  C   UNL     1      -1.017  10.192  18.072  0.00  0.00    +0.000 A 
ATOM     25  C   UNL     1       0.066   9.426  17.624  0.00  0.00    +0.000 A 
ENDBRANCH  19  20
ENDBRANCH  11  19
TORSDOF 5
ENDMDL
MODEL 4
REMARK VINA RESULT:      -7.2      2.292      6.035
REMARK  Name = 
REMARK  9 active torsions:
REMARK  status: ('A' for Active; 'I' for Inactive)
REMARK    1  A    between atoms: C_1  and  C_2
REMARK    2  A    between atoms: C_2  and  O_3
REMARK    3  A    between atoms: O_3  and  C_4
REMARK    4  A    between atoms: C_4  and  C_6
REMARK    5  A    between atoms: C_7  and  C_8
REMARK    6  A    between atoms: C_12  and  C_13
REMARK    7  A    between atoms: N_16  and  C_17
REMARK    8  A    between atoms: N_16  and  C_18
REMARK    9  A    between atoms: C_18  and  C_19
REMARK                            x       y       z     vdW  Elec       q    Type
REMARK                         _______ _______ _______ _____ _____    ______ ____
ROOT
ATOM      1  C   UNL     1       4.593   5.536  17.079  0.00  0.00    +0.000 A 
ATOM      2  C   UNL     1       4.905   4.266  16.612  0.00  0.00    +0.000 A 
ATOM      3  C   UNL     1       5.753   3.743  15.518  0.00  0.00    +0.000 C 
ATOM      4  O   UNL     1       4.300   3.330  17.380  0.00  0.00    +0.000 OA
ATOM      5  C   UNL     1       3.533   3.980  18.295  0.00  0.00    +0.000 A 
ATOM      6  N   UNL     1       2.811   3.306  19.193  0.00  0.00    +0.000 NA
ATOM      7  C   UNL     1       2.092   4.116  19.968  0.00  0.00    +0.000 A 
ATOM      8  C   UNL     1       1.194   3.471  20.977  0.00  0.00    +0.000 C 
ATOM      9  N   UNL     1       2.038   5.460  19.874  0.00  0.00    +0.000 NA
ATOM     10  C   UNL     1       2.704   6.130  18.890  0.00  0.00    +0.000 A 
ATOM     11  N   UNL     1       2.353   7.452  18.681  0.00  0.00    +0.000 N 
ATOM     12  C   UNL     1       2.453   8.059  17.374  0.00  0.00    +0.000 C 
ATOM     13  C   UNL     1       3.593   5.354  18.102  0.00  0.00    +0.000 A 
ENDROOT
BRANCH   1  14
ATOM     14  C   UNL     1       5.225   6.736  16.577  0.00  0.00    +0.000 C 
ATOM     15  O   UNL     1       5.123   7.133  15.426  0.00  0.00    +0.000 OA
BRANCH  14  16
ATOM     16  O   UNL     1       5.956   7.354  17.543  0.00  0.00    +0.000 OA
BRANCH  16  18
ATOM     17  C   UNL     1       7.983   8.619  17.787  0.00  0.00    +0.000 C 
ATOM     18  C   UNL     1       7.386   7.266  17.459  0.00  0.00    +0.000 C 
ENDBRANCH  16  18
ENDBRANCH  14  16
ENDBRANCH   1  14
BRANCH  11  19
ATOM     19  C   UNL     1       1.993   8.308  19.809  0.00  0.00    +0.000 C 
BRANCH  19  20
ATOM     20  C   UNL     1       1.073   9.472  19.478  0.00  0.00    +0.000 A 
ATOM     21  C   UNL     1       1.623  10.730  19.185  0.00  0.00    +0.000 A 
ATOM     22  C   UNL     1       0.816  11.789  18.754  0.00  0.00    +0.000 A 
ATOM     23  C   UNL     1      -0.558  11.611  18.623  0.00  0.00    +0.000 A 
ATOM     24  C   UNL     1      -1.126  10.374  18.931  0.00  0.00    +0.000 A 
ATOM     25  C   UNL     1      -0.317   9.313  19.356  0.00  0.00    +0.000 A 
ENDBRANCH  19  20
ENDBRANCH  11  19
TORSDOF 5
ENDMDL
MODEL 5
REMARK VINA RESULT:      -7.0      1.321      1.715
REMARK  Name = 
REMARK  9 active torsions:
REMARK  status: ('A' for Active; 'I' for Inactive)
REMARK    1  A    between atoms: C_1  and  C_2
REMARK    2  A    between atoms: C_2  and  O_3
REMARK    3  A    between atoms: O_3  and  C_4
REMARK    4  A    between atoms: C_4  and  C_6
REMARK    5  A    between atoms: C_7  and  C_8
REMARK    6  A    between atoms: C_12  and  C_13
REMARK    7  A    between atoms: N_16  and  C_17
REMARK    8  A    between atoms: N_16  and  C_18
REMARK    9  A    between atoms: C_18  and  C_19
REMARK                            x       y       z     vdW  Elec       q    Type
REMARK                         _______ _______ _______ _____ _____    ______ ____
ROOT
ATOM      1  C   UNL     1       2.967   3.384  19.849  0.00  0.00    +0.000 A 
ATOM      2  C   UNL     1       2.000   3.454  20.843  0.00  0.00    +0.000 A 
ATOM      3  C   UNL     1       1.413   2.479  21.789  0.00  0.00    +0.000 C 
ATOM      4  O   UNL     1       1.546   4.724  20.956  0.00  0.00    +0.000 OA
ATOM      5  C   UNL     1       2.150   5.466  19.991  0.00  0.00    +0.000 A 
ATOM      6  N   UNL     1       1.889   6.769  19.858  0.00  0.00    +0.000 NA
ATOM      7  C   UNL     1       2.541   7.307  18.829  0.00  0.00    +0.000 A 
ATOM      8  C   UNL     1       2.282   8.754  18.544  0.00  0.00    +0.000 C 
ATOM      9  N   UNL     1       3.350   6.652  17.972  0.00  0.00    +0.000 NA
ATOM     10  C   UNL     1       3.531   5.303  18.060  0.00  0.00    +0.000 A 
ATOM     11  N   UNL     1       4.119   4.676  16.974  0.00  0.00    +0.000 N 
ATOM     12  C   UNL     1       3.803   3.308  16.635  0.00  0.00    +0.000 C 
ATOM     13  C   UNL     1       2.975   4.673  19.203  0.00  0.00    +0.000 A 
ENDROOT
BRANCH   1  14
ATOM     14  C   UNL     1       3.764   2.202  19.609  0.00  0.00    +0.000 C 
ATOM     15  O   UNL     1       3.535   1.389  18.726  0.00  0.00    +0.000 OA
BRANCH  14  16
ATOM     16  O   UNL     1       4.788   2.105  20.499  0.00  0.00    +0.000 OA
BRANCH  16  18
ATOM     17  C   UNL     1       5.840   0.663  22.106  0.00  0.00    +0.000 C 
ATOM     18  C   UNL     1       5.412   0.822  20.662  0.00  0.00    +0.000 C 
ENDBRANCH  16  18
ENDBRANCH  14  16
ENDBRANCH   1  14
BRANCH  11  19
ATOM     19  C   UNL     1       5.175   5.345  16.219  0.00  0.00    +0.000 C 
BRANCH  19  20
ATOM     20  C   UNL     1       6.324   5.894  17.049  0.00  0.00    +0.000 A 
ATOM     21  C   UNL     1       6.725   7.229  16.882  0.00  0.00    +0.000 A 
ATOM     22  C   UNL     1       7.692   7.803  17.716  0.00  0.00    +0.000 A 
ATOM     23  C   UNL     1       8.284   7.046  18.722  0.00  0.00    +0.000 A 
ATOM     24  C   UNL     1       7.914   5.711  18.889  0.00  0.00    +0.000 A 
ATOM     25  C   UNL     1       6.942   5.139  18.059  0.00  0.00    +0.000 A 
ENDBRANCH  19  20
ENDBRANCH  11  19
TORSDOF 5
ENDMDL
MODEL 6
REMARK VINA RESULT:      -6.8      1.813      2.915
REMARK  Name = 
REMARK  9 active torsions:
REMARK  status: ('A' for Active; 'I' for Inactive)
REMARK    1  A    between atoms: C_1  and  C_2
REMARK    2  A    between atoms: C_2  and  O_3
REMARK    3  A    between atoms: O_3  and  C_4
REMARK    4  A    between atoms: C_4  and  C_6
REMARK    5  A    between atoms: C_7  and  C_8
REMARK    6  A    between atoms: C_12  and  C_13
REMARK    7  A    between atoms: N_16  and  C_17
REMARK    8  A    between atoms: N_16  and  C_18
REMARK    9  A    between atoms: C_18  and  C_19
REMARK                            x       y       z     vdW  Elec       q    Type
REMARK                         _______ _______ _______ _____ _____    ______ ____
ROOT
ATOM      1  C   UNL     1       3.490   4.378  19.750  0.00  0.00    +0.000 A 
ATOM      2  C   UNL     1       2.519   4.470  20.738  0.00  0.00    +0.000 A 
ATOM      3  C   UNL     1       2.052   3.573  21.820  0.00  0.00    +0.000 C 
ATOM      4  O   UNL     1       1.913   5.678  20.680  0.00  0.00    +0.000 OA
ATOM      5  C   UNL     1       2.425   6.345  19.612  0.00  0.00    +0.000 A 
ATOM      6  N   UNL     1       2.008   7.575  19.302  0.00  0.00    +0.000 NA
ATOM      7  C   UNL     1       2.592   8.038  18.199  0.00  0.00    +0.000 A 
ATOM      8  C   UNL     1       2.160   9.389  17.718  0.00  0.00    +0.000 C 
ATOM      9  N   UNL     1       3.478   7.372  17.430  0.00  0.00    +0.000 NA
ATOM     10  C   UNL     1       3.821   6.080  17.703  0.00  0.00    +0.000 A 
ATOM     11  N   UNL     1       4.484   5.383  16.707  0.00  0.00    +0.000 N 
ATOM     12  C   UNL     1       4.338   3.953  16.567  0.00  0.00    +0.000 C 
ATOM     13  C   UNL     1       3.342   5.554  18.931  0.00  0.00    +0.000 A 
ENDROOT
BRANCH   1  14
ATOM     14  C   UNL     1       4.426   3.279  19.667  0.00  0.00    +0.000 C 
ATOM     15  O   UNL     1       5.632   3.416  19.524  0.00  0.00    +0.000 OA
BRANCH  14  16
ATOM     16  O   UNL     1       3.792   2.079  19.755  0.00  0.00    +0.000 OA
BRANCH  16  18
ATOM     17  C   UNL     1       1.851   1.821  18.365  0.00  0.00    +0.000 C 
ATOM     18  C   UNL     1       3.317   1.483  18.539  0.00  0.00    +0.000 C 
ENDBRANCH  16  18
ENDBRANCH  14  16
ENDBRANCH   1  14
BRANCH  11  19
ATOM     19  C   UNL     1       5.453   6.062  15.851  0.00  0.00    +0.000 C 
BRANCH  19  20
ATOM     20  C   UNL     1       5.983   5.241  14.686  0.00  0.00    +0.000 A 
ATOM     21  C   UNL     1       5.123   4.357  14.012  0.00  0.00    +0.000 A 
ATOM     22  C   UNL     1       5.541   3.681  12.861  0.00  0.00    +0.000 A 
ATOM     23  C   UNL     1       6.829   3.867  12.370  0.00  0.00    +0.000 A 
ATOM     24  C   UNL     1       7.705   4.724  13.038  0.00  0.00    +0.000 A 
ATOM     25  C   UNL     1       7.285   5.406  14.187  0.00  0.00    +0.000 A 
ENDBRANCH  19  20
ENDBRANCH  11  19
TORSDOF 5
ENDMDL
MODEL 7
REMARK VINA RESULT:      -6.8      1.687      5.008
REMARK  Name = 
REMARK  9 active torsions:
REMARK  status: ('A' for Active; 'I' for Inactive)
REMARK    1  A    between atoms: C_1  and  C_2
REMARK    2  A    between atoms: C_2  and  O_3
REMARK    3  A    between atoms: O_3  and  C_4
REMARK    4  A    between atoms: C_4  and  C_6
REMARK    5  A    between atoms: C_7  and  C_8
REMARK    6  A    between atoms: C_12  and  C_13
REMARK    7  A    between atoms: N_16  and  C_17
REMARK    8  A    between atoms: N_16  and  C_18
REMARK    9  A    between atoms: C_18  and  C_19
REMARK                            x       y       z     vdW  Elec       q    Type
REMARK                         _______ _______ _______ _____ _____    ______ ____
ROOT
ATOM      1  C   UNL     1       3.537   4.260  18.756  0.00  0.00    +0.000 A 
ATOM      2  C   UNL     1       4.447   3.293  19.160  0.00  0.00    +0.000 A 
ATOM      3  C   UNL     1       4.330   1.945  19.761  0.00  0.00    +0.000 C 
ATOM      4  O   UNL     1       5.708   3.708  18.897  0.00  0.00    +0.000 OA
ATOM      5  C   UNL     1       5.632   4.969  18.398  0.00  0.00    +0.000 A 
ATOM      6  N   UNL     1       6.732   5.641  18.049  0.00  0.00    +0.000 NA
ATOM      7  C   UNL     1       6.454   6.873  17.629  0.00  0.00    +0.000 A 
ATOM      8  C   UNL     1       7.616   7.745  17.264  0.00  0.00    +0.000 C 
ATOM      9  N   UNL     1       5.229   7.437  17.577  0.00  0.00    +0.000 NA
ATOM     10  C   UNL     1       4.126   6.775  18.029  0.00  0.00    +0.000 A 
ATOM     11  N   UNL     1       2.979   7.526  18.225  0.00  0.00    +0.000 N 
ATOM     12  C   UNL     1       2.013   7.172  19.238  0.00  0.00    +0.000 C 
ATOM     13  C   UNL     1       4.315   5.411  18.375  0.00  0.00    +0.000 A 
ENDROOT
BRANCH   1  14
ATOM     14  C   UNL     1       2.108   4.038  18.744  0.00  0.00    +0.000 C 
ATOM     15  O   UNL     1       1.459   3.811  17.733  0.00  0.00    +0.000 OA
BRANCH  14  16
ATOM     16  O   UNL     1       1.580   4.129  19.994  0.00  0.00    +0.000 OA
BRANCH  16  18
ATOM     17  C   UNL     1       1.515   2.614  21.857  0.00  0.00    +0.000 C 
ATOM     18  C   UNL     1       0.904   2.976  20.519  0.00  0.00    +0.000 C 
ENDBRANCH  16  18
ENDBRANCH  14  16
ENDBRANCH   1  14
BRANCH  11  19
ATOM     19  C   UNL     1       2.654   8.625  17.319  0.00  0.00    +0.000 C 
BRANCH  19  20
ATOM     20  C   UNL     1       1.680   9.656  17.867  0.00  0.00    +0.000 A 
ATOM     21  C   UNL     1       0.301   9.392  17.837  0.00  0.00    +0.000 A 
ATOM     22  C   UNL     1      -0.614  10.259  18.445  0.00  0.00    +0.000 A 
ATOM     23  C   UNL     1      -0.166  11.412  19.082  0.00  0.00    +0.000 A 
ATOM     24  C   UNL     1       1.199  11.702  19.104  0.00  0.00    +0.000 A 
ATOM     25  C   UNL     1       2.115  10.831  18.500  0.00  0.00    +0.000 A 
ENDBRANCH  19  20
ENDBRANCH  11  19
TORSDOF 5
ENDMDL
MODEL 8
REMARK VINA RESULT:      -6.7      2.412      5.848
REMARK  Name = 
REMARK  9 active torsions:
REMARK  status: ('A' for Active; 'I' for Inactive)
REMARK    1  A    between atoms: C_1  and  C_2
REMARK    2  A    between atoms: C_2  and  O_3
REMARK    3  A    between atoms: O_3  and  C_4
REMARK    4  A    between atoms: C_4  and  C_6
REMARK    5  A    between atoms: C_7  and  C_8
REMARK    6  A    between atoms: C_12  and  C_13
REMARK    7  A    between atoms: N_16  and  C_17
REMARK    8  A    between atoms: N_16  and  C_18
REMARK    9  A    between atoms: C_18  and  C_19
REMARK                            x       y       z     vdW  Elec       q    Type
REMARK                         _______ _______ _______ _____ _____    ______ ____
ROOT
ATOM      1  C   UNL     1       4.846   5.278  16.906  0.00  0.00    +0.000 A 
ATOM      2  C   UNL     1       5.074   4.266  15.984  0.00  0.00    +0.000 A 
ATOM      3  C   UNL     1       6.071   4.042  14.913  0.00  0.00    +0.000 C 
ATOM      4  O   UNL     1       4.177   3.267  16.163  0.00  0.00    +0.000 OA
ATOM      5  C   UNL     1       3.318   3.656  17.142  0.00  0.00    +0.000 A 
ATOM      6  N   UNL     1       2.316   2.866  17.534  0.00  0.00    +0.000 NA
ATOM      7  C   UNL     1       1.559   3.442  18.466  0.00  0.00    +0.000 A 
ATOM      8  C   UNL     1       0.366   2.672  18.942  0.00  0.00    +0.000 C 
ATOM      9  N   UNL     1       1.721   4.685  18.962  0.00  0.00    +0.000 NA
ATOM     10  C   UNL     1       2.689   5.518  18.484  0.00  0.00    +0.000 A 
ATOM     11  N   UNL     1       2.590   6.856  18.824  0.00  0.00    +0.000 N 
ATOM     12  C   UNL     1       3.081   7.893  17.946  0.00  0.00    +0.000 C 
ATOM     13  C   UNL     1       3.618   4.939  17.581  0.00  0.00    +0.000 A 
ENDROOT
BRANCH   1  14
ATOM     14  C   UNL     1       5.744   6.398  17.081  0.00  0.00    +0.000 C 
ATOM     15  O   UNL     1       6.124   7.120  16.171  0.00  0.00    +0.000 OA
BRANCH  14  16
ATOM     16  O   UNL     1       6.119   6.536  18.381  0.00  0.00    +0.000 OA
BRANCH  16  18
ATOM     17  C   UNL     1       7.986   5.027  18.459  0.00  0.00    +0.000 C 
ATOM     18  C   UNL     1       6.638   5.378  19.053  0.00  0.00    +0.000 C 
ENDBRANCH  16  18
ENDBRANCH  14  16
ENDBRANCH   1  14
BRANCH  11  19
ATOM     19  C   UNL     1       2.102   7.249  20.144  0.00  0.00    +0.000 C 
BRANCH  19  20
ATOM     20  C   UNL     1       1.268   8.519  20.180  0.00  0.00    +0.000 A 
ATOM     21  C   UNL     1       0.989   9.132  21.412  0.00  0.00    +0.000 A 
ATOM     22  C   UNL     1       0.335  10.367  21.473  0.00  0.00    +0.000 A 
ATOM     23  C   UNL     1      -0.066  11.004  20.302  0.00  0.00    +0.000 A 
ATOM     24  C   UNL     1       0.183  10.400  19.069  0.00  0.00    +0.000 A 
ATOM     25  C   UNL     1       0.844   9.167  19.009  0.00  0.00    +0.000 A 
ENDBRANCH  19  20
ENDBRANCH  11  19
TORSDOF 5
ENDMDL
MODEL 9
REMARK VINA RESULT:      -6.6      1.555      4.851
REMARK  Name = 
REMARK  9 active torsions:
REMARK  status: ('A' for Active; 'I' for Inactive)
REMARK    1  A    between atoms: C_1  and  C_2
REMARK    2  A    between atoms: C_2  and  O_3
REMARK    3  A    between atoms: O_3  and  C_4
REMARK    4  A    between atoms: C_4  and  C_6
REMARK    5  A    between atoms: C_7  and  C_8
REMARK    6  A    between atoms: C_12  and  C_13
REMARK    7  A    between atoms: N_16  and  C_17
REMARK    8  A    between atoms: N_16  and  C_18
REMARK    9  A    between atoms: C_18  and  C_19
REMARK                            x       y       z     vdW  Elec       q    Type
REMARK                         _______ _______ _______ _____ _____    ______ ____
ROOT
ATOM      1  C   UNL     1       3.360   4.347  19.613  0.00  0.00    +0.000 A 
ATOM      2  C   UNL     1       4.301   3.412  20.022  0.00  0.00    +0.000 A 
ATOM      3  C   UNL     1       4.261   2.207  20.880  0.00  0.00    +0.000 C 
ATOM      4  O   UNL     1       5.501   3.689  19.460  0.00  0.00    +0.000 OA
ATOM      5  C   UNL     1       5.368   4.841  18.752  0.00  0.00    +0.000 A 
ATOM      6  N   UNL     1       6.401   5.364  18.086  0.00  0.00    +0.000 NA
ATOM      7  C   UNL     1       6.085   6.515  17.496  0.00  0.00    +0.000 A 
ATOM      8  C   UNL     1       7.182   7.227  16.766  0.00  0.00    +0.000 C 
ATOM      9  N   UNL     1       4.891   7.138  17.561  0.00  0.00    +0.000 NA
ATOM     10  C   UNL     1       3.874   6.643  18.324  0.00  0.00    +0.000 A 
ATOM     11  N   UNL     1       2.809   7.491  18.578  0.00  0.00    +0.000 N 
ATOM     12  C   UNL     1       2.044   7.391  19.798  0.00  0.00    +0.000 C 
ATOM     13  C   UNL     1       4.085   5.356  18.884  0.00  0.00    +0.000 A 
ENDROOT
BRANCH   1  14
ATOM     14  C   UNL     1       1.948   4.221  19.904  0.00  0.00    +0.000 C 
ATOM     15  O   UNL     1       1.462   4.375  21.014  0.00  0.00    +0.000 OA
BRANCH  14  16
ATOM     16  O   UNL     1       1.239   3.897  18.790  0.00  0.00    +0.000 OA
BRANCH  16  18
ATOM     17  C   UNL     1       2.150   1.960  17.700  0.00  0.00    +0.000 C 
ATOM     18  C   UNL     1       1.005   2.505  18.528  0.00  0.00    +0.000 C 
ENDBRANCH  16  18
ENDBRANCH  14  16
ENDBRANCH   1  14
BRANCH  11  19
ATOM     19  C   UNL     1       2.350   8.426  17.553  0.00  0.00    +0.000 C 
BRANCH  19  20
ATOM     20  C   UNL     1       1.538   9.605  18.063  0.00  0.00    +0.000 A 
ATOM     21  C   UNL     1       2.189  10.803  18.401  0.00  0.00    +0.000 A 
ATOM     22  C   UNL     1       1.463  11.945  18.752  0.00  0.00    +0.000 A 
ATOM     23  C   UNL     1       0.072  11.906  18.786  0.00  0.00    +0.000 A 
ATOM     24  C   UNL     1      -0.592  10.719  18.475  0.00  0.00    +0.000 A 
ATOM     25  C   UNL     1       0.135   9.578  18.117  0.00  0.00    +0.000 A 
ENDBRANCH  19  20
ENDBRANCH  11  19
TORSDOF 5
ENDMDL
