MODEL 1
REMARK VINA RESULT:      -8.8      0.000      0.000
REMARK  Name = 
REMARK  11 active torsions:
REMARK  status: ('A' for Active; 'I' for Inactive)
REMARK    1  A    between atoms: C_2  and  C_3
REMARK    2  A    between atoms: C_2  and  O_29
REMARK    3  A    between atoms: C_4  and  C_5
REMARK    4  A    between atoms: C_8  and  C_9
REMARK    5  A    between atoms: C_9  and  C_20
REMARK    6  A    between atoms: C_23  and  O_24
REMARK    7  A    between atoms: O_29  and  C_30
REMARK    8  A    between atoms: C_30  and  C_31
REMARK    9  A    between atoms: C_31  and  C_32
REMARK   10  A    between atoms: C_32  and  C_33
REMARK   11  A    between atoms: C_33  and  O_34
REMARK                            x       y       z     vdW  Elec       q    Type
REMARK                         _______ _______ _______ _____ _____    ______ ____
ROOT
ATOM      1  C   UNL     1       3.349   5.830  18.411  0.00  0.00    +0.000 C 
ATOM      2  C   UNL     1       2.902   4.668  18.978  0.00  0.00    +0.000 C 
ATOM      3  C   UNL     1       1.699   4.535  19.930  0.00  0.00    +0.000 C 
ATOM      4  C   UNL     1       0.674   3.542  19.336  0.00  0.00    +0.000 C 
ATOM      5  C   UNL     1       1.312   2.154  19.144  0.00  0.00    +0.000 C 
ATOM      6  C   UNL     1       1.796   1.632  20.507  0.00  0.00    +0.000 C 
ATOM      7  C   UNL     1       2.838   2.593  21.101  0.00  0.00    +0.000 C 
ATOM      8  C   UNL     1       2.205   3.986  21.284  0.00  0.00    +0.000 C 
ATOM      9  C   UNL     1       4.025   2.722  20.131  0.00  0.00    +0.000 C 
ATOM     10  C   UNL     1       3.547   3.277  18.773  0.00  0.00    +0.000 C 
ATOM     11  C   UNL     1       2.504   2.306  18.185  0.00  0.00    +0.000 C 
ENDROOT
BRANCH   1  15
ATOM     12  C   UNL     1       1.339   9.589  19.170  0.00  0.00    +0.000 A 
ATOM     13  C   UNL     1       1.476   8.642  20.191  0.00  0.00    +0.000 A 
ATOM     14  C   UNL     1       2.191   7.456  19.964  0.00  0.00    +0.000 A 
ATOM     15  C   UNL     1       2.673   7.140  18.683  0.00  0.00    +0.000 A 
ATOM     16  C   UNL     1       2.527   8.097  17.674  0.00  0.00    +0.000 A 
ATOM     17  C   UNL     1       1.880   9.326  17.911  0.00  0.00    +0.000 A 
BRANCH  12  19
ATOM     18  C   UNL     1      -0.342  10.940  20.321  0.00  0.00    +0.000 C 
ATOM     19  C   UNL     1       0.692  10.872  19.466  0.00  0.00    +0.000 C 
BRANCH  18  21
ATOM     20  O   UNL     1      -1.429  12.632  21.589  0.00  0.00    +0.000 OA
ATOM     21  C   UNL     1      -1.169  12.158  20.502  0.00  0.00    +0.000 C 
BRANCH  21  22
ATOM     22  O   UNL     1      -1.697  12.543  19.315  0.00  0.00    +0.000 OA
BRANCH  22  23
ATOM     23  C   UNL     1      -2.510  11.565  18.659  0.00  0.00    +0.000 C 
BRANCH  23  24
ATOM     24  C   UNL     1      -2.149  11.432  17.189  0.00  0.00    +0.000 C 
BRANCH  24  25
ATOM     25  C   UNL     1      -2.285   9.980  16.733  0.00  0.00    +0.000 C 
BRANCH  25  26
ATOM     26  C   UNL     1      -3.049   9.860  15.422  0.00  0.00    +0.000 C 
BRANCH  26  27
ATOM     27  O   UNL     1      -3.247  11.152  14.862  0.00  0.00    +0.000 OA
ATOM     28  H   UNL     1      -3.832  11.649  15.460  0.00  0.00    +0.000 HD
ENDBRANCH  26  27
ENDBRANCH  25  26
ENDBRANCH  24  25
ENDBRANCH  23  24
ENDBRANCH  22  23
ENDBRANCH  21  22
ENDBRANCH  18  21
ENDBRANCH  12  19
ENDBRANCH   1  15
BRANCH   1  29
ATOM     29  C   UNL     1       4.547   5.764  17.525  0.00  0.00    +0.000 A 
ATOM     30  C   UNL     1       5.775   6.321  17.919  0.00  0.00    +0.000 A 
ATOM     31  C   UNL     1       6.874   6.325  17.048  0.00  0.00    +0.000 A 
ATOM     32  C   UNL     1       6.757   5.743  15.789  0.00  0.00    +0.000 A 
ATOM     33  C   UNL     1       5.552   5.175  15.387  0.00  0.00    +0.000 A 
ATOM     34  C   UNL     1       4.452   5.190  16.250  0.00  0.00    +0.000 A 
BRANCH  32  35
ATOM     35  O   UNL     1       7.802   5.714  14.912  0.00  0.00    +0.000 OA
ATOM     36  H   UNL     1       7.468   5.905  14.019  0.00  0.00    +0.000 HD
ENDBRANCH  32  35
ENDBRANCH   1  29
TORSDOF 11
ENDMDL
MODEL 2
REMARK VINA RESULT:      -8.7      1.414      2.641
REMARK  Name = 
REMARK  11 active torsions:
REMARK  status: ('A' for Active; 'I' for Inactive)
REMARK    1  A    between atoms: C_2  and  C_3
REMARK    2  A    between atoms: C_2  and  O_29
REMARK    3  A    between atoms: C_4  and  C_5
REMARK    4  A    between atoms: C_8  and  C_9
REMARK    5  A    between atoms: C_9  and  C_20
REMARK    6  A    between atoms: C_23  and  O_24
REMARK    7  A    between atoms: O_29  and  C_30
REMARK    8  A    between atoms: C_30  and  C_31
REMARK    9  A    between atoms: C_31  and  C_32
REMARK   10  A    between atoms: C_32  and  C_33
REMARK   11  A    between atoms: C_33  and  O_34
REMARK                            x       y       z     vdW  Elec       q    Type
REMARK                         _______ _______ _______ _____ _____    ______ ____
ROOT
ATOM      1  C   UNL     1       3.362   5.773  18.377  0.00  0.00    +0.000 C 
ATOM      2  C   UNL     1       2.904   4.645  19.002  0.00  0.00    +0.000 C 
ATOM      3  C   UNL     1       1.701   4.572  19.960  0.00  0.00    +0.000 C 
ATOM      4  C   UNL     1       0.665   3.562  19.417  0.00  0.00    +0.000 C 
ATOM      5  C   UNL     1       1.289   2.160  19.295  0.00  0.00    +0.000 C 
ATOM      6  C   UNL     1       1.769   1.702  20.682  0.00  0.00    +0.000 C 
ATOM      7  C   UNL     1       2.821   2.681  21.226  0.00  0.00    +0.000 C 
ATOM      8  C   UNL     1       2.202   4.087  21.339  0.00  0.00    +0.000 C 
ATOM      9  C   UNL     1       4.009   2.748  20.250  0.00  0.00    +0.000 C 
ATOM     10  C   UNL     1       3.534   3.239  18.866  0.00  0.00    +0.000 C 
ATOM     11  C   UNL     1       2.482   2.250  18.329  0.00  0.00    +0.000 C 
ENDROOT
BRANCH   1  15
ATOM     12  C   UNL     1       1.392   9.586  18.946  0.00  0.00    +0.000 A 
ATOM     13  C   UNL     1       1.489   8.676  20.004  0.00  0.00    +0.000 A 
ATOM     14  C   UNL     1       2.192   7.473  19.839  0.00  0.00    +0.000 A 
ATOM     15  C   UNL     1       2.700   7.101  18.583  0.00  0.00    +0.000 A 
ATOM     16  C   UNL     1       2.593   8.022  17.536  0.00  0.00    +0.000 A 
ATOM     17  C   UNL     1       1.959   9.268  17.711  0.00  0.00    +0.000 A 
BRANCH  12  19
ATOM     18  C   UNL     1      -0.560  11.056  18.984  0.00  0.00    +0.000 C 
ATOM     19  C   UNL     1       0.758  10.888  19.178  0.00  0.00    +0.000 C 
BRANCH  18  21
ATOM     20  O   UNL     1      -0.859  13.316  18.309  0.00  0.00    +0.000 OA
ATOM     21  C   UNL     1      -1.223  12.383  18.995  0.00  0.00    +0.000 C 
BRANCH  21  22
ATOM     22  O   UNL     1      -2.159  12.428  19.974  0.00  0.00    +0.000 OA
BRANCH  22  23
ATOM     23  C   UNL     1      -2.011  13.495  20.916  0.00  0.00    +0.000 C 
BRANCH  23  24
ATOM     24  C   UNL     1      -0.919  13.199  21.930  0.00  0.00    +0.000 C 
BRANCH  24  25
ATOM     25  C   UNL     1      -1.489  12.425  23.118  0.00  0.00    +0.000 C 
BRANCH  25  26
ATOM     26  C   UNL     1      -1.201  10.934  23.022  0.00  0.00    +0.000 C 
BRANCH  26  27
ATOM     27  O   UNL     1       0.180  10.728  22.751  0.00  0.00    +0.000 OA
ATOM     28  H   UNL     1       0.295  10.722  21.785  0.00  0.00    +0.000 HD
ENDBRANCH  26  27
ENDBRANCH  25  26
ENDBRANCH  24  25
ENDBRANCH  23  24
ENDBRANCH  22  23
ENDBRANCH  21  22
ENDBRANCH  18  21
ENDBRANCH  12  19
ENDBRANCH   1  15
BRANCH   1  29
ATOM     29  C   UNL     1       4.558   5.650  17.495  0.00  0.00    +0.000 A 
ATOM     30  C   UNL     1       5.783   6.247  17.841  0.00  0.00    +0.000 A 
ATOM     31  C   UNL     1       6.879   6.194  16.969  0.00  0.00    +0.000 A 
ATOM     32  C   UNL     1       6.765   5.517  15.759  0.00  0.00    +0.000 A 
ATOM     33  C   UNL     1       5.565   4.909  15.405  0.00  0.00    +0.000 A 
ATOM     34  C   UNL     1       4.466   4.979  16.268  0.00  0.00    +0.000 A 
BRANCH  32  35
ATOM     35  O   UNL     1       7.808   5.430  14.883  0.00  0.00    +0.000 OA
ATOM     36  H   UNL     1       8.355   6.229  14.966  0.00  0.00    +0.000 HD
ENDBRANCH  32  35
ENDBRANCH   1  29
TORSDOF 11
ENDMDL
MODEL 3
REMARK VINA RESULT:      -8.6      2.179      4.520
REMARK  Name = 
REMARK  11 active torsions:
REMARK  status: ('A' for Active; 'I' for Inactive)
REMARK    1  A    between atoms: C_2  and  C_3
REMARK    2  A    between atoms: C_2  and  O_29
REMARK    3  A    between atoms: C_4  and  C_5
REMARK    4  A    between atoms: C_8  and  C_9
REMARK    5  A    between atoms: C_9  and  C_20
REMARK    6  A    between atoms: C_23  and  O_24
REMARK    7  A    between atoms: O_29  and  C_30
REMARK    8  A    between atoms: C_30  and  C_31
REMARK    9  A    between atoms: C_31  and  C_32
REMARK   10  A    between atoms: C_32  and  C_33
REMARK   11  A    between atoms: C_33  and  O_34
REMARK                            x       y       z     vdW  Elec       q    Type
REMARK                         _______ _______ _______ _____ _____    ______ ____
ROOT
ATOM      1  C   UNL     1       3.059   5.998  18.892  0.00  0.00    +0.000 C 
ATOM      2  C   UNL     1       4.173   5.744  18.140  0.00  0.00    +0.000 C 
ATOM      3  C   UNL     1       4.886   6.749  17.217  0.00  0.00    +0.000 C 
ATOM      4  C   UNL     1       6.361   6.902  17.654  0.00  0.00    +0.000 C 
ATOM      5  C   UNL     1       7.092   5.550  17.575  0.00  0.00    +0.000 C 
ATOM      6  C   UNL     1       7.041   5.036  16.126  0.00  0.00    +0.000 C 
ATOM      7  C   UNL     1       5.581   4.851  15.683  0.00  0.00    +0.000 C 
ATOM      8  C   UNL     1       4.844   6.201  15.771  0.00  0.00    +0.000 C 
ATOM      9  C   UNL     1       4.885   3.853  16.623  0.00  0.00    +0.000 C 
ATOM     10  C   UNL     1       4.906   4.382  18.073  0.00  0.00    +0.000 C 
ATOM     11  C   UNL     1       6.373   4.562  18.509  0.00  0.00    +0.000 C 
ENDROOT
BRANCH   1  15
ATOM     12  C   UNL     1       1.219   9.917  18.877  0.00  0.00    +0.000 A 
ATOM     13  C   UNL     1       1.724   9.369  17.693  0.00  0.00    +0.000 A 
ATOM     14  C   UNL     1       2.253   8.070  17.685  0.00  0.00    +0.000 A 
ATOM     15  C   UNL     1       2.402   7.345  18.879  0.00  0.00    +0.000 A 
ATOM     16  C   UNL     1       1.893   7.908  20.053  0.00  0.00    +0.000 A 
ATOM     17  C   UNL     1       1.287   9.180  20.060  0.00  0.00    +0.000 A 
BRANCH  12  19
ATOM     18  C   UNL     1      -0.648  11.408  19.393  0.00  0.00    +0.000 C 
ATOM     19  C   UNL     1       0.561  11.227  18.836  0.00  0.00    +0.000 C 
BRANCH  18  21
ATOM     20  O   UNL     1      -1.428  13.577  19.974  0.00  0.00    +0.000 OA
ATOM     21  C   UNL     1      -1.455  12.638  19.205  0.00  0.00    +0.000 C 
BRANCH  21  22
ATOM     22  O   UNL     1      -2.311  12.479  18.168  0.00  0.00    +0.000 OA
BRANCH  22  23
ATOM     23  C   UNL     1      -3.192  11.356  18.265  0.00  0.00    +0.000 C 
BRANCH  23  24
ATOM     24  C   UNL     1      -3.843  11.038  16.929  0.00  0.00    +0.000 C 
BRANCH  24  25
ATOM     25  C   UNL     1      -2.780  10.738  15.873  0.00  0.00    +0.000 C 
BRANCH  25  26
ATOM     26  C   UNL     1      -3.299   9.812  14.783  0.00  0.00    +0.000 C 
BRANCH  26  27
ATOM     27  O   UNL     1      -2.619  10.082  13.563  0.00  0.00    +0.000 OA
ATOM     28  H   UNL     1      -1.664  10.021  13.734  0.00  0.00    +0.000 HD
ENDBRANCH  26  27
ENDBRANCH  25  26
ENDBRANCH  24  25
ENDBRANCH  23  24
ENDBRANCH  22  23
ENDBRANCH  21  22
ENDBRANCH  18  21
ENDBRANCH  12  19
ENDBRANCH   1  15
BRANCH   1  29
ATOM     29  C   UNL     1       2.499   4.888  19.714  0.00  0.00    +0.000 A 
ATOM     30  C   UNL     1       1.483   4.053  19.216  0.00  0.00    +0.000 A 
ATOM     31  C   UNL     1       0.907   3.063  20.024  0.00  0.00    +0.000 A 
ATOM     32  C   UNL     1       1.365   2.883  21.325  0.00  0.00    +0.000 A 
ATOM     33  C   UNL     1       2.378   3.691  21.831  0.00  0.00    +0.000 A 
ATOM     34  C   UNL     1       2.939   4.691  21.030  0.00  0.00    +0.000 A 
BRANCH  32  35
ATOM     35  O   UNL     1       0.842   1.926  22.145  0.00  0.00    +0.000 OA
ATOM     36  H   UNL     1       1.444   1.164  22.164  0.00  0.00    +0.000 HD
ENDBRANCH  32  35
ENDBRANCH   1  29
TORSDOF 11
ENDMDL
MODEL 4
REMARK VINA RESULT:      -8.6      2.741      5.309
REMARK  Name = 
REMARK  11 active torsions:
REMARK  status: ('A' for Active; 'I' for Inactive)
REMARK    1  A    between atoms: C_2  and  C_3
REMARK    2  A    between atoms: C_2  and  O_29
REMARK    3  A    between atoms: C_4  and  C_5
REMARK    4  A    between atoms: C_8  and  C_9
REMARK    5  A    between atoms: C_9  and  C_20
REMARK    6  A    between atoms: C_23  and  O_24
REMARK    7  A    between atoms: O_29  and  C_30
REMARK    8  A    between atoms: C_30  and  C_31
REMARK    9  A    between atoms: C_31  and  C_32
REMARK   10  A    between atoms: C_32  and  C_33
REMARK   11  A    between atoms: C_33  and  O_34
REMARK                            x       y       z     vdW  Elec       q    Type
REMARK                         _______ _______ _______ _____ _____    ______ ____
ROOT
ATOM      1  C   UNL     1       3.069   6.191  18.749  0.00  0.00    +0.000 C 
ATOM      2  C   UNL     1       4.177   5.943  17.986  0.00  0.00    +0.000 C 
ATOM      3  C   UNL     1       4.907   6.967  17.098  0.00  0.00    +0.000 C 
ATOM      4  C   UNL     1       6.384   7.076  17.538  0.00  0.00    +0.000 C 
ATOM      5  C   UNL     1       7.090   5.715  17.409  0.00  0.00    +0.000 C 
ATOM      6  C   UNL     1       7.028   5.253  15.944  0.00  0.00    +0.000 C 
ATOM      7  C   UNL     1       5.564   5.112  15.497  0.00  0.00    +0.000 C 
ATOM      8  C   UNL     1       4.853   6.472  15.634  0.00  0.00    +0.000 C 
ATOM      9  C   UNL     1       4.850   4.094  16.403  0.00  0.00    +0.000 C 
ATOM     10  C   UNL     1       4.883   4.571  17.870  0.00  0.00    +0.000 C 
ATOM     11  C   UNL     1       6.354   4.708  18.309  0.00  0.00    +0.000 C 
ENDROOT
BRANCH   1  15
ATOM     12  C   UNL     1       1.188  10.091  18.825  0.00  0.00    +0.000 A 
ATOM     13  C   UNL     1       1.157   9.269  19.957  0.00  0.00    +0.000 A 
ATOM     14  C   UNL     1       1.830   8.038  19.956  0.00  0.00    +0.000 A 
ATOM     15  C   UNL     1       2.437   7.550  18.786  0.00  0.00    +0.000 A 
ATOM     16  C   UNL     1       2.458   8.384  17.664  0.00  0.00    +0.000 A 
ATOM     17  C   UNL     1       1.854   9.657  17.679  0.00  0.00    +0.000 A 
BRANCH  12  19
ATOM     18  C   UNL     1       0.398  12.038  20.073  0.00  0.00    +0.000 C 
ATOM     19  C   UNL     1       0.582  11.425  18.892  0.00  0.00    +0.000 C 
BRANCH  18  21
ATOM     20  O   UNL     1      -0.142  14.312  19.635  0.00  0.00    +0.000 OA
ATOM     21  C   UNL     1      -0.393  13.283  20.229  0.00  0.00    +0.000 C 
BRANCH  21  22
ATOM     22  O   UNL     1      -1.303  13.135  21.221  0.00  0.00    +0.000 OA
BRANCH  22  23
ATOM     23  C   UNL     1      -0.814  12.513  22.415  0.00  0.00    +0.000 C 
BRANCH  23  24
ATOM     24  C   UNL     1      -1.876  11.643  23.067  0.00  0.00    +0.000 C 
BRANCH  24  25
ATOM     25  C   UNL     1      -3.255  12.287  22.929  0.00  0.00    +0.000 C 
BRANCH  25  26
ATOM     26  C   UNL     1      -3.816  12.732  24.272  0.00  0.00    +0.000 C 
BRANCH  26  27
ATOM     27  O   UNL     1      -4.804  11.807  24.708  0.00  0.00    +0.000 OA
ATOM     28  H   UNL     1      -4.738  11.736  25.676  0.00  0.00    +0.000 HD
ENDBRANCH  26  27
ENDBRANCH  25  26
ENDBRANCH  24  25
ENDBRANCH  23  24
ENDBRANCH  22  23
ENDBRANCH  21  22
ENDBRANCH  18  21
ENDBRANCH  12  19
ENDBRANCH   1  15
BRANCH   1  29
ATOM     29  C   UNL     1       2.488   5.063  19.533  0.00  0.00    +0.000 A 
ATOM     30  C   UNL     1       1.492   4.235  18.989  0.00  0.00    +0.000 A 
ATOM     31  C   UNL     1       0.895   3.227  19.760  0.00  0.00    +0.000 A 
ATOM     32  C   UNL     1       1.316   3.024  21.071  0.00  0.00    +0.000 A 
ATOM     33  C   UNL     1       2.310   3.826  21.622  0.00  0.00    +0.000 A 
ATOM     34  C   UNL     1       2.890   4.843  20.857  0.00  0.00    +0.000 A 
BRANCH  32  35
ATOM     35  O   UNL     1       0.772   2.049  21.856  0.00  0.00    +0.000 OA
ATOM     36  H   UNL     1       1.432   1.349  21.991  0.00  0.00    +0.000 HD
ENDBRANCH  32  35
ENDBRANCH   1  29
TORSDOF 11
ENDMDL
MODEL 5
REMARK VINA RESULT:      -8.6      2.754      5.301
REMARK  Name = 
REMARK  11 active torsions:
REMARK  status: ('A' for Active; 'I' for Inactive)
REMARK    1  A    between atoms: C_2  and  C_3
REMARK    2  A    between atoms: C_2  and  O_29
REMARK    3  A    between atoms: C_4  and  C_5
REMARK    4  A    between atoms: C_8  and  C_9
REMARK    5  A    between atoms: C_9  and  C_20
REMARK    6  A    between atoms: C_23  and  O_24
REMARK    7  A    between atoms: O_29  and  C_30
REMARK    8  A    between atoms: C_30  and  C_31
REMARK    9  A    between atoms: C_31  and  C_32
REMARK   10  A    between atoms: C_32  and  C_33
REMARK   11  A    between atoms: C_33  and  O_34
REMARK                            x       y       z     vdW  Elec       q    Type
REMARK                         _______ _______ _______ _____ _____    ______ ____
ROOT
ATOM      1  C   UNL     1       3.087   6.121  18.794  0.00  0.00    +0.000 C 
ATOM      2  C   UNL     1       4.203   5.856  18.049  0.00  0.00    +0.000 C 
ATOM      3  C   UNL     1       4.925   6.853  17.123  0.00  0.00    +0.000 C 
ATOM      4  C   UNL     1       6.398   7.000  17.566  0.00  0.00    +0.000 C 
ATOM      5  C   UNL     1       7.123   5.644  17.498  0.00  0.00    +0.000 C 
ATOM      6  C   UNL     1       7.076   5.121  16.053  0.00  0.00    +0.000 C 
ATOM      7  C   UNL     1       5.617   4.941  15.604  0.00  0.00    +0.000 C 
ATOM      8  C   UNL     1       4.887   6.296  15.681  0.00  0.00    +0.000 C 
ATOM      9  C   UNL     1       4.911   3.953  16.548  0.00  0.00    +0.000 C 
ATOM     10  C   UNL     1       4.928   4.491  17.994  0.00  0.00    +0.000 C 
ATOM     11  C   UNL     1       6.394   4.666  18.435  0.00  0.00    +0.000 C 
ENDROOT
BRANCH   1  15
ATOM     12  C   UNL     1       1.264  10.048  18.753  0.00  0.00    +0.000 A 
ATOM     13  C   UNL     1       1.881   9.544  17.603  0.00  0.00    +0.000 A 
ATOM     14  C   UNL     1       2.406   8.242  17.596  0.00  0.00    +0.000 A 
ATOM     15  C   UNL     1       2.436   7.471  18.770  0.00  0.00    +0.000 A 
ATOM     16  C   UNL     1       1.816   7.991  19.910  0.00  0.00    +0.000 A 
ATOM     17  C   UNL     1       1.214   9.265  19.907  0.00  0.00    +0.000 A 
BRANCH  12  19
ATOM     18  C   UNL     1       0.982  12.345  19.538  0.00  0.00    +0.000 C 
ATOM     19  C   UNL     1       0.616  11.363  18.699  0.00  0.00    +0.000 C 
BRANCH  18  21
ATOM     20  O   UNL     1       0.101  14.418  18.776  0.00  0.00    +0.000 OA
ATOM     21  C   UNL     1       0.233  13.617  19.679  0.00  0.00    +0.000 C 
BRANCH  21  22
ATOM     22  O   UNL     1      -0.127  13.805  20.971  0.00  0.00    +0.000 OA
BRANCH  22  23
ATOM     23  C   UNL     1      -1.172  12.950  21.448  0.00  0.00    +0.000 C 
BRANCH  23  24
ATOM     24  C   UNL     1      -0.946  12.544  22.895  0.00  0.00    +0.000 C 
BRANCH  24  25
ATOM     25  C   UNL     1      -1.557  11.170  23.166  0.00  0.00    +0.000 C 
BRANCH  25  26
ATOM     26  C   UNL     1      -0.606  10.038  22.804  0.00  0.00    +0.000 C 
BRANCH  26  27
ATOM     27  O   UNL     1       0.243   9.754  23.909  0.00  0.00    +0.000 OA
ATOM     28  H   UNL     1       1.164   9.844  23.608  0.00  0.00    +0.000 HD
ENDBRANCH  26  27
ENDBRANCH  25  26
ENDBRANCH  24  25
ENDBRANCH  23  24
ENDBRANCH  22  23
ENDBRANCH  21  22
ENDBRANCH  18  21
ENDBRANCH  12  19
ENDBRANCH   1  15
BRANCH   1  29
ATOM     29  C   UNL     1       2.517   5.019  19.621  0.00  0.00    +0.000 A 
ATOM     30  C   UNL     1       1.458   4.225  19.146  0.00  0.00    +0.000 A 
ATOM     31  C   UNL     1       0.875   3.244  19.961  0.00  0.00    +0.000 A 
ATOM     32  C   UNL     1       1.371   3.031  21.244  0.00  0.00    +0.000 A 
ATOM     33  C   UNL     1       2.426   3.798  21.726  0.00  0.00    +0.000 A 
ATOM     34  C   UNL     1       2.993   4.790  20.919  0.00  0.00    +0.000 A 
BRANCH  32  35
ATOM     35  O   UNL     1       0.842   2.081  22.069  0.00  0.00    +0.000 OA
ATOM     36  H   UNL     1       1.090   2.288  22.986  0.00  0.00    +0.000 HD
ENDBRANCH  32  35
ENDBRANCH   1  29
TORSDOF 11
ENDMDL
MODEL 6
REMARK VINA RESULT:      -8.6      0.790      1.164
REMARK  Name = 
REMARK  11 active torsions:
REMARK  status: ('A' for Active; 'I' for Inactive)
REMARK    1  A    between atoms: C_2  and  C_3
REMARK    2  A    between atoms: C_2  and  O_29
REMARK    3  A    between atoms: C_4  and  C_5
REMARK    4  A    between atoms: C_8  and  C_9
REMARK    5  A    between atoms: C_9  and  C_20
REMARK    6  A    between atoms: C_23  and  O_24
REMARK    7  A    between atoms: O_29  and  C_30
REMARK    8  A    between atoms: C_30  and  C_31
REMARK    9  A    between atoms: C_31  and  C_32
REMARK   10  A    between atoms: C_32  and  C_33
REMARK   11  A    between atoms: C_33  and  O_34
REMARK                            x       y       z     vdW  Elec       q    Type
REMARK                         _______ _______ _______ _____ _____    ______ ____
ROOT
ATOM      1  C   UNL     1       3.285   5.735  18.329  0.00  0.00    +0.000 C 
ATOM      2  C   UNL     1       2.889   4.584  18.954  0.00  0.00    +0.000 C 
ATOM      3  C   UNL     1       1.725   4.457  19.954  0.00  0.00    +0.000 C 
ATOM      4  C   UNL     1       0.705   3.419  19.435  0.00  0.00    +0.000 C 
ATOM      5  C   UNL     1       1.370   2.041  19.269  0.00  0.00    +0.000 C 
ATOM      6  C   UNL     1       1.917   1.580  20.630  0.00  0.00    +0.000 C 
ATOM      7  C   UNL     1       2.956   2.587  21.150  0.00  0.00    +0.000 C 
ATOM      8  C   UNL     1       2.294   3.970  21.307  0.00  0.00    +0.000 C 
ATOM      9  C   UNL     1       4.103   2.708  20.132  0.00  0.00    +0.000 C 
ATOM     10  C   UNL     1       3.560   3.202  18.774  0.00  0.00    +0.000 C 
ATOM     11  C   UNL     1       2.522   2.185  18.261  0.00  0.00    +0.000 C 
ENDROOT
BRANCH   1  15
ATOM     12  C   UNL     1       1.209   9.468  19.034  0.00  0.00    +0.000 A 
ATOM     13  C   UNL     1       1.479   8.599  20.096  0.00  0.00    +0.000 A 
ATOM     14  C   UNL     1       2.216   7.424  19.878  0.00  0.00    +0.000 A 
ATOM     15  C   UNL     1       2.586   7.037  18.579  0.00  0.00    +0.000 A 
ATOM     16  C   UNL     1       2.308   7.918  17.530  0.00  0.00    +0.000 A 
ATOM     17  C   UNL     1       1.638   9.138  17.748  0.00  0.00    +0.000 A 
BRANCH  12  19
ATOM     18  C   UNL     1      -0.565  11.102  18.637  0.00  0.00    +0.000 C 
ATOM     19  C   UNL     1       0.543  10.747  19.307  0.00  0.00    +0.000 C 
BRANCH  18  21
ATOM     20  O   UNL     1      -0.607  13.404  19.231  0.00  0.00    +0.000 OA
ATOM     21  C   UNL     1      -1.163  12.457  18.712  0.00  0.00    +0.000 C 
BRANCH  21  22
ATOM     22  O   UNL     1      -2.442  12.427  18.269  0.00  0.00    +0.000 OA
BRANCH  22  23
ATOM     23  C   UNL     1      -3.058  11.135  18.257  0.00  0.00    +0.000 C 
BRANCH  23  24
ATOM     24  C   UNL     1      -3.628  10.800  16.889  0.00  0.00    +0.000 C 
BRANCH  24  25
ATOM     25  C   UNL     1      -2.564  10.137  16.014  0.00  0.00    +0.000 C 
BRANCH  25  26
ATOM     26  C   UNL     1      -3.013  10.006  14.566  0.00  0.00    +0.000 C 
BRANCH  26  27
ATOM     27  O   UNL     1      -4.419  10.203  14.480  0.00  0.00    +0.000 OA
ATOM     28  H   UNL     1      -4.781   9.512  13.899  0.00  0.00    +0.000 HD
ENDBRANCH  26  27
ENDBRANCH  25  26
ENDBRANCH  24  25
ENDBRANCH  23  24
ENDBRANCH  22  23
ENDBRANCH  21  22
ENDBRANCH  18  21
ENDBRANCH  12  19
ENDBRANCH   1  15
BRANCH   1  29
ATOM     29  C   UNL     1       4.450   5.665  17.401  0.00  0.00    +0.000 A 
ATOM     30  C   UNL     1       4.389   4.922  16.209  0.00  0.00    +0.000 A 
ATOM     31  C   UNL     1       5.515   4.797  15.383  0.00  0.00    +0.000 A 
ATOM     32  C   UNL     1       6.699   5.440  15.730  0.00  0.00    +0.000 A 
ATOM     33  C   UNL     1       6.775   6.190  16.900  0.00  0.00    +0.000 A 
ATOM     34  C   UNL     1       5.656   6.297  17.732  0.00  0.00    +0.000 A 
BRANCH  32  35
ATOM     35  O   UNL     1       7.817   5.355  14.952  0.00  0.00    +0.000 OA
ATOM     36  H   UNL     1       8.492   5.959  15.305  0.00  0.00    +0.000 HD
ENDBRANCH  32  35
ENDBRANCH   1  29
TORSDOF 11
ENDMDL
MODEL 7
REMARK VINA RESULT:      -8.6      1.097      1.324
REMARK  Name = 
REMARK  11 active torsions:
REMARK  status: ('A' for Active; 'I' for Inactive)
REMARK    1  A    between atoms: C_2  and  C_3
REMARK    2  A    between atoms: C_2  and  O_29
REMARK    3  A    between atoms: C_4  and  C_5
REMARK    4  A    between atoms: C_8  and  C_9
REMARK    5  A    between atoms: C_9  and  C_20
REMARK    6  A    between atoms: C_23  and  O_24
REMARK    7  A    between atoms: O_29  and  C_30
REMARK    8  A    between atoms: C_30  and  C_31
REMARK    9  A    between atoms: C_31  and  C_32
REMARK   10  A    between atoms: C_32  and  C_33
REMARK   11  A    between atoms: C_33  and  O_34
REMARK                            x       y       z     vdW  Elec       q    Type
REMARK                         _______ _______ _______ _____ _____    ______ ____
ROOT
ATOM      1  C   UNL     1       3.373   5.710  18.388  0.00  0.00    +0.000 C 
ATOM      2  C   UNL     1       2.926   4.578  19.013  0.00  0.00    +0.000 C 
ATOM      3  C   UNL     1       1.726   4.493  19.975  0.00  0.00    +0.000 C 
ATOM      4  C   UNL     1       0.697   3.475  19.435  0.00  0.00    +0.000 C 
ATOM      5  C   UNL     1       1.331   2.079  19.308  0.00  0.00    +0.000 C 
ATOM      6  C   UNL     1       1.821   1.622  20.693  0.00  0.00    +0.000 C 
ATOM      7  C   UNL     1       2.867   2.609  21.234  0.00  0.00    +0.000 C 
ATOM      8  C   UNL     1       2.237   4.010  21.352  0.00  0.00    +0.000 C 
ATOM      9  C   UNL     1       4.050   2.687  20.254  0.00  0.00    +0.000 C 
ATOM     10  C   UNL     1       3.567   3.176  18.873  0.00  0.00    +0.000 C 
ATOM     11  C   UNL     1       2.520   2.180  18.337  0.00  0.00    +0.000 C 
ENDROOT
BRANCH   1  15
ATOM     12  C   UNL     1       1.374   9.506  18.972  0.00  0.00    +0.000 A 
ATOM     13  C   UNL     1       1.498   8.603  20.033  0.00  0.00    +0.000 A 
ATOM     14  C   UNL     1       2.210   7.405  19.862  0.00  0.00    +0.000 A 
ATOM     15  C   UNL     1       2.701   7.033  18.599  0.00  0.00    +0.000 A 
ATOM     16  C   UNL     1       2.567   7.947  17.550  0.00  0.00    +0.000 A 
ATOM     17  C   UNL     1       1.923   9.187  17.729  0.00  0.00    +0.000 A 
BRANCH  12  19
ATOM     18  C   UNL     1      -0.607  10.909  19.256  0.00  0.00    +0.000 C 
ATOM     19  C   UNL     1       0.731  10.803  19.208  0.00  0.00    +0.000 C 
BRANCH  18  21
ATOM     20  O   UNL     1      -1.111  13.070  20.110  0.00  0.00    +0.000 OA
ATOM     21  C   UNL     1      -1.320  12.209  19.280  0.00  0.00    +0.000 C 
BRANCH  21  22
ATOM     22  O   UNL     1      -2.315  12.211  18.360  0.00  0.00    +0.000 OA
BRANCH  22  23
ATOM     23  C   UNL     1      -2.345  11.079  17.486  0.00  0.00    +0.000 C 
BRANCH  23  24
ATOM     24  C   UNL     1      -3.744  10.496  17.372  0.00  0.00    +0.000 C 
BRANCH  24  25
ATOM     25  C   UNL     1      -4.690  11.502  16.716  0.00  0.00    +0.000 C 
BRANCH  25  26
ATOM     26  C   UNL     1      -5.783  11.966  17.668  0.00  0.00    +0.000 C 
BRANCH  26  27
ATOM     27  O   UNL     1      -5.261  12.060  18.988  0.00  0.00    +0.000 OA
ATOM     28  H   UNL     1      -5.340  11.184  19.402  0.00  0.00    +0.000 HD
ENDBRANCH  26  27
ENDBRANCH  25  26
ENDBRANCH  24  25
ENDBRANCH  23  24
ENDBRANCH  22  23
ENDBRANCH  21  22
ENDBRANCH  18  21
ENDBRANCH  12  19
ENDBRANCH   1  15
BRANCH   1  29
ATOM     29  C   UNL     1       4.567   5.598  17.502  0.00  0.00    +0.000 A 
ATOM     30  C   UNL     1       5.783   6.217  17.837  0.00  0.00    +0.000 A 
ATOM     31  C   UNL     1       6.876   6.173  16.960  0.00  0.00    +0.000 A 
ATOM     32  C   UNL     1       6.767   5.484  15.756  0.00  0.00    +0.000 A 
ATOM     33  C   UNL     1       5.574   4.854  15.414  0.00  0.00    +0.000 A 
ATOM     34  C   UNL     1       4.479   4.915  16.281  0.00  0.00    +0.000 A 
BRANCH  32  35
ATOM     35  O   UNL     1       7.807   5.406  14.876  0.00  0.00    +0.000 OA
ATOM     36  H   UNL     1       8.641   5.468  15.369  0.00  0.00    +0.000 HD
ENDBRANCH  32  35
ENDBRANCH   1  29
TORSDOF 11
ENDMDL
MODEL 8
REMARK VINA RESULT:      -8.5      1.513      3.009
REMARK  Name = 
REMARK  11 active torsions:
REMARK  status: ('A' for Active; 'I' for Inactive)
REMARK    1  A    between atoms: C_2  and  C_3
REMARK    2  A    between atoms: C_2  and  O_29
REMARK    3  A    between atoms: C_4  and  C_5
REMARK    4  A    between atoms: C_8  and  C_9
REMARK    5  A    between atoms: C_9  and  C_20
REMARK    6  A    between atoms: C_23  and  O_24
REMARK    7  A    between atoms: O_29  and  C_30
REMARK    8  A    between atoms: C_30  and  C_31
REMARK    9  A    between atoms: C_31  and  C_32
REMARK   10  A    between atoms: C_32  and  C_33
REMARK   11  A    between atoms: C_33  and  O_34
REMARK                            x       y       z     vdW  Elec       q    Type
REMARK                         _______ _______ _______ _____ _____    ______ ____
ROOT
ATOM      1  C   UNL     1       3.352   5.692  18.420  0.00  0.00    +0.000 C 
ATOM      2  C   UNL     1       2.917   4.548  19.032  0.00  0.00    +0.000 C 
ATOM      3  C   UNL     1       1.718   4.440  19.992  0.00  0.00    +0.000 C 
ATOM      4  C   UNL     1       0.701   3.416  19.439  0.00  0.00    +0.000 C 
ATOM      5  C   UNL     1       1.351   2.028  19.299  0.00  0.00    +0.000 C 
ATOM      6  C   UNL     1       1.844   1.562  20.679  0.00  0.00    +0.000 C 
ATOM      7  C   UNL     1       2.879   2.555  21.233  0.00  0.00    +0.000 C 
ATOM      8  C   UNL     1       2.233   3.948  21.365  0.00  0.00    +0.000 C 
ATOM      9  C   UNL     1       4.062   2.658  20.255  0.00  0.00    +0.000 C 
ATOM     10  C   UNL     1       3.575   3.156  18.878  0.00  0.00    +0.000 C 
ATOM     11  C   UNL     1       2.540   2.154  18.331  0.00  0.00    +0.000 C 
ENDROOT
BRANCH   1  15
ATOM     12  C   UNL     1       1.308   9.458  19.043  0.00  0.00    +0.000 A 
ATOM     13  C   UNL     1       1.479   8.562  20.105  0.00  0.00    +0.000 A 
ATOM     14  C   UNL     1       2.205   7.376  19.919  0.00  0.00    +0.000 A 
ATOM     15  C   UNL     1       2.664   7.005  18.644  0.00  0.00    +0.000 A 
ATOM     16  C   UNL     1       2.485   7.911  17.595  0.00  0.00    +0.000 A 
ATOM     17  C   UNL     1       1.826   9.142  17.787  0.00  0.00    +0.000 A 
BRANCH  12  19
ATOM     18  C   UNL     1      -0.626  10.797  19.704  0.00  0.00    +0.000 C 
ATOM     19  C   UNL     1       0.651  10.745  19.292  0.00  0.00    +0.000 C 
BRANCH  18  21
ATOM     20  O   UNL     1      -2.177  12.410  18.900  0.00  0.00    +0.000 OA
ATOM     21  C   UNL     1      -1.409  12.055  19.771  0.00  0.00    +0.000 C 
BRANCH  21  22
ATOM     22  O   UNL     1      -1.022  12.789  20.842  0.00  0.00    +0.000 OA
BRANCH  22  23
ATOM     23  C   UNL     1      -1.388  12.253  22.118  0.00  0.00    +0.000 C 
BRANCH  23  24
ATOM     24  C   UNL     1      -2.889  12.324  22.344  0.00  0.00    +0.000 C 
BRANCH  24  25
ATOM     25  C   UNL     1      -3.194  12.885  23.733  0.00  0.00    +0.000 C 
BRANCH  25  26
ATOM     26  C   UNL     1      -4.682  12.854  24.050  0.00  0.00    +0.000 C 
BRANCH  26  27
ATOM     27  O   UNL     1      -4.920  11.981  25.147  0.00  0.00    +0.000 OA
ATOM     28  H   UNL     1      -4.602  11.096  24.897  0.00  0.00    +0.000 HD
ENDBRANCH  26  27
ENDBRANCH  25  26
ENDBRANCH  24  25
ENDBRANCH  23  24
ENDBRANCH  22  23
ENDBRANCH  21  22
ENDBRANCH  18  21
ENDBRANCH  12  19
ENDBRANCH   1  15
BRANCH   1  29
ATOM     29  C   UNL     1       4.548   5.603  17.534  0.00  0.00    +0.000 A 
ATOM     30  C   UNL     1       5.760   6.224  17.882  0.00  0.00    +0.000 A 
ATOM     31  C   UNL     1       6.855   6.203  17.006  0.00  0.00    +0.000 A 
ATOM     32  C   UNL     1       6.752   5.533  15.791  0.00  0.00    +0.000 A 
ATOM     33  C   UNL     1       5.564   4.902  15.435  0.00  0.00    +0.000 A 
ATOM     34  C   UNL     1       4.467   4.941  16.302  0.00  0.00    +0.000 A 
BRANCH  32  35
ATOM     35  O   UNL     1       7.794   5.477  14.911  0.00  0.00    +0.000 OA
ATOM     36  H   UNL     1       8.333   6.280  15.011  0.00  0.00    +0.000 HD
ENDBRANCH  32  35
ENDBRANCH   1  29
TORSDOF 11
ENDMDL
MODEL 9
REMARK VINA RESULT:      -8.4      1.146      2.073
REMARK  Name = 
REMARK  11 active torsions:
REMARK  status: ('A' for Active; 'I' for Inactive)
REMARK    1  A    between atoms: C_2  and  C_3
REMARK    2  A    between atoms: C_2  and  O_29
REMARK    3  A    between atoms: C_4  and  C_5
REMARK    4  A    between atoms: C_8  and  C_9
REMARK    5  A    between atoms: C_9  and  C_20
REMARK    6  A    between atoms: C_23  and  O_24
REMARK    7  A    between atoms: O_29  and  C_30
REMARK    8  A    between atoms: C_30  and  C_31
REMARK    9  A    between atoms: C_31  and  C_32
REMARK   10  A    between atoms: C_32  and  C_33
REMARK   11  A    between atoms: C_33  and  O_34
REMARK                            x       y       z     vdW  Elec       q    Type
REMARK                         _______ _______ _______ _____ _____    ______ ____
ROOT
ATOM      1  C   UNL     1       3.230   5.782  18.365  0.00  0.00    +0.000 C 
ATOM      2  C   UNL     1       2.861   4.628  18.999  0.00  0.00    +0.000 C 
ATOM      3  C   UNL     1       1.688   4.477  19.986  0.00  0.00    +0.000 C 
ATOM      4  C   UNL     1       0.708   3.401  19.466  0.00  0.00    +0.000 C 
ATOM      5  C   UNL     1       1.418   2.043  19.328  0.00  0.00    +0.000 C 
ATOM      6  C   UNL     1       1.960   1.617  20.703  0.00  0.00    +0.000 C 
ATOM      7  C   UNL     1       2.959   2.663  21.223  0.00  0.00    +0.000 C 
ATOM      8  C   UNL     1       2.253   4.026  21.352  0.00  0.00    +0.000 C 
ATOM      9  C   UNL     1       4.116   2.807  20.219  0.00  0.00    +0.000 C 
ATOM     10  C   UNL     1       3.578   3.265  18.847  0.00  0.00    +0.000 C 
ATOM     11  C   UNL     1       2.579   2.210  18.333  0.00  0.00    +0.000 C 
ENDROOT
BRANCH   1  15
ATOM     12  C   UNL     1       1.144   9.519  19.028  0.00  0.00    +0.000 A 
ATOM     13  C   UNL     1       1.518   9.138  17.735  0.00  0.00    +0.000 A 
ATOM     14  C   UNL     1       2.128   7.894  17.512  0.00  0.00    +0.000 A 
ATOM     15  C   UNL     1       2.488   7.065  18.589  0.00  0.00    +0.000 A 
ATOM     16  C   UNL     1       2.107   7.462  19.874  0.00  0.00    +0.000 A 
ATOM     17  C   UNL     1       1.423   8.672  20.101  0.00  0.00    +0.000 A 
BRANCH  12  19
ATOM     18  C   UNL     1      -0.906  10.844  18.916  0.00  0.00    +0.000 C 
ATOM     19  C   UNL     1       0.400  10.768  19.219  0.00  0.00    +0.000 C 
BRANCH  18  21
ATOM     20  O   UNL     1      -1.521  12.999  19.710  0.00  0.00    +0.000 OA
ATOM     21  C   UNL     1      -1.662  12.119  18.885  0.00  0.00    +0.000 C 
BRANCH  21  22
ATOM     22  O   UNL     1      -2.611  12.075  17.919  0.00  0.00    +0.000 OA
BRANCH  22  23
ATOM     23  C   UNL     1      -3.184  10.785  17.680  0.00  0.00    +0.000 C 
BRANCH  23  24
ATOM     24  C   UNL     1      -4.677  10.775  17.964  0.00  0.00    +0.000 C 
BRANCH  24  25
ATOM     25  C   UNL     1      -5.230  12.199  17.973  0.00  0.00    +0.000 C 
BRANCH  25  26
ATOM     26  C   UNL     1      -5.581  12.668  19.378  0.00  0.00    +0.000 C 
BRANCH  26  27
ATOM     27  O   UNL     1      -4.568  13.543  19.858  0.00  0.00    +0.000 OA
ATOM     28  H   UNL     1      -4.999  14.230  20.396  0.00  0.00    +0.000 HD
ENDBRANCH  26  27
ENDBRANCH  25  26
ENDBRANCH  24  25
ENDBRANCH  23  24
ENDBRANCH  22  23
ENDBRANCH  21  22
ENDBRANCH  18  21
ENDBRANCH  12  19
ENDBRANCH   1  15
BRANCH   1  29
ATOM     29  C   UNL     1       4.410   5.737  17.454  0.00  0.00    +0.000 A 
ATOM     30  C   UNL     1       4.389   4.978  16.272  0.00  0.00    +0.000 A 
ATOM     31  C   UNL     1       5.529   4.877  15.463  0.00  0.00    +0.000 A 
ATOM     32  C   UNL     1       6.688   5.562  15.818  0.00  0.00    +0.000 A 
ATOM     33  C   UNL     1       6.723   6.328  16.978  0.00  0.00    +0.000 A 
ATOM     34  C   UNL     1       5.590   6.412  17.793  0.00  0.00    +0.000 A 
BRANCH  32  35
ATOM     35  O   UNL     1       7.819   5.502  15.056  0.00  0.00    +0.000 OA
ATOM     36  H   UNL     1       8.578   5.775  15.598  0.00  0.00    +0.000 HD
ENDBRANCH  32  35
ENDBRANCH   1  29
TORSDOF 11
ENDMDL
