MODEL 1
REMARK VINA RESULT:      -7.6      0.000      0.000
REMARK  Name = 
REMARK  4 active torsions:
REMARK  status: ('A' for Active; 'I' for Inactive)
REMARK    1  A    between atoms: C_7  and  N_8
REMARK    2  A    between atoms: N_8  and  S_9
REMARK    3  A    between atoms: S_9  and  C_12
REMARK    4  A    between atoms: C_15  and  C_16
REMARK                            x       y       z     vdW  Elec       q    Type
REMARK                         _______ _______ _______ _____ _____    ______ ____
ROOT
ATOM      1  S   UNL     1       4.104   3.839  18.121  0.00  0.00    +0.000 S 
ATOM      2  O   UNL     1       3.163   2.787  17.814  0.00  0.00    +0.000 OA
ATOM      3  O   UNL     1       5.222   3.619  19.003  0.00  0.00    +0.000 OA
ENDROOT
BRANCH   1   4
ATOM      4  C   UNL     1       3.204   5.215  18.789  0.00  0.00    +0.000 A 
ATOM      5  C   UNL     1       2.563   5.099  20.021  0.00  0.00    +0.000 A 
ATOM      6  C   UNL     1       1.927   6.215  20.567  0.00  0.00    +0.000 A 
ATOM      7  C   UNL     1       1.913   7.463  19.910  0.00  0.00    +0.000 A 
ATOM      8  C   UNL     1       2.577   7.548  18.670  0.00  0.00    +0.000 A 
ATOM      9  C   UNL     1       3.227   6.440  18.115  0.00  0.00    +0.000 A 
BRANCH   7  10
ATOM     10  C   UNL     1       1.239   8.629  20.517  0.00  0.00    +0.000 A 
ATOM     11  N   UNL     1       0.860   9.624  19.689  0.00  0.00    +0.000 NA
ATOM     12  C   UNL     1       0.253  10.684  20.249  0.00  0.00    +0.000 A 
ATOM     13  C   UNL     1       0.013  10.791  21.597  0.00  0.00    +0.000 A 
ATOM     14  C   UNL     1       0.435   9.728  22.358  0.00  0.00    +0.000 A 
ATOM     15  N   UNL     1       1.049   8.641  21.852  0.00  0.00    +0.000 NA
ENDBRANCH   7  10
ENDBRANCH   1   4
BRANCH   1  16
ATOM     16  N   UNL     1       4.740   4.454  16.694  0.00  0.00    +0.000 NA
ATOM     17  H   UNL     1       4.004   4.626  16.010  0.00  0.00    +0.000 HD
BRANCH  16  24
ATOM     18  O   UNL     1       7.990   4.425  17.254  0.00  0.00    +0.000 OA
ATOM     19  C   UNL     1       7.254   4.517  16.278  0.00  0.00    +0.000 C 
ATOM     20  N   UNL     1       7.650   5.192  15.161  0.00  0.00    +0.000 N 
ATOM     21  C   UNL     1       7.042   4.873  13.997  0.00  0.00    +0.000 C 
ATOM     22  S   UNL     1       7.624   5.336  12.516  0.00  0.00    +0.000 S 
ATOM     23  S   UNL     1       5.633   3.888  14.286  0.00  0.00    +0.000 S 
ATOM     24  C   UNL     1       5.911   3.824  16.103  0.00  0.00    +0.000 C 
ATOM     25  H   UNL     1       8.547   5.655  15.166  0.00  0.00    +0.000 HD
ENDBRANCH  16  24
ENDBRANCH   1  16
TORSDOF 4
ENDMDL
MODEL 2
REMARK VINA RESULT:      -7.6      0.417      1.089
REMARK  Name = 
REMARK  4 active torsions:
REMARK  status: ('A' for Active; 'I' for Inactive)
REMARK    1  A    between atoms: C_7  and  N_8
REMARK    2  A    between atoms: N_8  and  S_9
REMARK    3  A    between atoms: S_9  and  C_12
REMARK    4  A    between atoms: C_15  and  C_16
REMARK                            x       y       z     vdW  Elec       q    Type
REMARK                         _______ _______ _______ _____ _____    ______ ____
ROOT
ATOM      1  S   UNL     1       3.587   3.979  17.710  0.00  0.00    +0.000 S 
ATOM      2  O   UNL     1       2.487   3.309  17.056  0.00  0.00    +0.000 OA
ATOM      3  O   UNL     1       4.465   3.281  18.615  0.00  0.00    +0.000 OA
ENDROOT
BRANCH   1   4
ATOM      4  C   UNL     1       2.942   5.366  18.608  0.00  0.00    +0.000 A 
ATOM      5  C   UNL     1       2.948   6.635  18.033  0.00  0.00    +0.000 A 
ATOM      6  C   UNL     1       2.365   7.700  18.722  0.00  0.00    +0.000 A 
ATOM      7  C   UNL     1       1.766   7.532  19.988  0.00  0.00    +0.000 A 
ATOM      8  C   UNL     1       1.770   6.235  20.538  0.00  0.00    +0.000 A 
ATOM      9  C   UNL     1       2.343   5.156  19.854  0.00  0.00    +0.000 A 
BRANCH   7  10
ATOM     10  C   UNL     1       1.149   8.676  20.690  0.00  0.00    +0.000 A 
ATOM     11  N   UNL     1       0.924   9.794  19.969  0.00  0.00    +0.000 NA
ATOM     12  C   UNL     1       0.367  10.833  20.615  0.00  0.00    +0.000 A 
ATOM     13  C   UNL     1       0.030  10.801  21.945  0.00  0.00    +0.000 A 
ATOM     14  C   UNL     1       0.296   9.619  22.594  0.00  0.00    +0.000 A 
ATOM     15  N   UNL     1       0.853   8.547  21.999  0.00  0.00    +0.000 NA
ENDBRANCH   7  10
ENDBRANCH   1   4
BRANCH   1  16
ATOM     16  N   UNL     1       4.572   4.696  16.554  0.00  0.00    +0.000 NA
ATOM     17  H   UNL     1       4.017   5.085  15.792  0.00  0.00    +0.000 HD
BRANCH  16  24
ATOM     18  O   UNL     1       7.763   4.523  17.370  0.00  0.00    +0.000 OA
ATOM     19  C   UNL     1       7.111   4.616  16.337  0.00  0.00    +0.000 C 
ATOM     20  N   UNL     1       7.627   5.229  15.233  0.00  0.00    +0.000 N 
ATOM     21  C   UNL     1       7.094   4.899  14.036  0.00  0.00    +0.000 C 
ATOM     22  S   UNL     1       7.813   5.277  12.591  0.00  0.00    +0.000 S 
ATOM     23  S   UNL     1       5.617   3.998  14.244  0.00  0.00    +0.000 S 
ATOM     24  C   UNL     1       5.750   3.986  16.078  0.00  0.00    +0.000 C 
ATOM     25  H   UNL     1       8.545   5.646  15.294  0.00  0.00    +0.000 HD
ENDBRANCH  16  24
ENDBRANCH   1  16
TORSDOF 4
ENDMDL
MODEL 3
REMARK VINA RESULT:      -7.5      0.213      1.420
REMARK  Name = 
REMARK  4 active torsions:
REMARK  status: ('A' for Active; 'I' for Inactive)
REMARK    1  A    between atoms: C_7  and  N_8
REMARK    2  A    between atoms: N_8  and  S_9
REMARK    3  A    between atoms: S_9  and  C_12
REMARK    4  A    between atoms: C_15  and  C_16
REMARK                            x       y       z     vdW  Elec       q    Type
REMARK                         _______ _______ _______ _____ _____    ______ ____
ROOT
ATOM      1  S   UNL     1       3.851   3.934  17.935  0.00  0.00    +0.000 S 
ATOM      2  O   UNL     1       2.775   3.083  17.482  0.00  0.00    +0.000 OA
ATOM      3  O   UNL     1       4.879   3.447  18.819  0.00  0.00    +0.000 OA
ENDROOT
BRANCH   1   4
ATOM      4  C   UNL     1       3.143   5.355  18.726  0.00  0.00    +0.000 A 
ATOM      5  C   UNL     1       3.081   6.572  18.051  0.00  0.00    +0.000 A 
ATOM      6  C   UNL     1       2.450   7.659  18.660  0.00  0.00    +0.000 A 
ATOM      7  C   UNL     1       1.869   7.564  19.941  0.00  0.00    +0.000 A 
ATOM      8  C   UNL     1       1.942   6.317  20.593  0.00  0.00    +0.000 A 
ATOM      9  C   UNL     1       2.564   5.217  19.991  0.00  0.00    +0.000 A 
BRANCH   7  10
ATOM     10  C   UNL     1       1.200   8.729  20.556  0.00  0.00    +0.000 A 
ATOM     11  N   UNL     1       0.935   8.663  21.877  0.00  0.00    +0.000 NA
ATOM     12  C   UNL     1       0.321   9.724  22.428  0.00  0.00    +0.000 A 
ATOM     13  C   UNL     1      -0.039  10.841  21.716  0.00  0.00    +0.000 A 
ATOM     14  C   UNL     1       0.273  10.816  20.378  0.00  0.00    +0.000 A 
ATOM     15  N   UNL     1       0.886   9.781  19.772  0.00  0.00    +0.000 NA
ENDBRANCH   7  10
ENDBRANCH   1   4
BRANCH   1  16
ATOM     16  N   UNL     1       4.641   4.590  16.606  0.00  0.00    +0.000 NA
ATOM     17  H   UNL     1       3.978   4.841  15.874  0.00  0.00    +0.000 HD
BRANCH  16  24
ATOM     18  O   UNL     1       7.857   4.497  17.329  0.00  0.00    +0.000 OA
ATOM     19  C   UNL     1       7.174   4.594  16.317  0.00  0.00    +0.000 C 
ATOM     20  N   UNL     1       7.640   5.249  15.215  0.00  0.00    +0.000 N 
ATOM     21  C   UNL     1       7.084   4.932  14.025  0.00  0.00    +0.000 C 
ATOM     22  S   UNL     1       7.750   5.367  12.571  0.00  0.00    +0.000 S 
ATOM     23  S   UNL     1       5.641   3.981  14.252  0.00  0.00    +0.000 S 
ATOM     24  C   UNL     1       5.826   3.929  16.080  0.00  0.00    +0.000 C 
ATOM     25  H   UNL     1       8.546   5.693  15.262  0.00  0.00    +0.000 HD
ENDBRANCH  16  24
ENDBRANCH   1  16
TORSDOF 4
ENDMDL
MODEL 4
REMARK VINA RESULT:      -7.3      1.277      1.759
REMARK  Name = 
REMARK  4 active torsions:
REMARK  status: ('A' for Active; 'I' for Inactive)
REMARK    1  A    between atoms: C_7  and  N_8
REMARK    2  A    between atoms: N_8  and  S_9
REMARK    3  A    between atoms: S_9  and  C_12
REMARK    4  A    between atoms: C_15  and  C_16
REMARK                            x       y       z     vdW  Elec       q    Type
REMARK                         _______ _______ _______ _____ _____    ______ ____
ROOT
ATOM      1  S   UNL     1       4.223   5.159  18.538  0.00  0.00    +0.000 S 
ATOM      2  O   UNL     1       3.456   3.946  18.699  0.00  0.00    +0.000 OA
ATOM      3  O   UNL     1       5.379   5.435  19.354  0.00  0.00    +0.000 OA
ENDROOT
BRANCH   1   4
ATOM      4  C   UNL     1       3.130   6.541  18.737  0.00  0.00    +0.000 A 
ATOM      5  C   UNL     1       2.433   6.715  19.932  0.00  0.00    +0.000 A 
ATOM      6  C   UNL     1       1.638   7.851  20.099  0.00  0.00    +0.000 A 
ATOM      7  C   UNL     1       1.518   8.833  19.095  0.00  0.00    +0.000 A 
ATOM      8  C   UNL     1       2.241   8.631  17.903  0.00  0.00    +0.000 A 
ATOM      9  C   UNL     1       3.049   7.502  17.725  0.00  0.00    +0.000 A 
BRANCH   7  10
ATOM     10  C   UNL     1       0.676  10.029  19.305  0.00  0.00    +0.000 A 
ATOM     11  N   UNL     1       0.938  10.785  20.391  0.00  0.00    +0.000 NA
ATOM     12  C   UNL     1       0.165  11.869  20.579  0.00  0.00    +0.000 A 
ATOM     13  C   UNL     1      -0.855  12.224  19.731  0.00  0.00    +0.000 A 
ATOM     14  C   UNL     1      -1.044  11.393  18.654  0.00  0.00    +0.000 A 
ATOM     15  N   UNL     1      -0.302  10.294  18.415  0.00  0.00    +0.000 NA
ENDBRANCH   7  10
ENDBRANCH   1   4
BRANCH   1  16
ATOM     16  N   UNL     1       4.726   5.295  16.943  0.00  0.00    +0.000 NA
ATOM     17  H   UNL     1       3.934   5.452  16.321  0.00  0.00    +0.000 HD
BRANCH  16  24
ATOM     18  O   UNL     1       7.891   4.502  17.428  0.00  0.00    +0.000 OA
ATOM     19  C   UNL     1       7.152   4.670  16.465  0.00  0.00    +0.000 C 
ATOM     20  N   UNL     1       7.645   5.095  15.266  0.00  0.00    +0.000 N 
ATOM     21  C   UNL     1       6.916   4.816  14.163  0.00  0.00    +0.000 C 
ATOM     22  S   UNL     1       7.517   4.949  12.625  0.00  0.00    +0.000 S 
ATOM     23  S   UNL     1       5.323   4.260  14.600  0.00  0.00    +0.000 S 
ATOM     24  C   UNL     1       5.671   4.327  16.404  0.00  0.00    +0.000 C 
ATOM     25  H   UNL     1       8.628   5.312  15.196  0.00  0.00    +0.000 HD
ENDBRANCH  16  24
ENDBRANCH   1  16
TORSDOF 4
ENDMDL
MODEL 5
REMARK VINA RESULT:      -7.2      1.059      1.848
REMARK  Name = 
REMARK  4 active torsions:
REMARK  status: ('A' for Active; 'I' for Inactive)
REMARK    1  A    between atoms: C_7  and  N_8
REMARK    2  A    between atoms: N_8  and  S_9
REMARK    3  A    between atoms: S_9  and  C_12
REMARK    4  A    between atoms: C_15  and  C_16
REMARK                            x       y       z     vdW  Elec       q    Type
REMARK                         _______ _______ _______ _____ _____    ______ ____
ROOT
ATOM      1  S   UNL     1       3.974   4.790  18.266  0.00  0.00    +0.000 S 
ATOM      2  O   UNL     1       2.974   3.753  18.165  0.00  0.00    +0.000 OA
ATOM      3  O   UNL     1       5.083   4.684  19.180  0.00  0.00    +0.000 OA
ENDROOT
BRANCH   1   4
ATOM      4  C   UNL     1       3.157   6.318  18.648  0.00  0.00    +0.000 A 
ATOM      5  C   UNL     1       3.154   7.359  17.722  0.00  0.00    +0.000 A 
ATOM      6  C   UNL     1       2.440   8.524  18.008  0.00  0.00    +0.000 A 
ATOM      7  C   UNL     1       1.717   8.682  19.209  0.00  0.00    +0.000 A 
ATOM      8  C   UNL     1       1.734   7.608  20.120  0.00  0.00    +0.000 A 
ATOM      9  C   UNL     1       2.439   6.430  19.842  0.00  0.00    +0.000 A 
BRANCH   7  10
ATOM     10  C   UNL     1       0.963   9.924  19.479  0.00  0.00    +0.000 A 
ATOM     11  N   UNL     1      -0.022   9.860  20.398  0.00  0.00    +0.000 NA
ATOM     12  C   UNL     1      -0.707  10.992  20.635  0.00  0.00    +0.000 A 
ATOM     13  C   UNL     1      -0.452  12.177  19.992  0.00  0.00    +0.000 A 
ATOM     14  C   UNL     1       0.570  12.143  19.074  0.00  0.00    +0.000 A 
ATOM     15  N   UNL     1       1.290  11.039  18.795  0.00  0.00    +0.000 NA
ENDBRANCH   7  10
ENDBRANCH   1   4
BRANCH   1  16
ATOM     16  N   UNL     1       4.635   5.079  16.750  0.00  0.00    +0.000 NA
ATOM     17  H   UNL     1       3.905   5.232  16.056  0.00  0.00    +0.000 HD
BRANCH  16  24
ATOM     18  O   UNL     1       7.840   4.618  17.379  0.00  0.00    +0.000 OA
ATOM     19  C   UNL     1       7.132   4.711  16.384  0.00  0.00    +0.000 C 
ATOM     20  N   UNL     1       7.632   5.188  15.208  0.00  0.00    +0.000 N 
ATOM     21  C   UNL     1       6.986   4.838  14.073  0.00  0.00    +0.000 C 
ATOM     22  S   UNL     1       7.639   5.038  12.564  0.00  0.00    +0.000 S 
ATOM     23  S   UNL     1       5.442   4.118  14.439  0.00  0.00    +0.000 S 
ATOM     24  C   UNL     1       5.699   4.216  16.257  0.00  0.00    +0.000 C 
ATOM     25  H   UNL     1       8.589   5.507  15.182  0.00  0.00    +0.000 HD
ENDBRANCH  16  24
ENDBRANCH   1  16
TORSDOF 4
ENDMDL
MODEL 6
REMARK VINA RESULT:      -7.2      1.806      2.522
REMARK  Name = 
REMARK  4 active torsions:
REMARK  status: ('A' for Active; 'I' for Inactive)
REMARK    1  A    between atoms: C_7  and  N_8
REMARK    2  A    between atoms: N_8  and  S_9
REMARK    3  A    between atoms: S_9  and  C_12
REMARK    4  A    between atoms: C_15  and  C_16
REMARK                            x       y       z     vdW  Elec       q    Type
REMARK                         _______ _______ _______ _____ _____    ______ ____
ROOT
ATOM      1  S   UNL     1       3.340   5.469  18.719  0.00  0.00    +0.000 S 
ATOM      2  O   UNL     1       2.495   4.660  17.872  0.00  0.00    +0.000 OA
ATOM      3  O   UNL     1       3.660   5.072  20.067  0.00  0.00    +0.000 OA
ENDROOT
BRANCH   1   4
ATOM      4  C   UNL     1       2.629   7.091  18.832  0.00  0.00    +0.000 A 
ATOM      5  C   UNL     1       2.660   7.945  17.731  0.00  0.00    +0.000 A 
ATOM      6  C   UNL     1       2.027   9.187  17.813  0.00  0.00    +0.000 A 
ATOM      7  C   UNL     1       1.352   9.606  18.979  0.00  0.00    +0.000 A 
ATOM      8  C   UNL     1       1.334   8.716  20.070  0.00  0.00    +0.000 A 
ATOM      9  C   UNL     1       1.956   7.464  19.999  0.00  0.00    +0.000 A 
BRANCH   7  10
ATOM     10  C   UNL     1       0.683  10.923  19.032  0.00  0.00    +0.000 A 
ATOM     11  N   UNL     1       1.408  11.999  18.665  0.00  0.00    +0.000 NA
ATOM     12  C   UNL     1       0.795  13.194  18.721  0.00  0.00    +0.000 A 
ATOM     13  C   UNL     1      -0.506  13.355  19.130  0.00  0.00    +0.000 A 
ATOM     14  C   UNL     1      -1.162  12.201  19.484  0.00  0.00    +0.000 A 
ATOM     15  N   UNL     1      -0.599  10.978  19.447  0.00  0.00    +0.000 NA
ENDBRANCH   7  10
ENDBRANCH   1   4
BRANCH   1  16
ATOM     16  N   UNL     1       4.804   5.746  17.947  0.00  0.00    +0.000 NA
ATOM     17  H   UNL     1       4.719   6.493  17.259  0.00  0.00    +0.000 HD
BRANCH  16  24
ATOM     18  O   UNL     1       7.843   4.538  18.377  0.00  0.00    +0.000 OA
ATOM     19  C   UNL     1       7.092   4.745  17.431  0.00  0.00    +0.000 C 
ATOM     20  N   UNL     1       7.585   5.011  16.188  0.00  0.00    +0.000 N 
ATOM     21  C   UNL     1       6.774   4.766  15.135  0.00  0.00    +0.000 C 
ATOM     22  S   UNL     1       7.317   4.705  13.570  0.00  0.00    +0.000 S 
ATOM     23  S   UNL     1       5.139   4.478  15.668  0.00  0.00    +0.000 S 
ATOM     24  C   UNL     1       5.576   4.617  17.449  0.00  0.00    +0.000 C 
ATOM     25  H   UNL     1       8.585   5.078  16.066  0.00  0.00    +0.000 HD
ENDBRANCH  16  24
ENDBRANCH   1  16
TORSDOF 4
ENDMDL
MODEL 7
REMARK VINA RESULT:      -7.2      1.887      2.489
REMARK  Name = 
REMARK  4 active torsions:
REMARK  status: ('A' for Active; 'I' for Inactive)
REMARK    1  A    between atoms: C_7  and  N_8
REMARK    2  A    between atoms: N_8  and  S_9
REMARK    3  A    between atoms: S_9  and  C_12
REMARK    4  A    between atoms: C_15  and  C_16
REMARK                            x       y       z     vdW  Elec       q    Type
REMARK                         _______ _______ _______ _____ _____    ______ ____
ROOT
ATOM      1  S   UNL     1       3.150   5.779  18.705  0.00  0.00    +0.000 S 
ATOM      2  O   UNL     1       2.276   5.062  17.807  0.00  0.00    +0.000 OA
ATOM      3  O   UNL     1       3.672   5.167  19.900  0.00  0.00    +0.000 OA
ENDROOT
BRANCH   1   4
ATOM      4  C   UNL     1       2.325   7.261  19.223  0.00  0.00    +0.000 A 
ATOM      5  C   UNL     1       2.084   8.283  18.306  0.00  0.00    +0.000 A 
ATOM      6  C   UNL     1       1.364   9.408  18.713  0.00  0.00    +0.000 A 
ATOM      7  C   UNL     1       0.868   9.544  20.026  0.00  0.00    +0.000 A 
ATOM      8  C   UNL     1       1.122   8.490  20.925  0.00  0.00    +0.000 A 
ATOM      9  C   UNL     1       1.835   7.352  20.529  0.00  0.00    +0.000 A 
BRANCH   7  10
ATOM     10  C   UNL     1       0.101  10.743  20.424  0.00  0.00    +0.000 A 
ATOM     11  N   UNL     1      -0.989  11.050  19.690  0.00  0.00    +0.000 NA
ATOM     12  C   UNL     1      -1.679  12.145  20.055  0.00  0.00    +0.000 A 
ATOM     13  C   UNL     1      -1.324  12.941  21.115  0.00  0.00    +0.000 A 
ATOM     14  C   UNL     1      -0.201  12.547  21.801  0.00  0.00    +0.000 A 
ATOM     15  N   UNL     1       0.529  11.461  21.481  0.00  0.00    +0.000 NA
ENDBRANCH   7  10
ENDBRANCH   1   4
BRANCH   1  16
ATOM     16  N   UNL     1       4.475   6.357  17.852  0.00  0.00    +0.000 NA
ATOM     17  H   UNL     1       4.185   6.794  16.978  0.00  0.00    +0.000 HD
BRANCH  16  24
ATOM     18  O   UNL     1       7.746   6.703  18.104  0.00  0.00    +0.000 OA
ATOM     19  C   UNL     1       6.963   6.179  17.322  0.00  0.00    +0.000 C 
ATOM     20  N   UNL     1       7.276   6.042  16.001  0.00  0.00    +0.000 N 
ATOM     21  C   UNL     1       6.630   5.078  15.308  0.00  0.00    +0.000 C 
ATOM     22  S   UNL     1       7.122   4.555  13.815  0.00  0.00    +0.000 S 
ATOM     23  S   UNL     1       5.283   4.457  16.223  0.00  0.00    +0.000 S 
ATOM     24  C   UNL     1       5.647   5.509  17.687  0.00  0.00    +0.000 C 
ATOM     25  H   UNL     1       8.150   6.422  15.668  0.00  0.00    +0.000 HD
ENDBRANCH  16  24
ENDBRANCH   1  16
TORSDOF 4
ENDMDL
MODEL 8
REMARK VINA RESULT:      -7.1      5.288      8.863
REMARK  Name = 
REMARK  4 active torsions:
REMARK  status: ('A' for Active; 'I' for Inactive)
REMARK    1  A    between atoms: C_7  and  N_8
REMARK    2  A    between atoms: N_8  and  S_9
REMARK    3  A    between atoms: S_9  and  C_12
REMARK    4  A    between atoms: C_15  and  C_16
REMARK                            x       y       z     vdW  Elec       q    Type
REMARK                         _______ _______ _______ _____ _____    ______ ____
ROOT
ATOM      1  S   UNL     1       0.426   9.843  20.698  0.00  0.00    +0.000 S 
ATOM      2  O   UNL     1       1.047  11.147  20.749  0.00  0.00    +0.000 OA
ATOM      3  O   UNL     1       0.067   9.130  21.897  0.00  0.00    +0.000 OA
ENDROOT
BRANCH   1   4
ATOM      4  C   UNL     1       1.481   8.759  19.770  0.00  0.00    +0.000 A 
ATOM      5  C   UNL     1       1.854   7.526  20.299  0.00  0.00    +0.000 A 
ATOM      6  C   UNL     1       2.619   6.653  19.523  0.00  0.00    +0.000 A 
ATOM      7  C   UNL     1       3.027   6.980  18.213  0.00  0.00    +0.000 A 
ATOM      8  C   UNL     1       2.626   8.231  17.705  0.00  0.00    +0.000 A 
ATOM      9  C   UNL     1       1.851   9.113  18.469  0.00  0.00    +0.000 A 
BRANCH   7  10
ATOM     10  C   UNL     1       3.828   6.032  17.412  0.00  0.00    +0.000 A 
ATOM     11  N   UNL     1       3.553   4.719  17.553  0.00  0.00    +0.000 NA
ATOM     12  C   UNL     1       4.290   3.862  16.825  0.00  0.00    +0.000 A 
ATOM     13  C   UNL     1       5.286   4.261  15.969  0.00  0.00    +0.000 A 
ATOM     14  C   UNL     1       5.491   5.618  15.893  0.00  0.00    +0.000 A 
ATOM     15  N   UNL     1       4.785   6.522  16.598  0.00  0.00    +0.000 NA
ENDBRANCH   7  10
ENDBRANCH   1   4
BRANCH   1  16
ATOM     16  N   UNL     1      -0.963   9.922  19.759  0.00  0.00    +0.000 NA
ATOM     17  H   UNL     1      -1.134   9.036  19.283  0.00  0.00    +0.000 HD
BRANCH  16  24
ATOM     18  O   UNL     1      -1.609  13.134  20.135  0.00  0.00    +0.000 OA
ATOM     19  C   UNL     1      -2.011  12.222  19.424  0.00  0.00    +0.000 C 
ATOM     20  N   UNL     1      -3.284  12.224  18.932  0.00  0.00    +0.000 N 
ATOM     21  C   UNL     1      -3.520  11.491  17.822  0.00  0.00    +0.000 C 
ATOM     22  S   UNL     1      -4.893  11.649  16.909  0.00  0.00    +0.000 S 
ATOM     23  S   UNL     1      -2.175  10.435  17.482  0.00  0.00    +0.000 S 
ATOM     24  C   UNL     1      -1.175  11.069  18.888  0.00  0.00    +0.000 C 
ATOM     25  H   UNL     1      -3.907  12.971  19.201  0.00  0.00    +0.000 HD
ENDBRANCH  16  24
ENDBRANCH   1  16
TORSDOF 4
ENDMDL
MODEL 9
REMARK VINA RESULT:      -7.1      1.876      2.432
REMARK  Name = 
REMARK  4 active torsions:
REMARK  status: ('A' for Active; 'I' for Inactive)
REMARK    1  A    between atoms: C_7  and  N_8
REMARK    2  A    between atoms: N_8  and  S_9
REMARK    3  A    between atoms: S_9  and  C_12
REMARK    4  A    between atoms: C_15  and  C_16
REMARK                            x       y       z     vdW  Elec       q    Type
REMARK                         _______ _______ _______ _____ _____    ______ ____
ROOT
ATOM      1  S   UNL     1       3.289   5.325  18.987  0.00  0.00    +0.000 S 
ATOM      2  O   UNL     1       2.591   4.453  18.071  0.00  0.00    +0.000 OA
ATOM      3  O   UNL     1       3.446   4.988  20.379  0.00  0.00    +0.000 OA
ENDROOT
BRANCH   1   4
ATOM      4  C   UNL     1       2.512   6.919  18.943  0.00  0.00    +0.000 A 
ATOM      5  C   UNL     1       1.924   7.441  20.094  0.00  0.00    +0.000 A 
ATOM      6  C   UNL     1       1.386   8.729  20.061  0.00  0.00    +0.000 A 
ATOM      7  C   UNL     1       1.420   9.524  18.896  0.00  0.00    +0.000 A 
ATOM      8  C   UNL     1       2.028   8.969  17.753  0.00  0.00    +0.000 A 
ATOM      9  C   UNL     1       2.580   7.682  17.774  0.00  0.00    +0.000 A 
BRANCH   7  10
ATOM     10  C   UNL     1       0.851  10.887  18.895  0.00  0.00    +0.000 A 
ATOM     11  N   UNL     1       1.694  11.907  18.634  0.00  0.00    +0.000 NA
ATOM     12  C   UNL     1       1.171  13.146  18.640  0.00  0.00    +0.000 A 
ATOM     13  C   UNL     1      -0.152  13.404  18.897  0.00  0.00    +0.000 A 
ATOM     14  C   UNL     1      -0.932  12.301  19.151  0.00  0.00    +0.000 A 
ATOM     15  N   UNL     1      -0.462  11.039  19.159  0.00  0.00    +0.000 NA
ENDBRANCH   7  10
ENDBRANCH   1   4
BRANCH   1  16
ATOM     16  N   UNL     1       4.831   5.635  18.399  0.00  0.00    +0.000 NA
ATOM     17  H   UNL     1       4.832   6.451  17.788  0.00  0.00    +0.000 HD
BRANCH  16  24
ATOM     18  O   UNL     1       7.950   4.591  18.645  0.00  0.00    +0.000 OA
ATOM     19  C   UNL     1       7.130   4.746  17.748  0.00  0.00    +0.000 C 
ATOM     20  N   UNL     1       7.528   5.019  16.472  0.00  0.00    +0.000 N 
ATOM     21  C   UNL     1       6.665   4.718  15.476  0.00  0.00    +0.000 C 
ATOM     22  S   UNL     1       7.110   4.663  13.881  0.00  0.00    +0.000 S 
ATOM     23  S   UNL     1       5.086   4.353  16.117  0.00  0.00    +0.000 S 
ATOM     24  C   UNL     1       5.627   4.540  17.864  0.00  0.00    +0.000 C 
ATOM     25  H   UNL     1       8.513   5.136  16.286  0.00  0.00    +0.000 HD
ENDBRANCH  16  24
ENDBRANCH   1  16
TORSDOF 4
ENDMDL
