MODEL 1
REMARK VINA RESULT:      -7.7      0.000      0.000
REMARK  Name = 
REMARK  10 active torsions:
REMARK  status: ('A' for Active; 'I' for Inactive)
REMARK    1  A    between atoms: C_1  and  O_2
REMARK    2  A    between atoms: O_2  and  C_3
REMARK    3  A    between atoms: C_3  and  C_4
REMARK    4  A    between atoms: C_4  and  N_5
REMARK    5  A    between atoms: C_6  and  C_8
REMARK    6  A    between atoms: N_11  and  S_12
REMARK    7  A    between atoms: S_12  and  C_15
REMARK    8  A    between atoms: C_16  and  C_17
REMARK    9  A    between atoms: C_20  and  C_21
REMARK   10  A    between atoms: C_22  and  C_23
REMARK                            x       y       z     vdW  Elec       q    Type
REMARK                         _______ _______ _______ _____ _____    ______ ____
ROOT
ATOM      1  S   UNL     1       3.395   4.245  18.215  0.00  0.00    +0.000 S 
ATOM      2  O   UNL     1       2.871   5.576  17.987  0.00  0.00    +0.000 OA
ATOM      3  O   UNL     1       2.987   3.132  17.384  0.00  0.00    +0.000 OA
ENDROOT
BRANCH   1   7
ATOM      4  C   UNL     1       7.730   5.712  17.864  0.00  0.00    +0.000 C 
ATOM      5  C   UNL     1       7.189   4.748  16.801  0.00  0.00    +0.000 C 
ATOM      6  C   UNL     1       5.663   4.628  16.811  0.00  0.00    +0.000 C 
ATOM      7  N   UNL     1       5.129   4.336  18.180  0.00  0.00    +0.000 NA
ATOM      8  C   UNL     1       5.647   5.283  19.213  0.00  0.00    +0.000 C 
ATOM      9  C   UNL     1       7.173   5.295  19.224  0.00  0.00    +0.000 C 
BRANCH   4  11
ATOM     10  N   UNL     1       8.260   8.081  18.173  0.00  0.00    +0.000 N 
ATOM     11  C   UNL     1       7.432   7.181  17.538  0.00  0.00    +0.000 C 
ATOM     12  O   UNL     1       6.552   7.528  16.759  0.00  0.00    +0.000 OA
ATOM     13  H   UNL     1       8.891   7.772  18.901  0.00  0.00    +0.000 HD
BRANCH  10  14
ATOM     14  C   UNL     1       8.106   9.521  18.025  0.00  0.00    +0.000 C 
BRANCH  14  15
ATOM     15  C   UNL     1       9.353  10.300  18.455  0.00  0.00    +0.000 C 
BRANCH  15  17
ATOM     16  C   UNL     1      10.251  11.658  20.161  0.00  0.00    +0.000 C 
ATOM     17  O   UNL     1       9.095  10.965  19.698  0.00  0.00    +0.000 OA
ENDBRANCH  15  17
ENDBRANCH  14  15
ENDBRANCH  10  14
ENDBRANCH   4  11
ENDBRANCH   1   7
BRANCH   1  18
ATOM     18  C   UNL     1       2.874   3.875  19.798  0.00  0.00    +0.000 A 
ATOM     19  C   UNL     1       3.334   2.750  20.529  0.00  0.00    +0.000 A 
ATOM     20  C   UNL     1       4.288   1.676  20.166  0.00  0.00    +0.000 C 
ATOM     21  N   UNL     1       2.776   2.716  21.741  0.00  0.00    +0.000 NA
ATOM     22  O   UNL     1       1.986   3.829  21.821  0.00  0.00    +0.000 OA
ATOM     23  C   UNL     1       2.025   4.572  20.653  0.00  0.00    +0.000 A 
BRANCH  23  24
ATOM     24  C   UNL     1       1.263   5.781  20.530  0.00  0.00    +0.000 C 
ATOM     25  C   UNL     1       1.797   6.940  20.958  0.00  0.00    +0.000 C 
BRANCH  25  26
ATOM     26  C   UNL     1       1.108   8.190  20.982  0.00  0.00    +0.000 A 
ATOM     27  C   UNL     1       0.386   8.834  21.974  0.00  0.00    +0.000 A 
ATOM     28  C   UNL     1      -0.083  10.126  21.584  0.00  0.00    +0.000 A 
ATOM     29  C   UNL     1       0.274  10.437  20.293  0.00  0.00    +0.000 A 
ATOM     30  S   UNL     1       1.147   9.171  19.555  0.00  0.00    +0.000 S 
ENDBRANCH  25  26
ENDBRANCH  23  24
ENDBRANCH   1  18
TORSDOF 8
ENDMDL
MODEL 2
REMARK VINA RESULT:      -7.4      2.549      4.158
REMARK  Name = 
REMARK  10 active torsions:
REMARK  status: ('A' for Active; 'I' for Inactive)
REMARK    1  A    between atoms: C_1  and  O_2
REMARK    2  A    between atoms: O_2  and  C_3
REMARK    3  A    between atoms: C_3  and  C_4
REMARK    4  A    between atoms: C_4  and  N_5
REMARK    5  A    between atoms: C_6  and  C_8
REMARK    6  A    between atoms: N_11  and  S_12
REMARK    7  A    between atoms: S_12  and  C_15
REMARK    8  A    between atoms: C_16  and  C_17
REMARK    9  A    between atoms: C_20  and  C_21
REMARK   10  A    between atoms: C_22  and  C_23
REMARK                            x       y       z     vdW  Elec       q    Type
REMARK                         _______ _______ _______ _____ _____    ______ ____
ROOT
ATOM      1  S   UNL     1       2.820   4.578  18.081  0.00  0.00    +0.000 S 
ATOM      2  O   UNL     1       1.691   5.441  17.799  0.00  0.00    +0.000 OA
ATOM      3  O   UNL     1       3.068   3.393  17.287  0.00  0.00    +0.000 OA
ENDROOT
BRANCH   1   7
ATOM      4  C   UNL     1       6.996   6.263  17.187  0.00  0.00    +0.000 C 
ATOM      5  C   UNL     1       6.711   5.699  18.585  0.00  0.00    +0.000 C 
ATOM      6  C   UNL     1       5.441   4.847  18.648  0.00  0.00    +0.000 C 
ATOM      7  N   UNL     1       4.258   5.552  18.059  0.00  0.00    +0.000 NA
ATOM      8  C   UNL     1       4.532   6.091  16.693  0.00  0.00    +0.000 C 
ATOM      9  C   UNL     1       5.753   7.007  16.703  0.00  0.00    +0.000 C 
BRANCH   4  11
ATOM     10  N   UNL     1       7.152   5.465  14.879  0.00  0.00    +0.000 N 
ATOM     11  C   UNL     1       7.452   5.186  16.195  0.00  0.00    +0.000 C 
ATOM     12  O   UNL     1       8.057   4.175  16.536  0.00  0.00    +0.000 OA
ATOM     13  H   UNL     1       6.547   6.241  14.645  0.00  0.00    +0.000 HD
BRANCH  10  14
ATOM     14  C   UNL     1       7.465   4.544  13.795  0.00  0.00    +0.000 C 
BRANCH  14  15
ATOM     15  C   UNL     1       6.233   3.800  13.273  0.00  0.00    +0.000 C 
BRANCH  15  17
ATOM     16  C   UNL     1       5.943   2.165  11.599  0.00  0.00    +0.000 C 
ATOM     17  O   UNL     1       6.423   3.474  11.890  0.00  0.00    +0.000 OA
ENDBRANCH  15  17
ENDBRANCH  14  15
ENDBRANCH  10  14
ENDBRANCH   4  11
ENDBRANCH   1   7
BRANCH   1  18
ATOM     18  C   UNL     1       2.523   4.034  19.671  0.00  0.00    +0.000 A 
ATOM     19  C   UNL     1       3.031   2.815  20.188  0.00  0.00    +0.000 A 
ATOM     20  C   UNL     1       3.868   1.765  19.561  0.00  0.00    +0.000 C 
ATOM     21  N   UNL     1       2.658   2.651  21.458  0.00  0.00    +0.000 NA
ATOM     22  O   UNL     1       1.943   3.768  21.787  0.00  0.00    +0.000 OA
ATOM     23  C   UNL     1       1.845   4.647  20.721  0.00  0.00    +0.000 A 
BRANCH  23  24
ATOM     24  C   UNL     1       1.131   5.884  20.857  0.00  0.00    +0.000 C 
ATOM     25  C   UNL     1       1.808   7.045  20.775  0.00  0.00    +0.000 C 
BRANCH  25  26
ATOM     26  C   UNL     1       1.235   8.334  20.990  0.00  0.00    +0.000 A 
ATOM     27  C   UNL     1       0.810   8.982  22.138  0.00  0.00    +0.000 A 
ATOM     28  C   UNL     1       0.359  10.317  21.900  0.00  0.00    +0.000 A 
ATOM     29  C   UNL     1       0.430  10.656  20.569  0.00  0.00    +0.000 A 
ATOM     30  S   UNL     1       1.016   9.368  19.617  0.00  0.00    +0.000 S 
ENDBRANCH  25  26
ENDBRANCH  23  24
ENDBRANCH   1  18
TORSDOF 8
ENDMDL
MODEL 3
REMARK VINA RESULT:      -7.3      2.716      7.363
REMARK  Name = 
REMARK  10 active torsions:
REMARK  status: ('A' for Active; 'I' for Inactive)
REMARK    1  A    between atoms: C_1  and  O_2
REMARK    2  A    between atoms: O_2  and  C_3
REMARK    3  A    between atoms: C_3  and  C_4
REMARK    4  A    between atoms: C_4  and  N_5
REMARK    5  A    between atoms: C_6  and  C_8
REMARK    6  A    between atoms: N_11  and  S_12
REMARK    7  A    between atoms: S_12  and  C_15
REMARK    8  A    between atoms: C_16  and  C_17
REMARK    9  A    between atoms: C_20  and  C_21
REMARK   10  A    between atoms: C_22  and  C_23
REMARK                            x       y       z     vdW  Elec       q    Type
REMARK                         _______ _______ _______ _____ _____    ______ ____
ROOT
ATOM      1  S   UNL     1       5.496   5.145  18.400  0.00  0.00    +0.000 S 
ATOM      2  O   UNL     1       4.648   6.294  18.641  0.00  0.00    +0.000 OA
ATOM      3  O   UNL     1       6.319   4.594  19.455  0.00  0.00    +0.000 OA
ENDROOT
BRANCH   1   7
ATOM      4  C   UNL     1       2.206   2.001  17.794  0.00  0.00    +0.000 C 
ATOM      5  C   UNL     1       3.639   1.527  18.067  0.00  0.00    +0.000 C 
ATOM      6  C   UNL     1       4.550   2.630  18.611  0.00  0.00    +0.000 C 
ATOM      7  N   UNL     1       4.503   3.867  17.768  0.00  0.00    +0.000 NA
ATOM      8  C   UNL     1       3.108   4.336  17.511  0.00  0.00    +0.000 C 
ATOM      9  C   UNL     1       2.268   3.227  16.884  0.00  0.00    +0.000 C 
BRANCH   4  11
ATOM     10  N   UNL     1       2.181   2.273  20.226  0.00  0.00    +0.000 N 
ATOM     11  C   UNL     1       1.415   2.270  19.081  0.00  0.00    +0.000 C 
ATOM     12  O   UNL     1       0.210   2.492  19.090  0.00  0.00    +0.000 OA
ATOM     13  H   UNL     1       3.145   1.966  20.198  0.00  0.00    +0.000 HD
BRANCH  10  14
ATOM     14  C   UNL     1       1.606   2.468  21.549  0.00  0.00    +0.000 C 
BRANCH  14  15
ATOM     15  C   UNL     1       1.949   3.833  22.152  0.00  0.00    +0.000 C 
BRANCH  15  17
ATOM     16  C   UNL     1       1.708   5.695  20.725  0.00  0.00    +0.000 C 
ATOM     17  O   UNL     1       2.577   4.650  21.155  0.00  0.00    +0.000 OA
ENDBRANCH  15  17
ENDBRANCH  14  15
ENDBRANCH  10  14
ENDBRANCH   4  11
ENDBRANCH   1   7
BRANCH   1  18
ATOM     18  C   UNL     1       6.570   5.686  17.189  0.00  0.00    +0.000 A 
ATOM     19  C   UNL     1       6.730   5.036  15.938  0.00  0.00    +0.000 A 
ATOM     20  C   UNL     1       6.087   3.821  15.383  0.00  0.00    +0.000 C 
ATOM     21  N   UNL     1       7.618   5.682  15.182  0.00  0.00    +0.000 NA
ATOM     22  O   UNL     1       8.013   6.768  15.911  0.00  0.00    +0.000 OA
ATOM     23  C   UNL     1       7.386   6.813  17.146  0.00  0.00    +0.000 A 
BRANCH  23  24
ATOM     24  C   UNL     1       7.663   7.876  18.068  0.00  0.00    +0.000 C 
ATOM     25  C   UNL     1       8.332   8.962  17.637  0.00  0.00    +0.000 C 
BRANCH  25  26
ATOM     26  C   UNL     1       8.755  10.039  18.472  0.00  0.00    +0.000 A 
ATOM     27  C   UNL     1       9.381  10.066  19.707  0.00  0.00    +0.000 A 
ATOM     28  C   UNL     1       9.690  11.388  20.155  0.00  0.00    +0.000 A 
ATOM     29  C   UNL     1       9.275  12.346  19.262  0.00  0.00    +0.000 A 
ATOM     30  S   UNL     1       8.502  11.657  17.906  0.00  0.00    +0.000 S 
ENDBRANCH  25  26
ENDBRANCH  23  24
ENDBRANCH   1  18
TORSDOF 8
ENDMDL
MODEL 4
REMARK VINA RESULT:      -7.1      0.919      1.150
REMARK  Name = 
REMARK  10 active torsions:
REMARK  status: ('A' for Active; 'I' for Inactive)
REMARK    1  A    between atoms: C_1  and  O_2
REMARK    2  A    between atoms: O_2  and  C_3
REMARK    3  A    between atoms: C_3  and  C_4
REMARK    4  A    between atoms: C_4  and  N_5
REMARK    5  A    between atoms: C_6  and  C_8
REMARK    6  A    between atoms: N_11  and  S_12
REMARK    7  A    between atoms: S_12  and  C_15
REMARK    8  A    between atoms: C_16  and  C_17
REMARK    9  A    between atoms: C_20  and  C_21
REMARK   10  A    between atoms: C_22  and  C_23
REMARK                            x       y       z     vdW  Elec       q    Type
REMARK                         _______ _______ _______ _____ _____    ______ ____
ROOT
ATOM      1  S   UNL     1       3.572   4.049  18.137  0.00  0.00    +0.000 S 
ATOM      2  O   UNL     1       3.066   5.134  17.321  0.00  0.00    +0.000 OA
ATOM      3  O   UNL     1       3.292   2.670  17.799  0.00  0.00    +0.000 OA
ENDROOT
BRANCH   1   7
ATOM      4  C   UNL     1       7.844   5.731  18.132  0.00  0.00    +0.000 C 
ATOM      5  C   UNL     1       7.460   4.688  17.075  0.00  0.00    +0.000 C 
ATOM      6  C   UNL     1       5.949   4.486  16.943  0.00  0.00    +0.000 C 
ATOM      7  N   UNL     1       5.294   4.233  18.266  0.00  0.00    +0.000 NA
ATOM      8  C   UNL     1       5.659   5.256  19.292  0.00  0.00    +0.000 C 
ATOM      9  C   UNL     1       7.174   5.352  19.451  0.00  0.00    +0.000 C 
BRANCH   4  11
ATOM     10  N   UNL     1       8.298   8.131  18.281  0.00  0.00    +0.000 N 
ATOM     11  C   UNL     1       7.507   7.164  17.699  0.00  0.00    +0.000 C 
ATOM     12  O   UNL     1       6.630   7.428  16.885  0.00  0.00    +0.000 OA
ATOM     13  H   UNL     1       8.925   7.893  19.038  0.00  0.00    +0.000 HD
BRANCH  10  14
ATOM     14  C   UNL     1       8.104   9.553  18.030  0.00  0.00    +0.000 C 
BRANCH  14  15
ATOM     15  C   UNL     1       9.359  10.383  18.315  0.00  0.00    +0.000 C 
BRANCH  15  17
ATOM     16  C   UNL     1      10.357  11.661  20.027  0.00  0.00    +0.000 C 
ATOM     17  O   UNL     1       9.502  10.560  19.730  0.00  0.00    +0.000 OA
ENDBRANCH  15  17
ENDBRANCH  14  15
ENDBRANCH  10  14
ENDBRANCH   4  11
ENDBRANCH   1   7
BRANCH   1  18
ATOM     18  C   UNL     1       2.852   4.324  19.660  0.00  0.00    +0.000 A 
ATOM     19  C   UNL     1       2.842   3.364  20.704  0.00  0.00    +0.000 A 
ATOM     20  C   UNL     1       3.384   1.986  20.766  0.00  0.00    +0.000 C 
ATOM     21  N   UNL     1       2.230   3.850  21.785  0.00  0.00    +0.000 NA
ATOM     22  O   UNL     1       1.873   5.132  21.469  0.00  0.00    +0.000 OA
ATOM     23  C   UNL     1       2.246   5.465  20.178  0.00  0.00    +0.000 A 
BRANCH  23  24
ATOM     24  C   UNL     1       1.962   6.768  19.649  0.00  0.00    +0.000 C 
ATOM     25  C   UNL     1       1.559   7.743  20.485  0.00  0.00    +0.000 C 
BRANCH  25  26
ATOM     26  C   UNL     1       1.153   9.047  20.074  0.00  0.00    +0.000 A 
ATOM     27  C   UNL     1       1.205   9.694  18.850  0.00  0.00    +0.000 A 
ATOM     28  C   UNL     1       0.611  10.994  18.872  0.00  0.00    +0.000 A 
ATOM     29  C   UNL     1       0.136  11.324  20.119  0.00  0.00    +0.000 A 
ATOM     30  S   UNL     1       0.422  10.084  21.254  0.00  0.00    +0.000 S 
ENDBRANCH  25  26
ENDBRANCH  23  24
ENDBRANCH   1  18
TORSDOF 8
ENDMDL
MODEL 5
REMARK VINA RESULT:      -6.8      2.680      4.163
REMARK  Name = 
REMARK  10 active torsions:
REMARK  status: ('A' for Active; 'I' for Inactive)
REMARK    1  A    between atoms: C_1  and  O_2
REMARK    2  A    between atoms: O_2  and  C_3
REMARK    3  A    between atoms: C_3  and  C_4
REMARK    4  A    between atoms: C_4  and  N_5
REMARK    5  A    between atoms: C_6  and  C_8
REMARK    6  A    between atoms: N_11  and  S_12
REMARK    7  A    between atoms: S_12  and  C_15
REMARK    8  A    between atoms: C_16  and  C_17
REMARK    9  A    between atoms: C_20  and  C_21
REMARK   10  A    between atoms: C_22  and  C_23
REMARK                            x       y       z     vdW  Elec       q    Type
REMARK                         _______ _______ _______ _____ _____    ______ ____
ROOT
ATOM      1  S   UNL     1       3.143   4.021  18.132  0.00  0.00    +0.000 S 
ATOM      2  O   UNL     1       2.166   5.018  17.745  0.00  0.00    +0.000 OA
ATOM      3  O   UNL     1       3.166   2.718  17.503  0.00  0.00    +0.000 OA
ENDROOT
BRANCH   1   7
ATOM      4  C   UNL     1       7.005   5.858  16.463  0.00  0.00    +0.000 C 
ATOM      5  C   UNL     1       7.066   4.465  17.101  0.00  0.00    +0.000 C 
ATOM      6  C   UNL     1       5.691   3.817  17.276  0.00  0.00    +0.000 C 
ATOM      7  N   UNL     1       4.722   4.726  17.968  0.00  0.00    +0.000 NA
ATOM      8  C   UNL     1       4.654   6.079  17.340  0.00  0.00    +0.000 C 
ATOM      9  C   UNL     1       6.038   6.719  17.273  0.00  0.00    +0.000 C 
BRANCH   4  11
ATOM     10  N   UNL     1       7.548   5.146  14.185  0.00  0.00    +0.000 N 
ATOM     11  C   UNL     1       6.636   5.813  14.974  0.00  0.00    +0.000 C 
ATOM     12  O   UNL     1       5.606   6.302  14.526  0.00  0.00    +0.000 OA
ATOM     13  H   UNL     1       8.443   4.864  14.563  0.00  0.00    +0.000 HD
BRANCH  10  14
ATOM     14  C   UNL     1       7.395   5.034  12.742  0.00  0.00    +0.000 C 
BRANCH  14  15
ATOM     15  C   UNL     1       6.915   3.648  12.300  0.00  0.00    +0.000 C 
BRANCH  15  17
ATOM     16  C   UNL     1       4.650   3.357  11.712  0.00  0.00    +0.000 C 
ATOM     17  O   UNL     1       5.584   3.428  12.786  0.00  0.00    +0.000 OA
ENDBRANCH  15  17
ENDBRANCH  14  15
ENDBRANCH  10  14
ENDBRANCH   4  11
ENDBRANCH   1   7
BRANCH   1  18
ATOM     18  C   UNL     1       2.807   3.750  19.783  0.00  0.00    +0.000 A 
ATOM     19  C   UNL     1       3.295   2.632  20.507  0.00  0.00    +0.000 A 
ATOM     20  C   UNL     1       4.139   1.490  20.083  0.00  0.00    +0.000 C 
ATOM     21  N   UNL     1       2.893   2.682  21.778  0.00  0.00    +0.000 NA
ATOM     22  O   UNL     1       2.178   3.841  21.900  0.00  0.00    +0.000 OA
ATOM     23  C   UNL     1       2.109   4.530  20.701  0.00  0.00    +0.000 A 
BRANCH  23  24
ATOM     24  C   UNL     1       1.401   5.775  20.613  0.00  0.00    +0.000 C 
ATOM     25  C   UNL     1       2.097   6.916  20.454  0.00  0.00    +0.000 C 
BRANCH  25  26
ATOM     26  C   UNL     1       1.522   8.222  20.452  0.00  0.00    +0.000 A 
ATOM     27  C   UNL     1       1.177   9.084  19.424  0.00  0.00    +0.000 A 
ATOM     28  C   UNL     1       0.552  10.286  19.879  0.00  0.00    +0.000 A 
ATOM     29  C   UNL     1       0.449  10.328  21.249  0.00  0.00    +0.000 A 
ATOM     30  S   UNL     1       1.120   8.939  21.978  0.00  0.00    +0.000 S 
ENDBRANCH  25  26
ENDBRANCH  23  24
ENDBRANCH   1  18
TORSDOF 8
ENDMDL
MODEL 6
REMARK VINA RESULT:      -6.8      2.549      7.137
REMARK  Name = 
REMARK  10 active torsions:
REMARK  status: ('A' for Active; 'I' for Inactive)
REMARK    1  A    between atoms: C_1  and  O_2
REMARK    2  A    between atoms: O_2  and  C_3
REMARK    3  A    between atoms: C_3  and  C_4
REMARK    4  A    between atoms: C_4  and  N_5
REMARK    5  A    between atoms: C_6  and  C_8
REMARK    6  A    between atoms: N_11  and  S_12
REMARK    7  A    between atoms: S_12  and  C_15
REMARK    8  A    between atoms: C_16  and  C_17
REMARK    9  A    between atoms: C_20  and  C_21
REMARK   10  A    between atoms: C_22  and  C_23
REMARK                            x       y       z     vdW  Elec       q    Type
REMARK                         _______ _______ _______ _____ _____    ______ ____
ROOT
ATOM      1  S   UNL     1       5.919   5.015  18.732  0.00  0.00    +0.000 S 
ATOM      2  O   UNL     1       5.194   6.171  19.219  0.00  0.00    +0.000 OA
ATOM      3  O   UNL     1       6.888   4.339  19.568  0.00  0.00    +0.000 OA
ENDROOT
BRANCH   1   7
ATOM      4  C   UNL     1       2.119   2.501  18.173  0.00  0.00    +0.000 C 
ATOM      5  C   UNL     1       3.360   1.838  18.783  0.00  0.00    +0.000 C 
ATOM      6  C   UNL     1       4.414   2.841  19.255  0.00  0.00    +0.000 C 
ATOM      7  N   UNL     1       4.758   3.841  18.194  0.00  0.00    +0.000 NA
ATOM      8  C   UNL     1       3.550   4.496  17.608  0.00  0.00    +0.000 C 
ATOM      9  C   UNL     1       2.573   3.454  17.069  0.00  0.00    +0.000 C 
BRANCH   4  11
ATOM     10  N   UNL     1       1.637   4.488  19.517  0.00  0.00    +0.000 N 
ATOM     11  C   UNL     1       1.245   3.201  19.222  0.00  0.00    +0.000 C 
ATOM     12  O   UNL     1       0.264   2.674  19.734  0.00  0.00    +0.000 OA
ATOM     13  H   UNL     1       2.517   4.848  19.172  0.00  0.00    +0.000 HD
BRANCH  10  14
ATOM     14  C   UNL     1       0.959   5.300  20.519  0.00  0.00    +0.000 C 
BRANCH  14  15
ATOM     15  C   UNL     1       1.683   6.620  20.803  0.00  0.00    +0.000 C 
BRANCH  15  17
ATOM     16  C   UNL     1       1.326   8.730  21.791  0.00  0.00    +0.000 C 
ATOM     17  O   UNL     1       0.718   7.634  21.114  0.00  0.00    +0.000 OA
ENDBRANCH  15  17
ENDBRANCH  14  15
ENDBRANCH  10  14
ENDBRANCH   4  11
ENDBRANCH   1   7
BRANCH   1  18
ATOM     18  C   UNL     1       6.784   5.620  17.391  0.00  0.00    +0.000 A 
ATOM     19  C   UNL     1       6.775   5.004  16.113  0.00  0.00    +0.000 A 
ATOM     20  C   UNL     1       6.096   3.781  15.626  0.00  0.00    +0.000 C 
ATOM     21  N   UNL     1       7.521   5.697  15.252  0.00  0.00    +0.000 NA
ATOM     22  O   UNL     1       7.986   6.780  15.944  0.00  0.00    +0.000 OA
ATOM     23  C   UNL     1       7.549   6.775  17.259  0.00  0.00    +0.000 A 
BRANCH  23  24
ATOM     24  C   UNL     1       7.928   7.827  18.159  0.00  0.00    +0.000 C 
ATOM     25  C   UNL     1       8.248   9.035  17.659  0.00  0.00    +0.000 C 
BRANCH  25  26
ATOM     26  C   UNL     1       8.733  10.130  18.434  0.00  0.00    +0.000 A 
ATOM     27  C   UNL     1       9.379  10.188  19.658  0.00  0.00    +0.000 A 
ATOM     28  C   UNL     1       9.757  11.514  20.036  0.00  0.00    +0.000 A 
ATOM     29  C   UNL     1       9.373  12.446  19.102  0.00  0.00    +0.000 A 
ATOM     30  S   UNL     1       8.548  11.729  17.793  0.00  0.00    +0.000 S 
ENDBRANCH  25  26
ENDBRANCH  23  24
ENDBRANCH   1  18
TORSDOF 8
ENDMDL
MODEL 7
REMARK VINA RESULT:      -6.8      2.860      4.591
REMARK  Name = 
REMARK  10 active torsions:
REMARK  status: ('A' for Active; 'I' for Inactive)
REMARK    1  A    between atoms: C_1  and  O_2
REMARK    2  A    between atoms: O_2  and  C_3
REMARK    3  A    between atoms: C_3  and  C_4
REMARK    4  A    between atoms: C_4  and  N_5
REMARK    5  A    between atoms: C_6  and  C_8
REMARK    6  A    between atoms: N_11  and  S_12
REMARK    7  A    between atoms: S_12  and  C_15
REMARK    8  A    between atoms: C_16  and  C_17
REMARK    9  A    between atoms: C_20  and  C_21
REMARK   10  A    between atoms: C_22  and  C_23
REMARK                            x       y       z     vdW  Elec       q    Type
REMARK                         _______ _______ _______ _____ _____    ______ ____
ROOT
ATOM      1  S   UNL     1       4.262   3.349  19.167  0.00  0.00    +0.000 S 
ATOM      2  O   UNL     1       3.720   2.560  18.079  0.00  0.00    +0.000 OA
ATOM      3  O   UNL     1       5.210   2.779  20.099  0.00  0.00    +0.000 OA
ENDROOT
BRANCH   1   7
ATOM      4  C   UNL     1       6.564   6.307  16.515  0.00  0.00    +0.000 C 
ATOM      5  C   UNL     1       7.076   6.035  17.935  0.00  0.00    +0.000 C 
ATOM      6  C   UNL     1       6.463   4.786  18.573  0.00  0.00    +0.000 C 
ATOM      7  N   UNL     1       4.968   4.784  18.489  0.00  0.00    +0.000 NA
ATOM      8  C   UNL     1       4.469   5.037  17.104  0.00  0.00    +0.000 C 
ATOM      9  C   UNL     1       5.037   6.341  16.549  0.00  0.00    +0.000 C 
BRANCH   4  11
ATOM     10  N   UNL     1       6.618   5.482  14.212  0.00  0.00    +0.000 N 
ATOM     11  C   UNL     1       7.100   5.299  15.489  0.00  0.00    +0.000 C 
ATOM     12  O   UNL     1       7.910   4.424  15.772  0.00  0.00    +0.000 OA
ATOM     13  H   UNL     1       5.862   6.131  14.037  0.00  0.00    +0.000 HD
BRANCH  10  14
ATOM     14  C   UNL     1       6.976   4.601  13.109  0.00  0.00    +0.000 C 
BRANCH  14  15
ATOM     15  C   UNL     1       6.144   3.315  13.081  0.00  0.00    +0.000 C 
BRANCH  15  17
ATOM     16  C   UNL     1       4.403   3.291  11.492  0.00  0.00    +0.000 C 
ATOM     17  O   UNL     1       5.780   3.012  11.728  0.00  0.00    +0.000 OA
ENDBRANCH  15  17
ENDBRANCH  14  15
ENDBRANCH  10  14
ENDBRANCH   4  11
ENDBRANCH   1   7
BRANCH   1  18
ATOM     18  C   UNL     1       2.884   3.769  20.083  0.00  0.00    +0.000 A 
ATOM     19  C   UNL     1       2.299   2.913  21.051  0.00  0.00    +0.000 A 
ATOM     20  C   UNL     1       2.667   1.547  21.493  0.00  0.00    +0.000 C 
ATOM     21  N   UNL     1       1.248   3.500  21.625  0.00  0.00    +0.000 NA
ATOM     22  O   UNL     1       1.164   4.746  21.067  0.00  0.00    +0.000 OA
ATOM     23  C   UNL     1       2.155   4.954  20.123  0.00  0.00    +0.000 A 
BRANCH  23  24
ATOM     24  C   UNL     1       2.243   6.200  19.417  0.00  0.00    +0.000 C 
ATOM     25  C   UNL     1       1.766   7.317  19.998  0.00  0.00    +0.000 C 
BRANCH  25  26
ATOM     26  C   UNL     1       1.704   8.595  19.366  0.00  0.00    +0.000 A 
ATOM     27  C   UNL     1       2.168   9.051  18.143  0.00  0.00    +0.000 A 
ATOM     28  C   UNL     1       1.818  10.411  17.877  0.00  0.00    +0.000 A 
ATOM     29  C   UNL     1       1.110  10.974  18.911  0.00  0.00    +0.000 A 
ATOM     30  S   UNL     1       0.888   9.878  20.198  0.00  0.00    +0.000 S 
ENDBRANCH  25  26
ENDBRANCH  23  24
ENDBRANCH   1  18
TORSDOF 8
ENDMDL
MODEL 8
REMARK VINA RESULT:      -6.7      2.886      7.592
REMARK  Name = 
REMARK  10 active torsions:
REMARK  status: ('A' for Active; 'I' for Inactive)
REMARK    1  A    between atoms: C_1  and  O_2
REMARK    2  A    between atoms: O_2  and  C_3
REMARK    3  A    between atoms: C_3  and  C_4
REMARK    4  A    between atoms: C_4  and  N_5
REMARK    5  A    between atoms: C_6  and  C_8
REMARK    6  A    between atoms: N_11  and  S_12
REMARK    7  A    between atoms: S_12  and  C_15
REMARK    8  A    between atoms: C_16  and  C_17
REMARK    9  A    between atoms: C_20  and  C_21
REMARK   10  A    between atoms: C_22  and  C_23
REMARK                            x       y       z     vdW  Elec       q    Type
REMARK                         _______ _______ _______ _____ _____    ______ ____
ROOT
ATOM      1  S   UNL     1       6.243   5.165  19.035  0.00  0.00    +0.000 S 
ATOM      2  O   UNL     1       7.121   5.599  20.103  0.00  0.00    +0.000 OA
ATOM      3  O   UNL     1       6.042   3.758  18.763  0.00  0.00    +0.000 OA
ENDROOT
BRANCH   1   7
ATOM      4  C   UNL     1       1.731   6.001  19.171  0.00  0.00    +0.000 C 
ATOM      5  C   UNL     1       2.611   6.848  18.243  0.00  0.00    +0.000 C 
ATOM      6  C   UNL     1       3.999   6.247  18.007  0.00  0.00    +0.000 C 
ATOM      7  N   UNL     1       4.687   5.893  19.289  0.00  0.00    +0.000 NA
ATOM      8  C   UNL     1       3.834   5.058  20.188  0.00  0.00    +0.000 C 
ATOM      9  C   UNL     1       2.500   5.745  20.466  0.00  0.00    +0.000 C 
BRANCH   4  11
ATOM     10  N   UNL     1       0.903   3.710  19.401  0.00  0.00    +0.000 N 
ATOM     11  C   UNL     1       1.254   4.701  18.511  0.00  0.00    +0.000 C 
ATOM     12  O   UNL     1       1.165   4.562  17.297  0.00  0.00    +0.000 OA
ATOM     13  H   UNL     1       1.105   3.812  20.387  0.00  0.00    +0.000 HD
BRANCH  10  14
ATOM     14  C   UNL     1       0.467   2.390  18.968  0.00  0.00    +0.000 C 
BRANCH  14  15
ATOM     15  C   UNL     1       1.622   1.390  18.854  0.00  0.00    +0.000 C 
BRANCH  15  17
ATOM     16  C   UNL     1       3.794   1.616  17.965  0.00  0.00    +0.000 C 
ATOM     17  O   UNL     1       2.399   1.690  17.687  0.00  0.00    +0.000 OA
ENDBRANCH  15  17
ENDBRANCH  14  15
ENDBRANCH  10  14
ENDBRANCH   4  11
ENDBRANCH   1   7
BRANCH   1  18
ATOM     18  C   UNL     1       6.960   5.825  17.633  0.00  0.00    +0.000 A 
ATOM     19  C   UNL     1       6.976   5.164  16.378  0.00  0.00    +0.000 A 
ATOM     20  C   UNL     1       6.442   3.844  15.966  0.00  0.00    +0.000 C 
ATOM     21  N   UNL     1       7.584   5.914  15.459  0.00  0.00    +0.000 NA
ATOM     22  O   UNL     1       7.933   7.075  16.092  0.00  0.00    +0.000 OA
ATOM     23  C   UNL     1       7.559   7.064  17.426  0.00  0.00    +0.000 A 
BRANCH  23  24
ATOM     24  C   UNL     1       7.836   8.190  18.271  0.00  0.00    +0.000 C 
ATOM     25  C   UNL     1       8.573   9.207  17.789  0.00  0.00    +0.000 C 
BRANCH  25  26
ATOM     26  C   UNL     1       8.999  10.333  18.554  0.00  0.00    +0.000 A 
ATOM     27  C   UNL     1       9.522  10.444  19.832  0.00  0.00    +0.000 A 
ATOM     28  C   UNL     1       9.885  11.782  20.181  0.00  0.00    +0.000 A 
ATOM     29  C   UNL     1       9.612  12.671  19.169  0.00  0.00    +0.000 A 
ATOM     30  S   UNL     1       8.907  11.900  17.821  0.00  0.00    +0.000 S 
ENDBRANCH  25  26
ENDBRANCH  23  24
ENDBRANCH   1  18
TORSDOF 8
ENDMDL
MODEL 9
REMARK VINA RESULT:      -6.5      1.104      1.246
REMARK  Name = 
REMARK  10 active torsions:
REMARK  status: ('A' for Active; 'I' for Inactive)
REMARK    1  A    between atoms: C_1  and  O_2
REMARK    2  A    between atoms: O_2  and  C_3
REMARK    3  A    between atoms: C_3  and  C_4
REMARK    4  A    between atoms: C_4  and  N_5
REMARK    5  A    between atoms: C_6  and  C_8
REMARK    6  A    between atoms: N_11  and  S_12
REMARK    7  A    between atoms: S_12  and  C_15
REMARK    8  A    between atoms: C_16  and  C_17
REMARK    9  A    between atoms: C_20  and  C_21
REMARK   10  A    between atoms: C_22  and  C_23
REMARK                            x       y       z     vdW  Elec       q    Type
REMARK                         _______ _______ _______ _____ _____    ______ ____
ROOT
ATOM      1  S   UNL     1       3.125   4.940  17.813  0.00  0.00    +0.000 S 
ATOM      2  O   UNL     1       2.737   6.313  17.563  0.00  0.00    +0.000 OA
ATOM      3  O   UNL     1       2.542   3.853  17.056  0.00  0.00    +0.000 OA
ENDROOT
BRANCH   1   7
ATOM      4  C   UNL     1       7.605   5.921  17.597  0.00  0.00    +0.000 C 
ATOM      5  C   UNL     1       6.893   5.437  16.327  0.00  0.00    +0.000 C 
ATOM      6  C   UNL     1       5.367   5.500  16.426  0.00  0.00    +0.000 C 
ATOM      7  N   UNL     1       4.852   4.834  17.664  0.00  0.00    +0.000 NA
ATOM      8  C   UNL     1       5.537   5.313  18.902  0.00  0.00    +0.000 C 
ATOM      9  C   UNL     1       7.050   5.143  18.789  0.00  0.00    +0.000 C 
BRANCH   4  11
ATOM     10  N   UNL     1       8.519   7.984  18.542  0.00  0.00    +0.000 N 
ATOM     11  C   UNL     1       7.499   7.439  17.794  0.00  0.00    +0.000 C 
ATOM     12  O   UNL     1       6.602   8.116  17.304  0.00  0.00    +0.000 OA
ATOM     13  H   UNL     1       9.171   7.386  19.033  0.00  0.00    +0.000 HD
BRANCH  10  14
ATOM     14  C   UNL     1       8.571   9.401  18.875  0.00  0.00    +0.000 C 
BRANCH  14  15
ATOM     15  C   UNL     1       9.259  10.240  17.794  0.00  0.00    +0.000 C 
BRANCH  15  17
ATOM     16  C   UNL     1      10.831  11.911  18.338  0.00  0.00    +0.000 C 
ATOM     17  O   UNL     1       9.447  11.577  18.276  0.00  0.00    +0.000 OA
ENDBRANCH  15  17
ENDBRANCH  14  15
ENDBRANCH  10  14
ENDBRANCH   4  11
ENDBRANCH   1   7
BRANCH   1  18
ATOM     18  C   UNL     1       2.675   4.685  19.439  0.00  0.00    +0.000 A 
ATOM     19  C   UNL     1       2.746   3.423  20.082  0.00  0.00    +0.000 A 
ATOM     20  C   UNL     1       3.175   2.097  19.579  0.00  0.00    +0.000 C 
ATOM     21  N   UNL     1       2.351   3.518  21.352  0.00  0.00    +0.000 NA
ATOM     22  O   UNL     1       2.057   4.838  21.556  0.00  0.00    +0.000 OA
ATOM     23  C   UNL     1       2.252   5.590  20.409  0.00  0.00    +0.000 A 
BRANCH  23  24
ATOM     24  C   UNL     1       1.998   7.002  20.410  0.00  0.00    +0.000 C 
ATOM     25  C   UNL     1       1.009   7.491  21.181  0.00  0.00    +0.000 C 
BRANCH  25  26
ATOM     26  C   UNL     1       0.593   8.856  21.197  0.00  0.00    +0.000 A 
ATOM     27  C   UNL     1       0.523   9.818  20.202  0.00  0.00    +0.000 A 
ATOM     28  C   UNL     1      -0.030  11.056  20.652  0.00  0.00    +0.000 A 
ATOM     29  C   UNL     1      -0.354  11.023  21.987  0.00  0.00    +0.000 A 
ATOM     30  S   UNL     1       0.026   9.518  22.694  0.00  0.00    +0.000 S 
ENDBRANCH  25  26
ENDBRANCH  23  24
ENDBRANCH   1  18
TORSDOF 8
ENDMDL
