MODEL 1
REMARK VINA RESULT:      -7.7      0.000      0.000
REMARK  Name = 
REMARK  7 active torsions:
REMARK  status: ('A' for Active; 'I' for Inactive)
REMARK    1  A    between atoms: C_1  and  C_2
REMARK    2  A    between atoms: C_5  and  N_6
REMARK    3  A    between atoms: N_9  and  C_10
REMARK    4  A    between atoms: C_10  and  C_11
REMARK    5  A    between atoms: C_11  and  O_12
REMARK    6  A    between atoms: C_11  and  C_13
REMARK    7  A    between atoms: C_13  and  N_14
REMARK                            x       y       z     vdW  Elec       q    Type
REMARK                         _______ _______ _______ _____ _____    ______ ____
ROOT
ATOM      1  C   UNL     1       3.877   5.658  18.732  0.00  0.00    +0.000 C 
ENDROOT
BRANCH   1   2
ATOM      2  O   UNL     1       3.689   7.009  18.290  0.00  0.00    +0.000 OA
ATOM      3  H   UNL     1       4.426   7.265  17.708  0.00  0.00    +0.000 HD
ENDBRANCH   1   2
BRANCH   1   4
ATOM      4  C   UNL     1       2.760   5.266  19.713  0.00  0.00    +0.000 C 
BRANCH   4  10
ATOM      5  C   UNL     1       1.089   4.614  17.176  0.00  0.00    +0.000 C 
ATOM      6  C   UNL     1       1.383   3.673  18.286  0.00  0.00    +0.000 A 
ATOM      7  N   UNL     1       0.928   2.431  18.343  0.00  0.00    +0.000 NA
ATOM      8  C   UNL     1       1.421   1.894  19.500  0.00  0.00    +0.000 A 
ATOM      9  C   UNL     1       2.207   2.815  20.138  0.00  0.00    +0.000 A 
ATOM     10  N   UNL     1       2.160   3.969  19.397  0.00  0.00    +0.000 N 
BRANCH   9  11
ATOM     11  N   UNL     1       2.921   2.653  21.347  0.00  0.00    +0.000 N 
ATOM     12  O   UNL     1       4.068   2.208  21.263  0.00  0.00    +0.000 OA
ATOM     13  O   UNL     1       2.349   3.008  22.387  0.00  0.00    +0.000 OA
ENDBRANCH   9  11
ENDBRANCH   4  10
ENDBRANCH   1   4
BRANCH   1  14
ATOM     14  C   UNL     1       5.303   5.528  19.341  0.00  0.00    +0.000 C 
BRANCH  14  15
ATOM     15  N   UNL     1       6.132   4.433  18.821  0.00  0.00    +0.000 NA
ATOM     16  C   UNL     1       5.428   3.582  17.828  0.00  0.00    +0.000 C 
ATOM     17  C   UNL     1       5.200   4.218  16.438  0.00  0.00    +0.000 C 
ATOM     18  N   UNL     1       6.482   4.664  15.910  0.00  0.00    +0.000 N 
ATOM     19  C   UNL     1       6.705   4.624  14.555  0.00  0.00    +0.000 A 
ATOM     20  N   UNL     1       7.670   5.394  14.025  0.00  0.00    +0.000 NA
ATOM     21  C   UNL     1       7.926   5.256  12.707  0.00  0.00    +0.000 A 
ATOM     22  C   UNL     1       7.272   4.370  11.893  0.00  0.00    +0.000 A 
ATOM     23  C   UNL     1       6.301   3.630  12.512  0.00  0.00    +0.000 A 
ATOM     24  N   UNL     1       5.997   3.747  13.818  0.00  0.00    +0.000 NA
ATOM     25  C   UNL     1       7.239   5.575  16.761  0.00  0.00    +0.000 C 
ATOM     26  C   UNL     1       7.379   4.955  18.182  0.00  0.00    +0.000 C 
ENDBRANCH  14  15
ENDBRANCH   1  14
TORSDOF 6
ENDMDL
MODEL 2
REMARK VINA RESULT:      -6.8      3.411      6.341
REMARK  Name = 
REMARK  7 active torsions:
REMARK  status: ('A' for Active; 'I' for Inactive)
REMARK    1  A    between atoms: C_1  and  C_2
REMARK    2  A    between atoms: C_5  and  N_6
REMARK    3  A    between atoms: N_9  and  C_10
REMARK    4  A    between atoms: C_10  and  C_11
REMARK    5  A    between atoms: C_11  and  O_12
REMARK    6  A    between atoms: C_11  and  C_13
REMARK    7  A    between atoms: C_13  and  N_14
REMARK                            x       y       z     vdW  Elec       q    Type
REMARK                         _______ _______ _______ _____ _____    ______ ____
ROOT
ATOM      1  C   UNL     1       4.737   3.278  17.551  0.00  0.00    +0.000 C 
ENDROOT
BRANCH   1   2
ATOM      2  O   UNL     1       5.445   2.923  16.355  0.00  0.00    +0.000 OA
ATOM      3  H   UNL     1       4.880   2.356  15.800  0.00  0.00    +0.000 HD
ENDBRANCH   1   2
BRANCH   1   4
ATOM      4  C   UNL     1       3.792   2.137  17.959  0.00  0.00    +0.000 C 
BRANCH   4  10
ATOM      5  C   UNL     1       5.191   1.972  20.727  0.00  0.00    +0.000 C 
ATOM      6  C   UNL     1       3.754   2.266  20.499  0.00  0.00    +0.000 A 
ATOM      7  N   UNL     1       2.875   2.461  21.469  0.00  0.00    +0.000 NA
ATOM      8  C   UNL     1       1.677   2.709  20.858  0.00  0.00    +0.000 A 
ATOM      9  C   UNL     1       1.840   2.692  19.499  0.00  0.00    +0.000 A 
ATOM     10  N   UNL     1       3.150   2.370  19.253  0.00  0.00    +0.000 N 
BRANCH   9  11
ATOM     11  N   UNL     1       0.859   2.925  18.509  0.00  0.00    +0.000 N 
ATOM     12  O   UNL     1       0.943   3.982  17.878  0.00  0.00    +0.000 OA
ATOM     13  O   UNL     1       0.019   2.032  18.330  0.00  0.00    +0.000 OA
ENDBRANCH   9  11
ENDBRANCH   4  10
ENDBRANCH   1   4
BRANCH   1  14
ATOM     14  C   UNL     1       4.004   4.629  17.312  0.00  0.00    +0.000 C 
BRANCH  14  15
ATOM     15  N   UNL     1       4.563   5.800  17.999  0.00  0.00    +0.000 NA
ATOM     16  C   UNL     1       4.057   7.092  17.467  0.00  0.00    +0.000 C 
ATOM     17  C   UNL     1       2.595   7.440  17.826  0.00  0.00    +0.000 C 
ATOM     18  N   UNL     1       2.442   7.389  19.273  0.00  0.00    +0.000 N 
ATOM     19  C   UNL     1       1.561   8.245  19.889  0.00  0.00    +0.000 A 
ATOM     20  N   UNL     1       1.102   7.944  21.116  0.00  0.00    +0.000 NA
ATOM     21  C   UNL     1       0.317   8.854  21.730  0.00  0.00    +0.000 A 
ATOM     22  C   UNL     1      -0.020  10.063  21.181  0.00  0.00    +0.000 A 
ATOM     23  C   UNL     1       0.485  10.286  19.928  0.00  0.00    +0.000 A 
ATOM     24  N   UNL     1       1.255   9.401  19.270  0.00  0.00    +0.000 NA
ATOM     25  C   UNL     1       2.831   6.137  19.911  0.00  0.00    +0.000 C 
ATOM     26  C   UNL     1       4.272   5.758  19.465  0.00  0.00    +0.000 C 
ENDBRANCH  14  15
ENDBRANCH   1  14
TORSDOF 6
ENDMDL
MODEL 3
REMARK VINA RESULT:      -6.7      1.712      2.308
REMARK  Name = 
REMARK  7 active torsions:
REMARK  status: ('A' for Active; 'I' for Inactive)
REMARK    1  A    between atoms: C_1  and  C_2
REMARK    2  A    between atoms: C_5  and  N_6
REMARK    3  A    between atoms: N_9  and  C_10
REMARK    4  A    between atoms: C_10  and  C_11
REMARK    5  A    between atoms: C_11  and  O_12
REMARK    6  A    between atoms: C_11  and  C_13
REMARK    7  A    between atoms: C_13  and  N_14
REMARK                            x       y       z     vdW  Elec       q    Type
REMARK                         _______ _______ _______ _____ _____    ______ ____
ROOT
ATOM      1  C   UNL     1       3.774   5.768  18.533  0.00  0.00    +0.000 C 
ENDROOT
BRANCH   1   2
ATOM      2  O   UNL     1       3.782   7.073  17.936  0.00  0.00    +0.000 OA
ATOM      3  H   UNL     1       3.176   7.656  18.426  0.00  0.00    +0.000 HD
ENDBRANCH   1   2
BRANCH   1   4
ATOM      4  C   UNL     1       2.521   5.600  19.408  0.00  0.00    +0.000 C 
BRANCH   4  10
ATOM      5  C   UNL     1       2.477   4.019  22.082  0.00  0.00    +0.000 C 
ATOM      6  C   UNL     1       2.133   3.471  20.746  0.00  0.00    +0.000 A 
ATOM      7  N   UNL     1       1.797   2.211  20.527  0.00  0.00    +0.000 NA
ATOM      8  C   UNL     1       1.549   2.105  19.186  0.00  0.00    +0.000 A 
ATOM      9  C   UNL     1       1.713   3.326  18.590  0.00  0.00    +0.000 A 
ATOM     10  N   UNL     1       2.125   4.199  19.564  0.00  0.00    +0.000 N 
BRANCH   9  11
ATOM     11  N   UNL     1       1.530   3.654  17.228  0.00  0.00    +0.000 N 
ATOM     12  O   UNL     1       0.689   4.518  16.969  0.00  0.00    +0.000 OA
ATOM     13  O   UNL     1       2.257   3.073  16.410  0.00  0.00    +0.000 OA
ENDBRANCH   9  11
ENDBRANCH   4  10
ENDBRANCH   1   4
BRANCH   1  14
ATOM     14  C   UNL     1       5.103   5.572  19.317  0.00  0.00    +0.000 C 
BRANCH  14  15
ATOM     15  N   UNL     1       5.987   4.502  18.838  0.00  0.00    +0.000 NA
ATOM     16  C   UNL     1       5.347   3.618  17.830  0.00  0.00    +0.000 C 
ATOM     17  C   UNL     1       5.146   4.233  16.426  0.00  0.00    +0.000 C 
ATOM     18  N   UNL     1       6.430   4.718  15.939  0.00  0.00    +0.000 N 
ATOM     19  C   UNL     1       6.701   4.673  14.592  0.00  0.00    +0.000 A 
ATOM     20  N   UNL     1       7.657   5.471  14.087  0.00  0.00    +0.000 NA
ATOM     21  C   UNL     1       7.964   5.329  12.781  0.00  0.00    +0.000 A 
ATOM     22  C   UNL     1       7.368   4.414  11.954  0.00  0.00    +0.000 A 
ATOM     23  C   UNL     1       6.402   3.647  12.547  0.00  0.00    +0.000 A 
ATOM     24  N   UNL     1       6.050   3.766  13.840  0.00  0.00    +0.000 NA
ATOM     25  C   UNL     1       7.125   5.661  16.806  0.00  0.00    +0.000 C 
ATOM     26  C   UNL     1       7.237   5.060  18.237  0.00  0.00    +0.000 C 
ENDBRANCH  14  15
ENDBRANCH   1  14
TORSDOF 6
ENDMDL
MODEL 4
REMARK VINA RESULT:      -6.6      3.506      6.450
REMARK  Name = 
REMARK  7 active torsions:
REMARK  status: ('A' for Active; 'I' for Inactive)
REMARK    1  A    between atoms: C_1  and  C_2
REMARK    2  A    between atoms: C_5  and  N_6
REMARK    3  A    between atoms: N_9  and  C_10
REMARK    4  A    between atoms: C_10  and  C_11
REMARK    5  A    between atoms: C_11  and  O_12
REMARK    6  A    between atoms: C_11  and  C_13
REMARK    7  A    between atoms: C_13  and  N_14
REMARK                            x       y       z     vdW  Elec       q    Type
REMARK                         _______ _______ _______ _____ _____    ______ ____
ROOT
ATOM      1  C   UNL     1       3.944   3.648  17.406  0.00  0.00    +0.000 C 
ENDROOT
BRANCH   1   2
ATOM      2  O   UNL     1       4.258   3.537  16.011  0.00  0.00    +0.000 OA
ATOM      3  H   UNL     1       4.194   4.415  15.595  0.00  0.00    +0.000 HD
ENDBRANCH   1   2
BRANCH   1   4
ATOM      4  C   UNL     1       3.203   2.387  17.879  0.00  0.00    +0.000 C 
BRANCH   4  10
ATOM      5  C   UNL     1       0.224   2.605  18.733  0.00  0.00    +0.000 C 
ATOM      6  C   UNL     1       1.393   2.632  19.649  0.00  0.00    +0.000 A 
ATOM      7  N   UNL     1       1.302   2.792  20.959  0.00  0.00    +0.000 NA
ATOM      8  C   UNL     1       2.581   2.752  21.441  0.00  0.00    +0.000 A 
ATOM      9  C   UNL     1       3.455   2.537  20.410  0.00  0.00    +0.000 A 
ATOM     10  N   UNL     1       2.717   2.499  19.255  0.00  0.00    +0.000 N 
BRANCH   9  11
ATOM     11  N   UNL     1       4.861   2.405  20.481  0.00  0.00    +0.000 N 
ATOM     12  O   UNL     1       5.300   1.437  21.107  0.00  0.00    +0.000 OA
ATOM     13  O   UNL     1       5.534   3.252  19.878  0.00  0.00    +0.000 OA
ENDBRANCH   9  11
ENDBRANCH   4  10
ENDBRANCH   1   4
BRANCH   1  14
ATOM     14  C   UNL     1       3.135   4.957  17.632  0.00  0.00    +0.000 C 
BRANCH  14  15
ATOM     15  N   UNL     1       3.831   6.034  18.348  0.00  0.00    +0.000 NA
ATOM     16  C   UNL     1       3.568   7.383  17.783  0.00  0.00    +0.000 C 
ATOM     17  C   UNL     1       2.161   7.962  18.051  0.00  0.00    +0.000 C 
ATOM     18  N   UNL     1       1.917   7.954  19.487  0.00  0.00    +0.000 N 
ATOM     19  C   UNL     1       1.147   8.946  20.046  0.00  0.00    +0.000 A 
ATOM     20  N   UNL     1       0.574   8.737  21.243  0.00  0.00    +0.000 NA
ATOM     21  C   UNL     1      -0.092   9.767  21.805  0.00  0.00    +0.000 A 
ATOM     22  C   UNL     1      -0.199  11.007  21.233  0.00  0.00    +0.000 A 
ATOM     23  C   UNL     1       0.408  11.132  20.013  0.00  0.00    +0.000 A 
ATOM     24  N   UNL     1       1.066  10.128  19.405  0.00  0.00    +0.000 NA
ATOM     25  C   UNL     1       2.063   6.665  20.150  0.00  0.00    +0.000 C 
ATOM     26  C   UNL     1       3.450   6.057  19.794  0.00  0.00    +0.000 C 
ENDBRANCH  14  15
ENDBRANCH   1  14
TORSDOF 6
ENDMDL
MODEL 5
REMARK VINA RESULT:      -6.5      4.323      7.634
REMARK  Name = 
REMARK  7 active torsions:
REMARK  status: ('A' for Active; 'I' for Inactive)
REMARK    1  A    between atoms: C_1  and  C_2
REMARK    2  A    between atoms: C_5  and  N_6
REMARK    3  A    between atoms: N_9  and  C_10
REMARK    4  A    between atoms: C_10  and  C_11
REMARK    5  A    between atoms: C_11  and  O_12
REMARK    6  A    between atoms: C_11  and  C_13
REMARK    7  A    between atoms: C_13  and  N_14
REMARK                            x       y       z     vdW  Elec       q    Type
REMARK                         _______ _______ _______ _____ _____    ______ ____
ROOT
ATOM      1  C   UNL     1       4.566   6.787  17.668  0.00  0.00    +0.000 C 
ENDROOT
BRANCH   1   2
ATOM      2  O   UNL     1       5.686   7.159  16.853  0.00  0.00    +0.000 OA
ATOM      3  H   UNL     1       6.253   7.779  17.346  0.00  0.00    +0.000 HD
ENDBRANCH   1   2
BRANCH   1   4
ATOM      4  C   UNL     1       3.933   5.493  17.130  0.00  0.00    +0.000 C 
BRANCH   4  10
ATOM      5  C   UNL     1       1.542   3.657  17.880  0.00  0.00    +0.000 C 
ATOM      6  C   UNL     1       2.902   3.594  18.473  0.00  0.00    +0.000 A 
ATOM      7  N   UNL     1       3.252   2.757  19.435  0.00  0.00    +0.000 NA
ATOM      8  C   UNL     1       4.571   3.001  19.698  0.00  0.00    +0.000 A 
ATOM      9  C   UNL     1       5.033   3.982  18.862  0.00  0.00    +0.000 A 
ATOM     10  N   UNL     1       3.970   4.400  18.103  0.00  0.00    +0.000 N 
BRANCH   9  11
ATOM     11  N   UNL     1       6.342   4.510  18.790  0.00  0.00    +0.000 N 
ATOM     12  O   UNL     1       6.954   4.345  17.732  0.00  0.00    +0.000 OA
ATOM     13  O   UNL     1       6.752   5.128  19.783  0.00  0.00    +0.000 OA
ENDBRANCH   9  11
ENDBRANCH   4  10
ENDBRANCH   1   4
BRANCH   1  14
ATOM     14  C   UNL     1       3.571   7.982  17.721  0.00  0.00    +0.000 C 
BRANCH  14  15
ATOM     15  N   UNL     1       2.159   7.640  17.935  0.00  0.00    +0.000 NA
ATOM     16  C   UNL     1       1.874   7.144  19.306  0.00  0.00    +0.000 C 
ATOM     17  C   UNL     1       1.902   8.210  20.426  0.00  0.00    +0.000 C 
ATOM     18  N   UNL     1       0.987   9.286  20.072  0.00  0.00    +0.000 N 
ATOM     19  C   UNL     1       0.315   9.955  21.067  0.00  0.00    +0.000 A 
ATOM     20  N   UNL     1      -0.184  11.177  20.815  0.00  0.00    +0.000 NA
ATOM     21  C   UNL     1      -0.922  11.762  21.782  0.00  0.00    +0.000 A 
ATOM     22  C   UNL     1      -1.199  11.174  22.988  0.00  0.00    +0.000 A 
ATOM     23  C   UNL     1      -0.648   9.934  23.164  0.00  0.00    +0.000 A 
ATOM     24  N   UNL     1       0.110   9.320  22.236  0.00  0.00    +0.000 NA
ATOM     25  C   UNL     1       1.213   9.914  18.776  0.00  0.00    +0.000 C 
ATOM     26  C   UNL     1       1.272   8.816  17.675  0.00  0.00    +0.000 C 
ENDBRANCH  14  15
ENDBRANCH   1  14
TORSDOF 6
ENDMDL
MODEL 6
REMARK VINA RESULT:      -6.4      3.580      6.807
REMARK  Name = 
REMARK  7 active torsions:
REMARK  status: ('A' for Active; 'I' for Inactive)
REMARK    1  A    between atoms: C_1  and  C_2
REMARK    2  A    between atoms: C_5  and  N_6
REMARK    3  A    between atoms: N_9  and  C_10
REMARK    4  A    between atoms: C_10  and  C_11
REMARK    5  A    between atoms: C_11  and  O_12
REMARK    6  A    between atoms: C_11  and  C_13
REMARK    7  A    between atoms: C_13  and  N_14
REMARK                            x       y       z     vdW  Elec       q    Type
REMARK                         _______ _______ _______ _____ _____    ______ ____
ROOT
ATOM      1  C   UNL     1       4.800   5.157  19.342  0.00  0.00    +0.000 C 
ENDROOT
BRANCH   1   2
ATOM      2  O   UNL     1       6.120   5.595  19.694  0.00  0.00    +0.000 OA
ATOM      3  H   UNL     1       6.058   6.388  20.256  0.00  0.00    +0.000 HD
ENDBRANCH   1   2
BRANCH   1   4
ATOM      4  C   UNL     1       4.871   3.791  18.641  0.00  0.00    +0.000 C 
BRANCH   4  10
ATOM      5  C   UNL     1       2.921   3.432  16.249  0.00  0.00    +0.000 C 
ATOM      6  C   UNL     1       2.701   2.931  17.630  0.00  0.00    +0.000 A 
ATOM      7  N   UNL     1       1.610   2.292  18.019  0.00  0.00    +0.000 NA
ATOM      8  C   UNL     1       1.792   1.991  19.341  0.00  0.00    +0.000 A 
ATOM      9  C   UNL     1       3.022   2.432  19.749  0.00  0.00    +0.000 A 
ATOM     10  N   UNL     1       3.598   3.070  18.680  0.00  0.00    +0.000 N 
BRANCH   9  11
ATOM     11  N   UNL     1       3.607   2.299  21.029  0.00  0.00    +0.000 N 
ATOM     12  O   UNL     1       4.775   1.907  21.071  0.00  0.00    +0.000 OA
ATOM     13  O   UNL     1       2.909   2.623  22.000  0.00  0.00    +0.000 OA
ENDBRANCH   9  11
ENDBRANCH   4  10
ENDBRANCH   1   4
BRANCH   1  14
ATOM     14  C   UNL     1       4.126   6.259  18.474  0.00  0.00    +0.000 C 
BRANCH  14  15
ATOM     15  N   UNL     1       2.658   6.243  18.433  0.00  0.00    +0.000 NA
ATOM     16  C   UNL     1       2.034   6.001  19.759  0.00  0.00    +0.000 C 
ATOM     17  C   UNL     1       2.104   7.177  20.759  0.00  0.00    +0.000 C 
ATOM     18  N   UNL     1       1.530   8.360  20.133  0.00  0.00    +0.000 N 
ATOM     19  C   UNL     1       0.862   9.277  20.909  0.00  0.00    +0.000 A 
ATOM     20  N   UNL     1       0.702  10.531  20.452  0.00  0.00    +0.000 NA
ATOM     21  C   UNL     1      -0.043  11.376  21.195  0.00  0.00    +0.000 A 
ATOM     22  C   UNL     1      -0.651  11.022  22.370  0.00  0.00    +0.000 A 
ATOM     23  C   UNL     1      -0.432   9.730  22.765  0.00  0.00    +0.000 A 
ATOM     24  N   UNL     1       0.319   8.858  22.067  0.00  0.00    +0.000 NA
ATOM     25  C   UNL     1       2.115   8.751  18.857  0.00  0.00    +0.000 C 
ATOM     26  C   UNL     1       2.117   7.529  17.894  0.00  0.00    +0.000 C 
ENDBRANCH  14  15
ENDBRANCH   1  14
TORSDOF 6
ENDMDL
MODEL 7
REMARK VINA RESULT:      -6.4      3.343      7.655
REMARK  Name = 
REMARK  7 active torsions:
REMARK  status: ('A' for Active; 'I' for Inactive)
REMARK    1  A    between atoms: C_1  and  C_2
REMARK    2  A    between atoms: C_5  and  N_6
REMARK    3  A    between atoms: N_9  and  C_10
REMARK    4  A    between atoms: C_10  and  C_11
REMARK    5  A    between atoms: C_11  and  O_12
REMARK    6  A    between atoms: C_11  and  C_13
REMARK    7  A    between atoms: C_13  and  N_14
REMARK                            x       y       z     vdW  Elec       q    Type
REMARK                         _______ _______ _______ _____ _____    ______ ____
ROOT
ATOM      1  C   UNL     1       5.023   4.153  17.755  0.00  0.00    +0.000 C 
ENDROOT
BRANCH   1   2
ATOM      2  O   UNL     1       4.612   2.910  17.169  0.00  0.00    +0.000 OA
ATOM      3  H   UNL     1       5.346   2.541  16.645  0.00  0.00    +0.000 HD
ENDBRANCH   1   2
BRANCH   1   4
ATOM      4  C   UNL     1       6.545   4.153  17.971  0.00  0.00    +0.000 C 
BRANCH   4  10
ATOM      5  C   UNL     1       8.134   5.563  20.237  0.00  0.00    +0.000 C 
ATOM      6  C   UNL     1       7.809   6.150  18.912  0.00  0.00    +0.000 A 
ATOM      7  N   UNL     1       8.132   7.380  18.547  0.00  0.00    +0.000 NA
ATOM      8  C   UNL     1       7.670   7.537  17.270  0.00  0.00    +0.000 A 
ATOM      9  C   UNL     1       7.083   6.375  16.846  0.00  0.00    +0.000 A 
ATOM     10  N   UNL     1       7.127   5.494  17.897  0.00  0.00    +0.000 N 
BRANCH   9  11
ATOM     11  N   UNL     1       6.504   6.109  15.585  0.00  0.00    +0.000 N 
ATOM     12  O   UNL     1       7.164   5.423  14.800  0.00  0.00    +0.000 OA
ATOM     13  O   UNL     1       5.366   6.556  15.385  0.00  0.00    +0.000 OA
ENDBRANCH   9  11
ENDBRANCH   4  10
ENDBRANCH   1   4
BRANCH   1  14
ATOM     14  C   UNL     1       4.216   4.375  19.066  0.00  0.00    +0.000 C 
BRANCH  14  15
ATOM     15  N   UNL     1       2.765   4.540  18.914  0.00  0.00    +0.000 NA
ATOM     16  C   UNL     1       2.061   4.776  20.201  0.00  0.00    +0.000 C 
ATOM     17  C   UNL     1       2.266   6.172  20.833  0.00  0.00    +0.000 C 
ATOM     18  N   UNL     1       1.898   7.187  19.856  0.00  0.00    +0.000 N 
ATOM     19  C   UNL     1       1.344   8.369  20.286  0.00  0.00    +0.000 A 
ATOM     20  N   UNL     1       1.389   9.447  19.485  0.00  0.00    +0.000 NA
ATOM     21  C   UNL     1       0.749  10.560  19.898  0.00  0.00    +0.000 A 
ATOM     22  C   UNL     1       0.050  10.644  21.073  0.00  0.00    +0.000 A 
ATOM     23  C   UNL     1       0.060   9.505  21.831  0.00  0.00    +0.000 A 
ATOM     24  N   UNL     1       0.700   8.378  21.469  0.00  0.00    +0.000 NA
ATOM     25  C   UNL     1       2.583   7.112  18.571  0.00  0.00    +0.000 C 
ATOM     26  C   UNL     1       2.442   5.674  17.995  0.00  0.00    +0.000 C 
ENDBRANCH  14  15
ENDBRANCH   1  14
TORSDOF 6
ENDMDL
MODEL 8
REMARK VINA RESULT:      -6.4      1.412      2.002
REMARK  Name = 
REMARK  7 active torsions:
REMARK  status: ('A' for Active; 'I' for Inactive)
REMARK    1  A    between atoms: C_1  and  C_2
REMARK    2  A    between atoms: C_5  and  N_6
REMARK    3  A    between atoms: N_9  and  C_10
REMARK    4  A    between atoms: C_10  and  C_11
REMARK    5  A    between atoms: C_11  and  O_12
REMARK    6  A    between atoms: C_11  and  C_13
REMARK    7  A    between atoms: C_13  and  N_14
REMARK                            x       y       z     vdW  Elec       q    Type
REMARK                         _______ _______ _______ _____ _____    ______ ____
ROOT
ATOM      1  C   UNL     1       4.427   5.076  19.009  0.00  0.00    +0.000 C 
ENDROOT
BRANCH   1   2
ATOM      2  O   UNL     1       3.796   5.821  20.060  0.00  0.00    +0.000 OA
ATOM      3  H   UNL     1       2.837   5.650  20.046  0.00  0.00    +0.000 HD
ENDBRANCH   1   2
BRANCH   1   4
ATOM      4  C   UNL     1       4.314   3.569  19.294  0.00  0.00    +0.000 C 
BRANCH   4  10
ATOM      5  C   UNL     1       2.897   2.614  16.700  0.00  0.00    +0.000 C 
ATOM      6  C   UNL     1       2.281   2.682  18.049  0.00  0.00    +0.000 A 
ATOM      7  N   UNL     1       1.020   2.372  18.304  0.00  0.00    +0.000 NA
ATOM      8  C   UNL     1       0.843   2.554  19.647  0.00  0.00    +0.000 A 
ATOM      9  C   UNL     1       2.021   2.953  20.218  0.00  0.00    +0.000 A 
ATOM     10  N   UNL     1       2.938   3.079  19.205  0.00  0.00    +0.000 N 
BRANCH   9  11
ATOM     11  N   UNL     1       2.274   3.223  21.582  0.00  0.00    +0.000 N 
ATOM     12  O   UNL     1       2.264   4.406  21.929  0.00  0.00    +0.000 OA
ATOM     13  O   UNL     1       2.447   2.245  22.323  0.00  0.00    +0.000 OA
ENDBRANCH   9  11
ENDBRANCH   4  10
ENDBRANCH   1   4
BRANCH   1  14
ATOM     14  C   UNL     1       5.897   5.566  18.865  0.00  0.00    +0.000 C 
BRANCH  14  15
ATOM     15  N   UNL     1       6.194   6.386  17.684  0.00  0.00    +0.000 NA
ATOM     16  C   UNL     1       7.367   5.902  16.911  0.00  0.00    +0.000 C 
ATOM     17  C   UNL     1       7.147   4.608  16.095  0.00  0.00    +0.000 C 
ATOM     18  N   UNL     1       6.000   4.796  15.218  0.00  0.00    +0.000 N 
ATOM     19  C   UNL     1       5.979   4.176  13.992  0.00  0.00    +0.000 A 
ATOM     20  N   UNL     1       4.802   3.990  13.370  0.00  0.00    +0.000 NA
ATOM     21  C   UNL     1       4.829   3.467  12.126  0.00  0.00    +0.000 A 
ATOM     22  C   UNL     1       5.982   3.135  11.465  0.00  0.00    +0.000 A 
ATOM     23  C   UNL     1       7.133   3.350  12.172  0.00  0.00    +0.000 A 
ATOM     24  N   UNL     1       7.154   3.850  13.422  0.00  0.00    +0.000 NA
ATOM     25  C   UNL     1       4.759   5.195  15.870  0.00  0.00    +0.000 C 
ATOM     26  C   UNL     1       5.022   6.446  16.758  0.00  0.00    +0.000 C 
ENDBRANCH  14  15
ENDBRANCH   1  14
TORSDOF 6
ENDMDL
MODEL 9
REMARK VINA RESULT:      -6.3      1.252      1.971
REMARK  Name = 
REMARK  7 active torsions:
REMARK  status: ('A' for Active; 'I' for Inactive)
REMARK    1  A    between atoms: C_1  and  C_2
REMARK    2  A    between atoms: C_5  and  N_6
REMARK    3  A    between atoms: N_9  and  C_10
REMARK    4  A    between atoms: C_10  and  C_11
REMARK    5  A    between atoms: C_11  and  O_12
REMARK    6  A    between atoms: C_11  and  C_13
REMARK    7  A    between atoms: C_13  and  N_14
REMARK                            x       y       z     vdW  Elec       q    Type
REMARK                         _______ _______ _______ _____ _____    ______ ____
ROOT
ATOM      1  C   UNL     1       4.561   4.071  19.891  0.00  0.00    +0.000 C 
ENDROOT
BRANCH   1   2
ATOM      2  O   UNL     1       4.543   2.817  19.194  0.00  0.00    +0.000 OA
ATOM      3  H   UNL     1       4.477   2.981  18.236  0.00  0.00    +0.000 HD
ENDBRANCH   1   2
BRANCH   1   4
ATOM      4  C   UNL     1       3.159   4.702  19.874  0.00  0.00    +0.000 C 
BRANCH   4  10
ATOM      5  C   UNL     1       1.628   4.465  17.182  0.00  0.00    +0.000 C 
ATOM      6  C   UNL     1       1.390   3.635  18.390  0.00  0.00    +0.000 A 
ATOM      7  N   UNL     1       0.455   2.703  18.475  0.00  0.00    +0.000 NA
ATOM      8  C   UNL     1       0.561   2.165  19.728  0.00  0.00    +0.000 A 
ATOM      9  C   UNL     1       1.593   2.761  20.400  0.00  0.00    +0.000 A 
ATOM     10  N   UNL     1       2.106   3.730  19.575  0.00  0.00    +0.000 N 
BRANCH   9  11
ATOM     11  N   UNL     1       2.052   2.480  21.707  0.00  0.00    +0.000 N 
ATOM     12  O   UNL     1       1.213   2.506  22.611  0.00  0.00    +0.000 OA
ATOM     13  O   UNL     1       3.251   2.193  21.830  0.00  0.00    +0.000 OA
ENDBRANCH   9  11
ENDBRANCH   4  10
ENDBRANCH   1   4
BRANCH   1  14
ATOM     14  C   UNL     1       5.651   4.979  19.253  0.00  0.00    +0.000 C 
BRANCH  14  15
ATOM     15  N   UNL     1       5.202   5.874  18.178  0.00  0.00    +0.000 NA
ATOM     16  C   UNL     1       6.319   6.552  17.472  0.00  0.00    +0.000 C 
ATOM     17  C   UNL     1       7.160   5.661  16.530  0.00  0.00    +0.000 C 
ATOM     18  N   UNL     1       6.269   5.016  15.575  0.00  0.00    +0.000 N 
ATOM     19  C   UNL     1       6.718   4.756  14.303  0.00  0.00    +0.000 A 
ATOM     20  N   UNL     1       6.097   3.819  13.566  0.00  0.00    +0.000 NA
ATOM     21  C   UNL     1       6.502   3.660  12.288  0.00  0.00    +0.000 A 
ATOM     22  C   UNL     1       7.491   4.406  11.705  0.00  0.00    +0.000 A 
ATOM     23  C   UNL     1       8.074   5.332  12.527  0.00  0.00    +0.000 A 
ATOM     24  N   UNL     1       7.717   5.513  13.812  0.00  0.00    +0.000 NA
ATOM     25  C   UNL     1       5.172   4.246  16.148  0.00  0.00    +0.000 C 
ATOM     26  C   UNL     1       4.393   5.134  17.161  0.00  0.00    +0.000 C 
ENDBRANCH  14  15
ENDBRANCH   1  14
TORSDOF 6
ENDMDL
