MODEL 1
REMARK VINA RESULT:      -6.9      0.000      0.000
REMARK  Name = 
REMARK  9 active torsions:
REMARK  status: ('A' for Active; 'I' for Inactive)
REMARK    1  A    between atoms: C_1  and  C_2
REMARK    2  A    between atoms: C_4  and  C_5
REMARK    3  A    between atoms: C_6  and  C_7
REMARK    4  A    between atoms: C_8  and  O_9
REMARK    5  A    between atoms: O_9  and  C_10
REMARK    6  A    between atoms: C_10  and  C_11
REMARK    7  A    between atoms: C_11  and  O_12
REMARK    8  A    between atoms: C_11  and  C_13
REMARK    9  A    between atoms: C_13  and  N_14
REMARK                            x       y       z     vdW  Elec       q    Type
REMARK                         _______ _______ _______ _____ _____    ______ ____
ROOT
ATOM      1  C   UNL     1       2.342   2.626  18.172  0.00  0.00    +0.000 C 
ENDROOT
BRANCH   1   2
ATOM      2  O   UNL     1       1.636   1.428  18.546  0.00  0.00    +0.000 OA
ATOM      3  H   UNL     1       1.708   1.315  19.507  0.00  0.00    +0.000 HD
ENDBRANCH   1   2
BRANCH   1   4
ATOM      4  C   UNL     1       3.751   2.224  17.700  0.00  0.00    +0.000 C 
BRANCH   4   5
ATOM      5  O   UNL     1       4.681   3.189  18.205  0.00  0.00    +0.000 OA
BRANCH   5  13
ATOM      6  C   UNL     1       6.281   4.129  13.604  0.00  0.00    +0.000 C 
ATOM      7  C   UNL     1       6.221   4.453  15.068  0.00  0.00    +0.000 A 
ATOM      8  C   UNL     1       6.904   5.552  15.594  0.00  0.00    +0.000 A 
ATOM      9  C   UNL     1       6.849   5.855  16.966  0.00  0.00    +0.000 A 
ATOM     10  C   UNL     1       7.599   7.056  17.472  0.00  0.00    +0.000 C 
ATOM     11  C   UNL     1       6.088   5.032  17.825  0.00  0.00    +0.000 A 
ATOM     12  C   UNL     1       5.983   5.297  19.309  0.00  0.00    +0.000 C 
ATOM     13  C   UNL     1       5.397   3.924  17.294  0.00  0.00    +0.000 A 
ATOM     14  C   UNL     1       5.469   3.642  15.928  0.00  0.00    +0.000 A 
ENDBRANCH   5  13
ENDBRANCH   4   5
ENDBRANCH   1   4
BRANCH   1  15
ATOM     15  C   UNL     1       2.381   3.592  19.382  0.00  0.00    +0.000 C 
BRANCH  15  16
ATOM     16  N   UNL     1       1.549   4.785  19.253  0.00  0.00    +0.000 NA
ATOM     17  C   UNL     1       1.066   5.395  20.507  0.00  0.00    +0.000 C 
ATOM     18  C   UNL     1       1.738   6.685  21.054  0.00  0.00    +0.000 C 
ATOM     19  N   UNL     1       2.237   7.589  20.006  0.00  0.00    +0.000 N 
ATOM     20  C   UNL     1       1.393   8.609  19.559  0.00  0.00    +0.000 A 
ATOM     21  C   UNL     1       0.727   9.441  20.467  0.00  0.00    +0.000 A 
ATOM     22  C   UNL     1      -0.099  10.469  20.010  0.00  0.00    +0.000 A 
ATOM     23  C   UNL     1      -0.239  10.676  18.644  0.00  0.00    +0.000 A 
ATOM     24  C   UNL     1       0.474   9.845  17.802  0.00  0.00    +0.000 A 
ATOM     25  N   UNL     1       1.275   8.841  18.229  0.00  0.00    +0.000 NA
ATOM     26  C   UNL     1       2.969   6.871  18.950  0.00  0.00    +0.000 C 
ATOM     27  C   UNL     1       2.085   5.784  18.311  0.00  0.00    +0.000 C 
ENDBRANCH  15  16
ENDBRANCH   1  15
TORSDOF 6
ENDMDL
MODEL 2
REMARK VINA RESULT:      -6.9      3.578      6.030
REMARK  Name = 
REMARK  9 active torsions:
REMARK  status: ('A' for Active; 'I' for Inactive)
REMARK    1  A    between atoms: C_1  and  C_2
REMARK    2  A    between atoms: C_4  and  C_5
REMARK    3  A    between atoms: C_6  and  C_7
REMARK    4  A    between atoms: C_8  and  O_9
REMARK    5  A    between atoms: O_9  and  C_10
REMARK    6  A    between atoms: C_10  and  C_11
REMARK    7  A    between atoms: C_11  and  O_12
REMARK    8  A    between atoms: C_11  and  C_13
REMARK    9  A    between atoms: C_13  and  N_14
REMARK                            x       y       z     vdW  Elec       q    Type
REMARK                         _______ _______ _______ _____ _____    ______ ____
ROOT
ATOM      1  C   UNL     1       1.435   9.913  18.305  0.00  0.00    +0.000 C 
ENDROOT
BRANCH   1   2
ATOM      2  O   UNL     1       2.115  11.082  17.810  0.00  0.00    +0.000 OA
ATOM      3  H   UNL     1       3.070  10.954  17.925  0.00  0.00    +0.000 HD
ENDBRANCH   1   2
BRANCH   1   4
ATOM      4  C   UNL     1       2.161   8.669  17.762  0.00  0.00    +0.000 C 
BRANCH   4   5
ATOM      5  O   UNL     1       2.720   7.960  18.874  0.00  0.00    +0.000 OA
BRANCH   5  13
ATOM      6  C   UNL     1       4.263   3.765  16.722  0.00  0.00    +0.000 C 
ATOM      7  C   UNL     1       3.508   4.493  17.795  0.00  0.00    +0.000 A 
ATOM      8  C   UNL     1       2.823   3.797  18.795  0.00  0.00    +0.000 A 
ATOM      9  C   UNL     1       2.114   4.479  19.801  0.00  0.00    +0.000 A 
ATOM     10  C   UNL     1       1.403   3.676  20.854  0.00  0.00    +0.000 C 
ATOM     11  C   UNL     1       2.097   5.891  19.797  0.00  0.00    +0.000 A 
ATOM     12  C   UNL     1       1.357   6.689  20.845  0.00  0.00    +0.000 C 
ATOM     13  C   UNL     1       2.790   6.592  18.789  0.00  0.00    +0.000 A 
ATOM     14  C   UNL     1       3.485   5.893  17.800  0.00  0.00    +0.000 A 
ENDBRANCH   5  13
ENDBRANCH   4   5
ENDBRANCH   1   4
BRANCH   1  15
ATOM     15  C   UNL     1      -0.051   9.964  17.867  0.00  0.00    +0.000 C 
BRANCH  15  16
ATOM     16  N   UNL     1      -1.012  10.155  18.949  0.00  0.00    +0.000 NA
ATOM     17  C   UNL     1      -0.493  10.035  20.325  0.00  0.00    +0.000 C 
ATOM     18  C   UNL     1      -0.232  11.311  21.172  0.00  0.00    +0.000 C 
ATOM     19  N   UNL     1      -1.160  12.417  20.890  0.00  0.00    +0.000 N 
ATOM     20  C   UNL     1      -2.311  12.527  21.675  0.00  0.00    +0.000 A 
ATOM     21  C   UNL     1      -2.238  12.464  23.071  0.00  0.00    +0.000 A 
ATOM     22  C   UNL     1      -3.391  12.595  23.847  0.00  0.00    +0.000 A 
ATOM     23  C   UNL     1      -4.613  12.810  23.222  0.00  0.00    +0.000 A 
ATOM     24  C   UNL     1      -4.612  12.900  21.844  0.00  0.00    +0.000 A 
ATOM     25  N   UNL     1      -3.503  12.770  21.079  0.00  0.00    +0.000 NA
ATOM     26  C   UNL     1      -1.361  12.624  19.447  0.00  0.00    +0.000 C 
ATOM     27  C   UNL     1      -1.877  11.337  18.774  0.00  0.00    +0.000 C 
ENDBRANCH  15  16
ENDBRANCH   1  15
TORSDOF 6
ENDMDL
MODEL 3
REMARK VINA RESULT:      -6.9      4.043      6.506
REMARK  Name = 
REMARK  9 active torsions:
REMARK  status: ('A' for Active; 'I' for Inactive)
REMARK    1  A    between atoms: C_1  and  C_2
REMARK    2  A    between atoms: C_4  and  C_5
REMARK    3  A    between atoms: C_6  and  C_7
REMARK    4  A    between atoms: C_8  and  O_9
REMARK    5  A    between atoms: O_9  and  C_10
REMARK    6  A    between atoms: C_10  and  C_11
REMARK    7  A    between atoms: C_11  and  O_12
REMARK    8  A    between atoms: C_11  and  C_13
REMARK    9  A    between atoms: C_13  and  N_14
REMARK                            x       y       z     vdW  Elec       q    Type
REMARK                         _______ _______ _______ _____ _____    ______ ____
ROOT
ATOM      1  C   UNL     1       1.036  10.053  18.459  0.00  0.00    +0.000 C 
ENDROOT
BRANCH   1   2
ATOM      2  O   UNL     1       2.128  10.272  17.546  0.00  0.00    +0.000 OA
ATOM      3  H   UNL     1       2.951   9.993  17.978  0.00  0.00    +0.000 HD
ENDBRANCH   1   2
BRANCH   1   4
ATOM      4  C   UNL     1       1.385   8.842  19.342  0.00  0.00    +0.000 C 
BRANCH   4   5
ATOM      5  O   UNL     1       2.532   8.196  18.777  0.00  0.00    +0.000 OA
BRANCH   5  13
ATOM      6  C   UNL     1       1.172   3.828  20.695  0.00  0.00    +0.000 C 
ATOM      7  C   UNL     1       1.974   4.647  19.727  0.00  0.00    +0.000 A 
ATOM      8  C   UNL     1       2.843   4.043  18.814  0.00  0.00    +0.000 A 
ATOM      9  C   UNL     1       3.595   4.811  17.908  0.00  0.00    +0.000 A 
ATOM     10  C   UNL     1       4.507   4.104  16.945  0.00  0.00    +0.000 C 
ATOM     11  C   UNL     1       3.469   6.218  17.924  0.00  0.00    +0.000 A 
ATOM     12  C   UNL     1       4.246   7.105  16.980  0.00  0.00    +0.000 C 
ATOM     13  C   UNL     1       2.591   6.827  18.843  0.00  0.00    +0.000 A 
ATOM     14  C   UNL     1       1.856   6.042  19.735  0.00  0.00    +0.000 A 
ENDBRANCH   5  13
ENDBRANCH   4   5
ENDBRANCH   1   4
BRANCH   1  15
ATOM     15  C   UNL     1      -0.267   9.834  17.649  0.00  0.00    +0.000 C 
BRANCH  15  16
ATOM     16  N   UNL     1      -1.502   9.907  18.426  0.00  0.00    +0.000 NA
ATOM     17  C   UNL     1      -1.599  10.998  19.414  0.00  0.00    +0.000 C 
ATOM     18  C   UNL     1      -2.458  12.255  19.103  0.00  0.00    +0.000 C 
ATOM     19  N   UNL     1      -3.642  11.980  18.275  0.00  0.00    +0.000 N 
ATOM     20  C   UNL     1      -4.852  11.715  18.922  0.00  0.00    +0.000 A 
ATOM     21  C   UNL     1      -5.315  12.546  19.949  0.00  0.00    +0.000 A 
ATOM     22  C   UNL     1      -6.534  12.284  20.576  0.00  0.00    +0.000 A 
ATOM     23  C   UNL     1      -7.298  11.203  20.158  0.00  0.00    +0.000 A 
ATOM     24  C   UNL     1      -6.803  10.444  19.115  0.00  0.00    +0.000 A 
ATOM     25  N   UNL     1      -5.621  10.683  18.500  0.00  0.00    +0.000 NA
ATOM     26  C   UNL     1      -3.335  11.103  17.133  0.00  0.00    +0.000 C 
ATOM     27  C   UNL     1      -2.724   9.772  17.613  0.00  0.00    +0.000 C 
ENDBRANCH  15  16
ENDBRANCH   1  15
TORSDOF 6
ENDMDL
MODEL 4
REMARK VINA RESULT:      -6.8      2.697      7.960
REMARK  Name = 
REMARK  9 active torsions:
REMARK  status: ('A' for Active; 'I' for Inactive)
REMARK    1  A    between atoms: C_1  and  C_2
REMARK    2  A    between atoms: C_4  and  C_5
REMARK    3  A    between atoms: C_6  and  C_7
REMARK    4  A    between atoms: C_8  and  O_9
REMARK    5  A    between atoms: O_9  and  C_10
REMARK    6  A    between atoms: C_10  and  C_11
REMARK    7  A    between atoms: C_11  and  O_12
REMARK    8  A    between atoms: C_11  and  C_13
REMARK    9  A    between atoms: C_13  and  N_14
REMARK                            x       y       z     vdW  Elec       q    Type
REMARK                         _______ _______ _______ _____ _____    ______ ____
ROOT
ATOM      1  C   UNL     1       2.538   5.302  19.109  0.00  0.00    +0.000 C 
ENDROOT
BRANCH   1   2
ATOM      2  O   UNL     1       1.789   5.559  17.906  0.00  0.00    +0.000 OA
ATOM      3  H   UNL     1       0.867   5.738  18.149  0.00  0.00    +0.000 HD
ENDBRANCH   1   2
BRANCH   1   4
ATOM      4  C   UNL     1       2.211   6.412  20.123  0.00  0.00    +0.000 C 
BRANCH   4   5
ATOM      5  O   UNL     1       2.043   7.639  19.402  0.00  0.00    +0.000 OA
BRANCH   5  13
ATOM      6  C   UNL     1      -0.339   9.608  23.282  0.00  0.00    +0.000 C 
ATOM      7  C   UNL     1       0.174   9.688  21.875  0.00  0.00    +0.000 A 
ATOM      8  C   UNL     1      -0.025  10.832  21.097  0.00  0.00    +0.000 A 
ATOM      9  C   UNL     1       0.455  10.907  19.777  0.00  0.00    +0.000 A 
ATOM     10  C   UNL     1       0.217  12.167  18.992  0.00  0.00    +0.000 C 
ATOM     11  C   UNL     1       1.150   9.805  19.231  0.00  0.00    +0.000 A 
ATOM     12  C   UNL     1       1.693   9.815  17.821  0.00  0.00    +0.000 C 
ATOM     13  C   UNL     1       1.352   8.652  20.017  0.00  0.00    +0.000 A 
ATOM     14  C   UNL     1       0.864   8.601  21.324  0.00  0.00    +0.000 A 
ENDBRANCH   5  13
ENDBRANCH   4   5
ENDBRANCH   1   4
BRANCH   1  15
ATOM     15  C   UNL     1       4.048   5.247  18.765  0.00  0.00    +0.000 C 
BRANCH  15  16
ATOM     16  N   UNL     1       4.366   5.350  17.343  0.00  0.00    +0.000 NA
ATOM     17  C   UNL     1       5.389   6.345  16.964  0.00  0.00    +0.000 C 
ATOM     18  C   UNL     1       6.831   5.883  16.614  0.00  0.00    +0.000 C 
ATOM     19  N   UNL     1       6.896   4.561  15.971  0.00  0.00    +0.000 N 
ATOM     20  C   UNL     1       6.889   4.507  14.574  0.00  0.00    +0.000 A 
ATOM     21  C   UNL     1       7.744   5.319  13.820  0.00  0.00    +0.000 A 
ATOM     22  C   UNL     1       7.744   5.243  12.426  0.00  0.00    +0.000 A 
ATOM     23  C   UNL     1       6.902   4.338  11.792  0.00  0.00    +0.000 A 
ATOM     24  C   UNL     1       6.111   3.540  12.595  0.00  0.00    +0.000 A 
ATOM     25  N   UNL     1       6.097   3.605  13.947  0.00  0.00    +0.000 NA
ATOM     26  C   UNL     1       6.041   3.570  16.643  0.00  0.00    +0.000 C 
ATOM     27  C   UNL     1       4.576   4.047  16.686  0.00  0.00    +0.000 C 
ENDBRANCH  15  16
ENDBRANCH   1  15
TORSDOF 6
ENDMDL
MODEL 5
REMARK VINA RESULT:      -6.8      2.221      6.828
REMARK  Name = 
REMARK  9 active torsions:
REMARK  status: ('A' for Active; 'I' for Inactive)
REMARK    1  A    between atoms: C_1  and  C_2
REMARK    2  A    between atoms: C_4  and  C_5
REMARK    3  A    between atoms: C_6  and  C_7
REMARK    4  A    between atoms: C_8  and  O_9
REMARK    5  A    between atoms: O_9  and  C_10
REMARK    6  A    between atoms: C_10  and  C_11
REMARK    7  A    between atoms: C_11  and  O_12
REMARK    8  A    between atoms: C_11  and  C_13
REMARK    9  A    between atoms: C_13  and  N_14
REMARK                            x       y       z     vdW  Elec       q    Type
REMARK                         _______ _______ _______ _____ _____    ______ ____
ROOT
ATOM      1  C   UNL     1       2.439   3.940  21.021  0.00  0.00    +0.000 C 
ENDROOT
BRANCH   1   2
ATOM      2  O   UNL     1       2.199   3.533  22.381  0.00  0.00    +0.000 OA
ATOM      3  H   UNL     1       1.740   2.678  22.370  0.00  0.00    +0.000 HD
ENDBRANCH   1   2
BRANCH   1   4
ATOM      4  C   UNL     1       1.414   5.029  20.658  0.00  0.00    +0.000 C 
BRANCH   4   5
ATOM      5  O   UNL     1       2.133   6.188  20.217  0.00  0.00    +0.000 OA
BRANCH   5  13
ATOM      6  C   UNL     1      -0.330   9.427  23.053  0.00  0.00    +0.000 C 
ATOM      7  C   UNL     1       0.370   9.062  21.778  0.00  0.00    +0.000 A 
ATOM      8  C   UNL     1       0.492   9.980  20.731  0.00  0.00    +0.000 A 
ATOM      9  C   UNL     1       1.147   9.638  19.535  0.00  0.00    +0.000 A 
ATOM     10  C   UNL     1       1.254  10.671  18.448  0.00  0.00    +0.000 C 
ATOM     11  C   UNL     1       1.690   8.342  19.391  0.00  0.00    +0.000 A 
ATOM     12  C   UNL     1       2.407   7.905  18.135  0.00  0.00    +0.000 C 
ATOM     13  C   UNL     1       1.569   7.416  20.448  0.00  0.00    +0.000 A 
ATOM     14  C   UNL     1       0.911   7.780  21.626  0.00  0.00    +0.000 A 
ENDBRANCH   5  13
ENDBRANCH   4   5
ENDBRANCH   1   4
BRANCH   1  15
ATOM     15  C   UNL     1       2.335   2.703  20.093  0.00  0.00    +0.000 C 
BRANCH  15  16
ATOM     16  N   UNL     1       3.210   2.727  18.925  0.00  0.00    +0.000 NA
ATOM     17  C   UNL     1       2.602   3.155  17.650  0.00  0.00    +0.000 C 
ATOM     18  C   UNL     1       2.869   4.584  17.102  0.00  0.00    +0.000 C 
ATOM     19  N   UNL     1       4.204   5.110  17.429  0.00  0.00    +0.000 N 
ATOM     20  C   UNL     1       5.234   4.916  16.504  0.00  0.00    +0.000 A 
ATOM     21  C   UNL     1       5.049   5.215  15.149  0.00  0.00    +0.000 A 
ATOM     22  C   UNL     1       6.090   5.036  14.237  0.00  0.00    +0.000 A 
ATOM     23  C   UNL     1       7.321   4.577  14.688  0.00  0.00    +0.000 A 
ATOM     24  C   UNL     1       7.449   4.335  16.042  0.00  0.00    +0.000 A 
ATOM     25  N   UNL     1       6.448   4.500  16.937  0.00  0.00    +0.000 NA
ATOM     26  C   UNL     1       4.569   4.874  18.835  0.00  0.00    +0.000 C 
ATOM     27  C   UNL     1       4.513   3.371  19.172  0.00  0.00    +0.000 C 
ENDBRANCH  15  16
ENDBRANCH   1  15
TORSDOF 6
ENDMDL
MODEL 6
REMARK VINA RESULT:      -6.8      3.533      5.498
REMARK  Name = 
REMARK  9 active torsions:
REMARK  status: ('A' for Active; 'I' for Inactive)
REMARK    1  A    between atoms: C_1  and  C_2
REMARK    2  A    between atoms: C_4  and  C_5
REMARK    3  A    between atoms: C_6  and  C_7
REMARK    4  A    between atoms: C_8  and  O_9
REMARK    5  A    between atoms: O_9  and  C_10
REMARK    6  A    between atoms: C_10  and  C_11
REMARK    7  A    between atoms: C_11  and  O_12
REMARK    8  A    between atoms: C_11  and  C_13
REMARK    9  A    between atoms: C_13  and  N_14
REMARK                            x       y       z     vdW  Elec       q    Type
REMARK                         _______ _______ _______ _____ _____    ______ ____
ROOT
ATOM      1  C   UNL     1       1.620   9.507  18.344  0.00  0.00    +0.000 C 
ENDROOT
BRANCH   1   2
ATOM      2  O   UNL     1       0.406   9.475  17.571  0.00  0.00    +0.000 OA
ATOM      3  H   UNL     1      -0.239  10.070  17.984  0.00  0.00    +0.000 HD
ENDBRANCH   1   2
BRANCH   1   4
ATOM      4  C   UNL     1       2.532   8.369  17.852  0.00  0.00    +0.000 C 
BRANCH   4   5
ATOM      5  O   UNL     1       2.566   7.357  18.866  0.00  0.00    +0.000 OA
BRANCH   5  13
ATOM      6  C   UNL     1       5.135   4.284  15.939  0.00  0.00    +0.000 C 
ATOM      7  C   UNL     1       4.253   4.541  17.125  0.00  0.00    +0.000 A 
ATOM      8  C   UNL     1       3.836   3.497  17.955  0.00  0.00    +0.000 A 
ATOM      9  C   UNL     1       3.008   3.737  19.067  0.00  0.00    +0.000 A 
ATOM     10  C   UNL     1       2.599   2.574  19.927  0.00  0.00    +0.000 C 
ATOM     11  C   UNL     1       2.593   5.057  19.346  0.00  0.00    +0.000 A 
ATOM     12  C   UNL     1       1.704   5.389  20.522  0.00  0.00    +0.000 C 
ATOM     13  C   UNL     1       3.015   6.111  18.509  0.00  0.00    +0.000 A 
ATOM     14  C   UNL     1       3.836   5.847  17.410  0.00  0.00    +0.000 A 
ENDBRANCH   5  13
ENDBRANCH   4   5
ENDBRANCH   1   4
BRANCH   1  15
ATOM     15  C   UNL     1       1.270   9.371  19.847  0.00  0.00    +0.000 C 
BRANCH  15  16
ATOM     16  N   UNL     1      -0.042   9.888  20.229  0.00  0.00    +0.000 NA
ATOM     17  C   UNL     1      -0.601   9.398  21.504  0.00  0.00    +0.000 C 
ATOM     18  C   UNL     1      -0.570  10.305  22.765  0.00  0.00    +0.000 C 
ATOM     19  N   UNL     1      -0.699  11.741  22.474  0.00  0.00    +0.000 N 
ATOM     20  C   UNL     1      -1.976  12.307  22.498  0.00  0.00    +0.000 A 
ATOM     21  C   UNL     1      -2.843  12.078  23.573  0.00  0.00    +0.000 A 
ATOM     22  C   UNL     1      -4.110  12.663  23.597  0.00  0.00    +0.000 A 
ATOM     23  C   UNL     1      -4.497  13.495  22.554  0.00  0.00    +0.000 A 
ATOM     24  C   UNL     1      -3.582  13.710  21.543  0.00  0.00    +0.000 A 
ATOM     25  N   UNL     1      -2.352  13.146  21.503  0.00  0.00    +0.000 NA
ATOM     26  C   UNL     1       0.154  12.161  21.349  0.00  0.00    +0.000 C 
ATOM     27  C   UNL     1      -0.171  11.349  20.081  0.00  0.00    +0.000 C 
ENDBRANCH  15  16
ENDBRANCH   1  15
TORSDOF 6
ENDMDL
MODEL 7
REMARK VINA RESULT:      -6.8      3.504      5.720
REMARK  Name = 
REMARK  9 active torsions:
REMARK  status: ('A' for Active; 'I' for Inactive)
REMARK    1  A    between atoms: C_1  and  C_2
REMARK    2  A    between atoms: C_4  and  C_5
REMARK    3  A    between atoms: C_6  and  C_7
REMARK    4  A    between atoms: C_8  and  O_9
REMARK    5  A    between atoms: O_9  and  C_10
REMARK    6  A    between atoms: C_10  and  C_11
REMARK    7  A    between atoms: C_11  and  O_12
REMARK    8  A    between atoms: C_11  and  C_13
REMARK    9  A    between atoms: C_13  and  N_14
REMARK                            x       y       z     vdW  Elec       q    Type
REMARK                         _______ _______ _______ _____ _____    ______ ____
ROOT
ATOM      1  C   UNL     1       1.476   9.645  18.533  0.00  0.00    +0.000 C 
ENDROOT
BRANCH   1   2
ATOM      2  O   UNL     1       2.328  10.066  17.451  0.00  0.00    +0.000 OA
ATOM      3  H   UNL     1       3.221   9.721  17.609  0.00  0.00    +0.000 HD
ENDBRANCH   1   2
BRANCH   1   4
ATOM      4  C   UNL     1       1.853   8.200  18.905  0.00  0.00    +0.000 C 
BRANCH   4   5
ATOM      5  O   UNL     1       2.836   7.742  17.969  0.00  0.00    +0.000 OA
BRANCH   5  13
ATOM      6  C   UNL     1       1.235   3.068  18.412  0.00  0.00    +0.000 C 
ATOM      7  C   UNL     1       2.265   4.071  17.983  0.00  0.00    +0.000 A 
ATOM      8  C   UNL     1       3.455   3.667  17.372  0.00  0.00    +0.000 A 
ATOM      9  C   UNL     1       4.422   4.607  16.970  0.00  0.00    +0.000 A 
ATOM     10  C   UNL     1       5.680   4.113  16.311  0.00  0.00    +0.000 C 
ATOM     11  C   UNL     1       4.183   5.981  17.190  0.00  0.00    +0.000 A 
ATOM     12  C   UNL     1       5.175   7.045  16.785  0.00  0.00    +0.000 C 
ATOM     13  C   UNL     1       2.981   6.388  17.805  0.00  0.00    +0.000 A 
ATOM     14  C   UNL     1       2.037   5.435  18.196  0.00  0.00    +0.000 A 
ENDBRANCH   5  13
ENDBRANCH   4   5
ENDBRANCH   1   4
BRANCH   1  15
ATOM     15  C   UNL     1      -0.004   9.772  18.095  0.00  0.00    +0.000 C 
BRANCH  15  16
ATOM     16  N   UNL     1      -0.953  10.024  19.176  0.00  0.00    +0.000 NA
ATOM     17  C   UNL     1      -0.398  10.096  20.541  0.00  0.00    +0.000 C 
ATOM     18  C   UNL     1      -0.205  11.476  21.230  0.00  0.00    +0.000 C 
ATOM     19  N   UNL     1      -1.212  12.480  20.851  0.00  0.00    +0.000 N 
ATOM     20  C   UNL     1      -2.351  12.605  21.651  0.00  0.00    +0.000 A 
ATOM     21  C   UNL     1      -2.244  12.708  23.043  0.00  0.00    +0.000 A 
ATOM     22  C   UNL     1      -3.387  12.852  23.832  0.00  0.00    +0.000 A 
ATOM     23  C   UNL     1      -4.633  12.915  23.222  0.00  0.00    +0.000 A 
ATOM     24  C   UNL     1      -4.667  12.845  21.843  0.00  0.00    +0.000 A 
ATOM     25  N   UNL     1      -3.569  12.701  21.066  0.00  0.00    +0.000 NA
ATOM     26  C   UNL     1      -1.457  12.506  19.400  0.00  0.00    +0.000 C 
ATOM     27  C   UNL     1      -1.899  11.119  18.893  0.00  0.00    +0.000 C 
ENDBRANCH  15  16
ENDBRANCH   1  15
TORSDOF 6
ENDMDL
MODEL 8
REMARK VINA RESULT:      -6.8      3.735      5.651
REMARK  Name = 
REMARK  9 active torsions:
REMARK  status: ('A' for Active; 'I' for Inactive)
REMARK    1  A    between atoms: C_1  and  C_2
REMARK    2  A    between atoms: C_4  and  C_5
REMARK    3  A    between atoms: C_6  and  C_7
REMARK    4  A    between atoms: C_8  and  O_9
REMARK    5  A    between atoms: O_9  and  C_10
REMARK    6  A    between atoms: C_10  and  C_11
REMARK    7  A    between atoms: C_11  and  O_12
REMARK    8  A    between atoms: C_11  and  C_13
REMARK    9  A    between atoms: C_13  and  N_14
REMARK                            x       y       z     vdW  Elec       q    Type
REMARK                         _______ _______ _______ _____ _____    ______ ____
ROOT
ATOM      1  C   UNL     1       1.258   8.260  20.311  0.00  0.00    +0.000 C 
ENDROOT
BRANCH   1   2
ATOM      2  O   UNL     1       1.928   8.074  21.572  0.00  0.00    +0.000 OA
ATOM      3  H   UNL     1       1.287   7.731  22.214  0.00  0.00    +0.000 HD
ENDBRANCH   1   2
BRANCH   1   4
ATOM      4  C   UNL     1       2.222   7.837  19.189  0.00  0.00    +0.000 C 
BRANCH   4   5
ATOM      5  O   UNL     1       2.908   6.654  19.614  0.00  0.00    +0.000 OA
BRANCH   5  13
ATOM      6  C   UNL     1       5.712   5.477  15.695  0.00  0.00    +0.000 C 
ATOM      7  C   UNL     1       4.682   5.127  16.728  0.00  0.00    +0.000 A 
ATOM      8  C   UNL     1       4.094   3.860  16.763  0.00  0.00    +0.000 A 
ATOM      9  C   UNL     1       3.126   3.532  17.730  0.00  0.00    +0.000 A 
ATOM     10  C   UNL     1       2.536   2.150  17.722  0.00  0.00    +0.000 C 
ATOM     11  C   UNL     1       2.744   4.504  18.681  0.00  0.00    +0.000 A 
ATOM     12  C   UNL     1       1.712   4.223  19.748  0.00  0.00    +0.000 C 
ATOM     13  C   UNL     1       3.339   5.782  18.647  0.00  0.00    +0.000 A 
ATOM     14  C   UNL     1       4.296   6.084  17.675  0.00  0.00    +0.000 A 
ENDBRANCH   5  13
ENDBRANCH   4   5
ENDBRANCH   1   4
BRANCH   1  15
ATOM     15  C   UNL     1       0.820   9.741  20.182  0.00  0.00    +0.000 C 
BRANCH  15  16
ATOM     16  N   UNL     1      -0.524  10.036  20.671  0.00  0.00    +0.000 NA
ATOM     17  C   UNL     1      -0.768   9.819  22.110  0.00  0.00    +0.000 C 
ATOM     18  C   UNL     1      -0.824  11.031  23.081  0.00  0.00    +0.000 C 
ATOM     19  N   UNL     1      -1.369  12.257  22.477  0.00  0.00    +0.000 N 
ATOM     20  C   UNL     1      -2.738  12.504  22.608  0.00  0.00    +0.000 A 
ATOM     21  C   UNL     1      -3.371  12.403  23.853  0.00  0.00    +0.000 A 
ATOM     22  C   UNL     1      -4.735  12.671  23.976  0.00  0.00    +0.000 A 
ATOM     23  C   UNL     1      -5.458  13.061  22.857  0.00  0.00    +0.000 A 
ATOM     24  C   UNL     1      -4.768  13.178  21.667  0.00  0.00    +0.000 A 
ATOM     25  N   UNL     1      -3.447  12.917  21.530  0.00  0.00    +0.000 NA
ATOM     26  C   UNL     1      -0.808  12.519  21.142  0.00  0.00    +0.000 C 
ATOM     27  C   UNL     1      -1.058  11.327  20.198  0.00  0.00    +0.000 C 
ENDBRANCH  15  16
ENDBRANCH   1  15
TORSDOF 6
ENDMDL
MODEL 9
REMARK VINA RESULT:      -6.7      3.554      5.832
REMARK  Name = 
REMARK  9 active torsions:
REMARK  status: ('A' for Active; 'I' for Inactive)
REMARK    1  A    between atoms: C_1  and  C_2
REMARK    2  A    between atoms: C_4  and  C_5
REMARK    3  A    between atoms: C_6  and  C_7
REMARK    4  A    between atoms: C_8  and  O_9
REMARK    5  A    between atoms: O_9  and  C_10
REMARK    6  A    between atoms: C_10  and  C_11
REMARK    7  A    between atoms: C_11  and  O_12
REMARK    8  A    between atoms: C_11  and  C_13
REMARK    9  A    between atoms: C_13  and  N_14
REMARK                            x       y       z     vdW  Elec       q    Type
REMARK                         _______ _______ _______ _____ _____    ______ ____
ROOT
ATOM      1  C   UNL     1       1.694   9.608  18.215  0.00  0.00    +0.000 C 
ENDROOT
BRANCH   1   2
ATOM      2  O   UNL     1       2.328  10.704  17.529  0.00  0.00    +0.000 OA
ATOM      3  H   UNL     1       1.755  10.981  16.796  0.00  0.00    +0.000 HD
ENDBRANCH   1   2
BRANCH   1   4
ATOM      4  C   UNL     1       2.053   8.307  17.475  0.00  0.00    +0.000 C 
BRANCH   4   5
ATOM      5  O   UNL     1       2.849   7.501  18.353  0.00  0.00    +0.000 OA
BRANCH   5  13
ATOM      6  C   UNL     1       1.170   2.838  18.568  0.00  0.00    +0.000 C 
ATOM      7  C   UNL     1       2.189   3.851  18.135  0.00  0.00    +0.000 A 
ATOM      8  C   UNL     1       3.318   3.473  17.404  0.00  0.00    +0.000 A 
ATOM      9  C   UNL     1       4.274   4.422  16.999  0.00  0.00    +0.000 A 
ATOM     10  C   UNL     1       5.464   3.957  16.208  0.00  0.00    +0.000 C 
ATOM     11  C   UNL     1       4.086   5.780  17.340  0.00  0.00    +0.000 A 
ATOM     12  C   UNL     1       5.071   6.853  16.939  0.00  0.00    +0.000 C 
ATOM     13  C   UNL     1       2.946   6.161  18.076  0.00  0.00    +0.000 A 
ATOM     14  C   UNL     1       2.012   5.199  18.468  0.00  0.00    +0.000 A 
ENDBRANCH   5  13
ENDBRANCH   4   5
ENDBRANCH   1   4
BRANCH   1  15
ATOM     15  C   UNL     1       0.165   9.854  18.264  0.00  0.00    +0.000 C 
BRANCH  15  16
ATOM     16  N   UNL     1      -0.341  10.374  19.531  0.00  0.00    +0.000 NA
ATOM     17  C   UNL     1       0.661  10.905  20.476  0.00  0.00    +0.000 C 
ATOM     18  C   UNL     1       0.843  12.440  20.635  0.00  0.00    +0.000 C 
ATOM     19  N   UNL     1      -0.397  13.212  20.454  0.00  0.00    +0.000 N 
ATOM     20  C   UNL     1      -1.158  13.513  21.587  0.00  0.00    +0.000 A 
ATOM     21  C   UNL     1      -0.559  14.053  22.731  0.00  0.00    +0.000 A 
ATOM     22  C   UNL     1      -1.331  14.369  23.851  0.00  0.00    +0.000 A 
ATOM     23  C   UNL     1      -2.704  14.162  23.814  0.00  0.00    +0.000 A 
ATOM     24  C   UNL     1      -3.237  13.661  22.642  0.00  0.00    +0.000 A 
ATOM     25  N   UNL     1      -2.501  13.346  21.550  0.00  0.00    +0.000 NA
ATOM     26  C   UNL     1      -1.166  12.766  19.281  0.00  0.00    +0.000 C 
ATOM     27  C   UNL     1      -1.505  11.266  19.384  0.00  0.00    +0.000 C 
ENDBRANCH  15  16
ENDBRANCH   1  15
TORSDOF 6
ENDMDL
