MODEL 1
REMARK VINA RESULT:      -6.9      0.000      0.000
REMARK  Name = 
REMARK  7 active torsions:
REMARK  status: ('A' for Active; 'I' for Inactive)
REMARK    1  A    between atoms: C_1  and  N_2
REMARK    2  A    between atoms: N_2  and  C_14
REMARK    3  A    between atoms: C_3  and  C_5
REMARK    4  A    between atoms: C_5  and  C_6
REMARK    5  A    between atoms: C_6  and  N_7
REMARK    6  A    between atoms: C_6  and  C_8
REMARK    7  A    between atoms: C_8  and  C_9
REMARK                            x       y       z     vdW  Elec       q    Type
REMARK                         _______ _______ _______ _____ _____    ______ ____
ROOT
ATOM      1  C   UNL     1       4.391   7.144  17.144  0.00  0.00    +0.000 C 
ATOM      2  N   UNL     1       4.815   6.018  17.974  0.00  0.00    +0.000 N 
ATOM      3  C   UNL     1       4.340   5.744  19.248  0.00  0.00    +0.000 C 
ATOM      4  O   UNL     1       4.894   4.920  19.977  0.00  0.00    +0.000 OA
ENDROOT
BRANCH   2   5
ATOM      5  C   UNL     1       5.860   5.115  17.428  0.00  0.00    +0.000 C 
ATOM      6  C   UNL     1       7.021   5.889  16.809  0.00  0.00    +0.000 C 
ATOM      7  N   UNL     1       7.349   5.437  15.487  0.00  0.00    +0.000 N 
ATOM      8  C   UNL     1       6.545   4.635  14.758  0.00  0.00    +0.000 C 
ATOM      9  N   UNL     1       6.778   4.485  13.418  0.00  0.00    +0.000 N 
ATOM     10  C   UNL     1       7.758   5.090  12.675  0.00  0.00    +0.000 C 
ATOM     11  N   UNL     1       7.711   4.768  11.352  0.00  0.00    +0.000 N 
ATOM     12  O   UNL     1       8.587   5.881  13.103  0.00  0.00    +0.000 OA
ATOM     13  N   UNL     1       5.544   3.966  15.198  0.00  0.00    +0.000 NA
ATOM     14  C   UNL     1       5.242   4.023  16.537  0.00  0.00    +0.000 C 
ATOM     15  O   UNL     1       4.386   3.273  17.009  0.00  0.00    +0.000 OA
ATOM     16  H   UNL     1       8.046   5.979  14.968  0.00  0.00    +0.000 HD
ATOM     17  H   UNL     1       6.134   3.862  12.956  0.00  0.00    +0.000 HD
ATOM     18  H   UNL     1       7.310   3.898  11.045  0.00  0.00    +0.000 HD
ATOM     19  H   UNL     1       8.486   5.122  10.806  0.00  0.00    +0.000 HD
ENDBRANCH   2   5
BRANCH   3  20
ATOM     20  C   UNL     1       3.112   6.515  19.696  0.00  0.00    +0.000 C 
BRANCH  20  21
ATOM     21  C   UNL     1       2.083   5.660  20.451  0.00  0.00    +0.000 C 
BRANCH  21  22
ATOM     22  N   UNL     1       1.153   6.488  21.231  0.00  0.00    +0.000 NA
ATOM     23  H   UNL     1       1.516   7.434  21.336  0.00  0.00    +0.000 HD
ATOM     24  H   UNL     1       1.113   6.098  22.180  0.00  0.00    +0.000 HD
ENDBRANCH  21  22
BRANCH  21  25
ATOM     25  C   UNL     1       1.242   4.797  19.485  0.00  0.00    +0.000 C 
BRANCH  25  26
ATOM     26  C   UNL     1       0.928   3.376  19.998  0.00  0.00    +0.000 C 
ATOM     27  C   UNL     1       2.094   2.802  20.800  0.00  0.00    +0.000 C 
ATOM     28  C   UNL     1       2.908   2.078  19.750  0.00  0.00    +0.000 C 
ATOM     29  N   UNL     1       1.900   1.451  18.898  0.00  0.00    +0.000 NA
ATOM     30  C   UNL     1       0.744   2.360  18.866  0.00  0.00    +0.000 C 
ATOM     31  H   UNL     1       1.604   0.572  19.329  0.00  0.00    +0.000 HD
ENDBRANCH  25  26
ENDBRANCH  21  25
ENDBRANCH  20  21
ENDBRANCH   3  20
TORSDOF 6
ENDMDL
MODEL 2
REMARK VINA RESULT:      -6.9      5.658      8.121
REMARK  Name = 
REMARK  7 active torsions:
REMARK  status: ('A' for Active; 'I' for Inactive)
REMARK    1  A    between atoms: C_1  and  N_2
REMARK    2  A    between atoms: N_2  and  C_14
REMARK    3  A    between atoms: C_3  and  C_5
REMARK    4  A    between atoms: C_5  and  C_6
REMARK    5  A    between atoms: C_6  and  N_7
REMARK    6  A    between atoms: C_6  and  C_8
REMARK    7  A    between atoms: C_8  and  C_9
REMARK                            x       y       z     vdW  Elec       q    Type
REMARK                         _______ _______ _______ _____ _____    ______ ____
ROOT
ATOM      1  C   UNL     1       0.707   9.826  20.809  0.00  0.00    +0.000 C 
ATOM      2  N   UNL     1       1.170   9.459  19.471  0.00  0.00    +0.000 N 
ATOM      3  C   UNL     1       1.859   8.297  19.157  0.00  0.00    +0.000 C 
ATOM      4  O   UNL     1       2.412   8.153  18.067  0.00  0.00    +0.000 OA
ENDROOT
BRANCH   2   5
ATOM      5  C   UNL     1       0.913  10.418  18.367  0.00  0.00    +0.000 C 
ATOM      6  C   UNL     1       1.824  11.640  18.445  0.00  0.00    +0.000 C 
ATOM      7  N   UNL     1       1.105  12.878  18.354  0.00  0.00    +0.000 N 
ATOM      8  C   UNL     1      -0.235  12.967  18.486  0.00  0.00    +0.000 C 
ATOM      9  N   UNL     1      -0.815  14.192  18.679  0.00  0.00    +0.000 N 
ATOM     10  C   UNL     1      -0.178  15.401  18.782  0.00  0.00    +0.000 C 
ATOM     11  N   UNL     1      -1.028  16.442  19.010  0.00  0.00    +0.000 N 
ATOM     12  O   UNL     1       1.031  15.575  18.724  0.00  0.00    +0.000 OA
ATOM     13  N   UNL     1      -1.065  11.991  18.450  0.00  0.00    +0.000 NA
ATOM     14  C   UNL     1      -0.590  10.721  18.230  0.00  0.00    +0.000 C 
ATOM     15  O   UNL     1      -1.376   9.792  18.037  0.00  0.00    +0.000 OA
ATOM     16  H   UNL     1       1.637  13.740  18.505  0.00  0.00    +0.000 HD
ATOM     17  H   UNL     1      -1.818  14.163  18.759  0.00  0.00    +0.000 HD
ATOM     18  H   UNL     1      -1.988  16.400  18.713  0.00  0.00    +0.000 HD
ATOM     19  H   UNL     1      -0.590  17.354  18.986  0.00  0.00    +0.000 HD
ENDBRANCH   2   5
BRANCH   3  20
ATOM     20  C   UNL     1       1.902   7.221  20.227  0.00  0.00    +0.000 C 
BRANCH  20  21
ATOM     21  C   UNL     1       2.381   5.855  19.715  0.00  0.00    +0.000 C 
BRANCH  21  22
ATOM     22  N   UNL     1       3.842   5.720  19.807  0.00  0.00    +0.000 NA
ATOM     23  H   UNL     1       4.095   5.047  20.529  0.00  0.00    +0.000 HD
ATOM     24  H   UNL     1       4.216   6.622  20.123  0.00  0.00    +0.000 HD
ENDBRANCH  21  22
BRANCH  21  25
ATOM     25  C   UNL     1       1.753   4.695  20.518  0.00  0.00    +0.000 C 
BRANCH  25  26
ATOM     26  C   UNL     1       1.058   3.618  19.657  0.00  0.00    +0.000 C 
ATOM     27  C   UNL     1       1.672   2.239  19.886  0.00  0.00    +0.000 C 
ATOM     28  C   UNL     1       2.753   2.166  18.832  0.00  0.00    +0.000 C 
ATOM     29  N   UNL     1       2.139   2.785  17.659  0.00  0.00    +0.000 NA
ATOM     30  C   UNL     1       1.247   3.844  18.153  0.00  0.00    +0.000 C 
ATOM     31  H   UNL     1       1.570   2.086  17.177  0.00  0.00    +0.000 HD
ENDBRANCH  25  26
ENDBRANCH  21  25
ENDBRANCH  20  21
ENDBRANCH   3  20
TORSDOF 6
ENDMDL
MODEL 3
REMARK VINA RESULT:      -6.9      3.251      5.200
REMARK  Name = 
REMARK  7 active torsions:
REMARK  status: ('A' for Active; 'I' for Inactive)
REMARK    1  A    between atoms: C_1  and  N_2
REMARK    2  A    between atoms: N_2  and  C_14
REMARK    3  A    between atoms: C_3  and  C_5
REMARK    4  A    between atoms: C_5  and  C_6
REMARK    5  A    between atoms: C_6  and  N_7
REMARK    6  A    between atoms: C_6  and  C_8
REMARK    7  A    between atoms: C_8  and  C_9
REMARK                            x       y       z     vdW  Elec       q    Type
REMARK                         _______ _______ _______ _____ _____    ______ ____
ROOT
ATOM      1  C   UNL     1       1.042   3.792  20.473  0.00  0.00    +0.000 C 
ATOM      2  N   UNL     1       2.214   4.375  19.822  0.00  0.00    +0.000 N 
ATOM      3  C   UNL     1       2.545   5.722  19.834  0.00  0.00    +0.000 C 
ATOM      4  O   UNL     1       3.412   6.177  19.088  0.00  0.00    +0.000 OA
ENDROOT
BRANCH   2   5
ATOM      5  C   UNL     1       3.105   3.462  19.061  0.00  0.00    +0.000 C 
ATOM      6  C   UNL     1       4.575   3.665  19.419  0.00  0.00    +0.000 C 
ATOM      7  N   UNL     1       5.411   3.830  18.264  0.00  0.00    +0.000 N 
ATOM      8  C   UNL     1       4.927   4.077  17.029  0.00  0.00    +0.000 C 
ATOM      9  N   UNL     1       5.776   4.508  16.045  0.00  0.00    +0.000 N 
ATOM     10  C   UNL     1       7.119   4.755  16.161  0.00  0.00    +0.000 C 
ATOM     11  N   UNL     1       7.687   5.212  15.010  0.00  0.00    +0.000 N 
ATOM     12  O   UNL     1       7.778   4.634  17.185  0.00  0.00    +0.000 OA
ATOM     13  N   UNL     1       3.708   3.948  16.654  0.00  0.00    +0.000 NA
ATOM     14  C   UNL     1       2.779   3.492  17.557  0.00  0.00    +0.000 C 
ATOM     15  O   UNL     1       1.639   3.212  17.182  0.00  0.00    +0.000 OA
ATOM     16  H   UNL     1       6.391   4.076  18.428  0.00  0.00    +0.000 HD
ATOM     17  H   UNL     1       5.330   4.660  15.155  0.00  0.00    +0.000 HD
ATOM     18  H   UNL     1       7.290   4.987  14.113  0.00  0.00    +0.000 HD
ATOM     19  H   UNL     1       8.694   5.301  15.045  0.00  0.00    +0.000 HD
ENDBRANCH   2   5
BRANCH   3  20
ATOM     20  C   UNL     1       1.779   6.602  20.805  0.00  0.00    +0.000 C 
BRANCH  20  21
ATOM     21  C   UNL     1       1.723   8.080  20.393  0.00  0.00    +0.000 C 
BRANCH  21  22
ATOM     22  N   UNL     1       1.686   8.238  18.932  0.00  0.00    +0.000 NA
ATOM     23  H   UNL     1       0.913   8.841  18.655  0.00  0.00    +0.000 HD
ATOM     24  H   UNL     1       1.480   7.317  18.527  0.00  0.00    +0.000 HD
ENDBRANCH  21  22
BRANCH  21  25
ATOM     25  C   UNL     1       0.477   8.785  20.970  0.00  0.00    +0.000 C 
BRANCH  25  26
ATOM     26  C   UNL     1       0.782  10.026  21.835  0.00  0.00    +0.000 C 
ATOM     27  C   UNL     1      -0.396  10.379  22.741  0.00  0.00    +0.000 C 
ATOM     28  C   UNL     1      -1.195  11.350  21.902  0.00  0.00    +0.000 C 
ATOM     29  N   UNL     1      -0.176  12.171  21.253  0.00  0.00    +0.000 NA
ATOM     30  C   UNL     1       0.981  11.299  21.004  0.00  0.00    +0.000 C 
ATOM     31  H   UNL     1       0.113  12.910  21.899  0.00  0.00    +0.000 HD
ENDBRANCH  25  26
ENDBRANCH  21  25
ENDBRANCH  20  21
ENDBRANCH   3  20
TORSDOF 6
ENDMDL
MODEL 4
REMARK VINA RESULT:      -6.8      3.194      6.892
REMARK  Name = 
REMARK  7 active torsions:
REMARK  status: ('A' for Active; 'I' for Inactive)
REMARK    1  A    between atoms: C_1  and  N_2
REMARK    2  A    between atoms: N_2  and  C_14
REMARK    3  A    between atoms: C_3  and  C_5
REMARK    4  A    between atoms: C_5  and  C_6
REMARK    5  A    between atoms: C_6  and  N_7
REMARK    6  A    between atoms: C_6  and  C_8
REMARK    7  A    between atoms: C_8  and  C_9
REMARK                            x       y       z     vdW  Elec       q    Type
REMARK                         _______ _______ _______ _____ _____    ______ ____
ROOT
ATOM      1  C   UNL     1       1.446   5.082  19.150  0.00  0.00    +0.000 C 
ATOM      2  N   UNL     1       2.799   5.620  19.281  0.00  0.00    +0.000 N 
ATOM      3  C   UNL     1       3.955   4.858  19.365  0.00  0.00    +0.000 C 
ATOM      4  O   UNL     1       5.030   5.357  19.697  0.00  0.00    +0.000 OA
ENDROOT
BRANCH   2   5
ATOM      5  C   UNL     1       2.949   7.095  19.364  0.00  0.00    +0.000 C 
ATOM      6  C   UNL     1       1.895   7.728  20.268  0.00  0.00    +0.000 C 
ATOM      7  N   UNL     1       1.217   8.830  19.647  0.00  0.00    +0.000 N 
ATOM      8  C   UNL     1       1.284   9.089  18.324  0.00  0.00    +0.000 C 
ATOM      9  N   UNL     1       0.394   9.964  17.762  0.00  0.00    +0.000 N 
ATOM     10  C   UNL     1      -0.623  10.630  18.394  0.00  0.00    +0.000 C 
ATOM     11  N   UNL     1      -1.366  11.406  17.556  0.00  0.00    +0.000 N 
ATOM     12  O   UNL     1      -0.903  10.537  19.582  0.00  0.00    +0.000 OA
ATOM     13  N   UNL     1       2.125   8.588  17.497  0.00  0.00    +0.000 NA
ATOM     14  C   UNL     1       3.082   7.721  17.964  0.00  0.00    +0.000 C 
ATOM     15  O   UNL     1       3.993   7.348  17.222  0.00  0.00    +0.000 OA
ATOM     16  H   UNL     1       0.425   9.236  20.152  0.00  0.00    +0.000 HD
ATOM     17  H   UNL     1       0.523  10.102  16.773  0.00  0.00    +0.000 HD
ATOM     18  H   UNL     1      -0.971  11.776  16.708  0.00  0.00    +0.000 HD
ATOM     19  H   UNL     1      -2.055  11.984  18.019  0.00  0.00    +0.000 HD
ENDBRANCH   2   5
BRANCH   3  20
ATOM     20  C   UNL     1       3.822   3.382  19.037  0.00  0.00    +0.000 C 
BRANCH  20  21
ATOM     21  C   UNL     1       3.856   3.075  17.532  0.00  0.00    +0.000 C 
BRANCH  21  22
ATOM     22  N   UNL     1       2.507   2.856  16.990  0.00  0.00    +0.000 NA
ATOM     23  H   UNL     1       2.505   2.964  15.978  0.00  0.00    +0.000 HD
ATOM     24  H   UNL     1       1.904   3.604  17.352  0.00  0.00    +0.000 HD
ENDBRANCH  21  22
BRANCH  21  25
ATOM     25  C   UNL     1       4.499   4.228  16.731  0.00  0.00    +0.000 C 
BRANCH  25  26
ATOM     26  C   UNL     1       5.919   3.931  16.205  0.00  0.00    +0.000 C 
ATOM     27  C   UNL     1       6.989   4.437  17.169  0.00  0.00    +0.000 C 
ATOM     28  C   UNL     1       7.263   5.839  16.672  0.00  0.00    +0.000 C 
ATOM     29  N   UNL     1       7.237   5.704  15.217  0.00  0.00    +0.000 NA
ATOM     30  C   UNL     1       6.239   4.672  14.901  0.00  0.00    +0.000 C 
ATOM     31  H   UNL     1       8.151   5.373  14.900  0.00  0.00    +0.000 HD
ENDBRANCH  25  26
ENDBRANCH  21  25
ENDBRANCH  20  21
ENDBRANCH   3  20
TORSDOF 6
ENDMDL
MODEL 5
REMARK VINA RESULT:      -6.8      2.534      7.617
REMARK  Name = 
REMARK  7 active torsions:
REMARK  status: ('A' for Active; 'I' for Inactive)
REMARK    1  A    between atoms: C_1  and  N_2
REMARK    2  A    between atoms: N_2  and  C_14
REMARK    3  A    between atoms: C_3  and  C_5
REMARK    4  A    between atoms: C_5  and  C_6
REMARK    5  A    between atoms: C_6  and  N_7
REMARK    6  A    between atoms: C_6  and  C_8
REMARK    7  A    between atoms: C_8  and  C_9
REMARK                            x       y       z     vdW  Elec       q    Type
REMARK                         _______ _______ _______ _____ _____    ______ ____
ROOT
ATOM      1  C   UNL     1       3.968   4.111  16.418  0.00  0.00    +0.000 C 
ATOM      2  N   UNL     1       4.651   5.287  16.954  0.00  0.00    +0.000 N 
ATOM      3  C   UNL     1       5.526   6.095  16.242  0.00  0.00    +0.000 C 
ATOM      4  O   UNL     1       6.234   6.928  16.806  0.00  0.00    +0.000 OA
ENDROOT
BRANCH   2   5
ATOM      5  C   UNL     1       4.417   5.629  18.380  0.00  0.00    +0.000 C 
ATOM      6  C   UNL     1       4.904   4.529  19.320  0.00  0.00    +0.000 C 
ATOM      7  N   UNL     1       3.913   4.141  20.284  0.00  0.00    +0.000 N 
ATOM      8  C   UNL     1       2.612   4.486  20.187  0.00  0.00    +0.000 C 
ATOM      9  N   UNL     1       1.685   3.848  20.967  0.00  0.00    +0.000 N 
ATOM     10  C   UNL     1       1.914   2.839  21.865  0.00  0.00    +0.000 C 
ATOM     11  N   UNL     1       0.779   2.381  22.465  0.00  0.00    +0.000 N 
ATOM     12  O   UNL     1       3.002   2.335  22.106  0.00  0.00    +0.000 OA
ATOM     13  N   UNL     1       2.123   5.384  19.414  0.00  0.00    +0.000 NA
ATOM     14  C   UNL     1       2.972   6.105  18.610  0.00  0.00    +0.000 C 
ATOM     15  O   UNL     1       2.549   7.073  17.976  0.00  0.00    +0.000 OA
ATOM     16  H   UNL     1       4.130   3.336  20.878  0.00  0.00    +0.000 HD
ATOM     17  H   UNL     1       0.742   4.175  20.834  0.00  0.00    +0.000 HD
ATOM     18  H   UNL     1      -0.027   2.974  22.566  0.00  0.00    +0.000 HD
ATOM     19  H   UNL     1       0.937   1.709  23.205  0.00  0.00    +0.000 HD
ENDBRANCH   2   5
BRANCH   3  20
ATOM     20  C   UNL     1       5.569   5.890  14.739  0.00  0.00    +0.000 C 
BRANCH  20  21
ATOM     21  C   UNL     1       6.749   5.029  14.263  0.00  0.00    +0.000 C 
BRANCH  21  22
ATOM     22  N   UNL     1       7.667   4.706  15.365  0.00  0.00    +0.000 NA
ATOM     23  H   UNL     1       8.521   5.254  15.292  0.00  0.00    +0.000 HD
ATOM     24  H   UNL     1       7.953   3.727  15.251  0.00  0.00    +0.000 HD
ENDBRANCH  21  22
BRANCH  21  25
ATOM     25  C   UNL     1       6.269   3.696  13.649  0.00  0.00    +0.000 C 
BRANCH  25  26
ATOM     26  C   UNL     1       6.356   3.628  12.110  0.00  0.00    +0.000 C 
ATOM     27  C   UNL     1       5.165   2.880  11.515  0.00  0.00    +0.000 C 
ATOM     28  C   UNL     1       5.653   1.451  11.454  0.00  0.00    +0.000 C 
ATOM     29  N   UNL     1       7.045   1.576  11.027  0.00  0.00    +0.000 NA
ATOM     30  C   UNL     1       7.562   2.820  11.615  0.00  0.00    +0.000 C 
ATOM     31  H   UNL     1       7.071   1.668  10.009  0.00  0.00    +0.000 HD
ENDBRANCH  25  26
ENDBRANCH  21  25
ENDBRANCH  20  21
ENDBRANCH   3  20
TORSDOF 6
ENDMDL
MODEL 6
REMARK VINA RESULT:      -6.8      2.815      4.534
REMARK  Name = 
REMARK  7 active torsions:
REMARK  status: ('A' for Active; 'I' for Inactive)
REMARK    1  A    between atoms: C_1  and  N_2
REMARK    2  A    between atoms: N_2  and  C_14
REMARK    3  A    between atoms: C_3  and  C_5
REMARK    4  A    between atoms: C_5  and  C_6
REMARK    5  A    between atoms: C_6  and  N_7
REMARK    6  A    between atoms: C_6  and  C_8
REMARK    7  A    between atoms: C_8  and  C_9
REMARK                            x       y       z     vdW  Elec       q    Type
REMARK                         _______ _______ _______ _____ _____    ______ ____
ROOT
ATOM      1  C   UNL     1       4.819   5.427  19.236  0.00  0.00    +0.000 C 
ATOM      2  N   UNL     1       5.471   4.768  18.105  0.00  0.00    +0.000 N 
ATOM      3  C   UNL     1       4.947   3.696  17.397  0.00  0.00    +0.000 C 
ATOM      4  O   UNL     1       5.637   3.049  16.609  0.00  0.00    +0.000 OA
ENDROOT
BRANCH   2   5
ATOM      5  C   UNL     1       6.812   5.261  17.700  0.00  0.00    +0.000 C 
ATOM      6  C   UNL     1       7.614   5.783  18.890  0.00  0.00    +0.000 C 
ATOM      7  N   UNL     1       8.163   7.089  18.661  0.00  0.00    +0.000 N 
ATOM      8  C   UNL     1       7.774   7.887  17.645  0.00  0.00    +0.000 C 
ATOM      9  N   UNL     1       8.120   9.212  17.658  0.00  0.00    +0.000 N 
ATOM     10  C   UNL     1       8.827   9.873  18.628  0.00  0.00    +0.000 C 
ATOM     11  N   UNL     1       8.981  11.203  18.374  0.00  0.00    +0.000 N 
ATOM     12  O   UNL     1       9.260   9.373  19.657  0.00  0.00    +0.000 OA
ATOM     13  N   UNL     1       7.088   7.531  16.622  0.00  0.00    +0.000 NA
ATOM     14  C   UNL     1       6.716   6.215  16.497  0.00  0.00    +0.000 C 
ATOM     15  O   UNL     1       6.193   5.818  15.454  0.00  0.00    +0.000 OA
ATOM     16  H   UNL     1       8.623   7.547  19.453  0.00  0.00    +0.000 HD
ATOM     17  H   UNL     1       7.794   9.729  16.858  0.00  0.00    +0.000 HD
ATOM     18  H   UNL     1       8.966  11.554  17.431  0.00  0.00    +0.000 HD
ATOM     19  H   UNL     1       9.587  11.687  19.024  0.00  0.00    +0.000 HD
ENDBRANCH   2   5
BRANCH   3  20
ATOM     20  C   UNL     1       3.489   3.360  17.652  0.00  0.00    +0.000 C 
BRANCH  20  21
ATOM     21  C   UNL     1       3.282   2.095  18.499  0.00  0.00    +0.000 C 
BRANCH  21  22
ATOM     22  N   UNL     1       4.159   0.998  18.063  0.00  0.00    +0.000 NA
ATOM     23  H   UNL     1       4.533   0.497  18.867  0.00  0.00    +0.000 HD
ATOM     24  H   UNL     1       4.969   1.419  17.594  0.00  0.00    +0.000 HD
ENDBRANCH  21  22
BRANCH  21  25
ATOM     25  C   UNL     1       3.570   2.357  19.993  0.00  0.00    +0.000 C 
BRANCH  25  26
ATOM     26  C   UNL     1       2.318   2.636  20.850  0.00  0.00    +0.000 C 
ATOM     27  C   UNL     1       1.064   2.751  19.987  0.00  0.00    +0.000 C 
ATOM     28  C   UNL     1       0.995   4.230  19.679  0.00  0.00    +0.000 C 
ATOM     29  N   UNL     1       1.383   4.867  20.935  0.00  0.00    +0.000 NA
ATOM     30  C   UNL     1       2.376   3.988  21.570  0.00  0.00    +0.000 C 
ATOM     31  H   UNL     1       0.564   4.917  21.546  0.00  0.00    +0.000 HD
ENDBRANCH  25  26
ENDBRANCH  21  25
ENDBRANCH  20  21
ENDBRANCH   3  20
TORSDOF 6
ENDMDL
MODEL 7
REMARK VINA RESULT:      -6.6      4.738      8.187
REMARK  Name = 
REMARK  7 active torsions:
REMARK  status: ('A' for Active; 'I' for Inactive)
REMARK    1  A    between atoms: C_1  and  N_2
REMARK    2  A    between atoms: N_2  and  C_14
REMARK    3  A    between atoms: C_3  and  C_5
REMARK    4  A    between atoms: C_5  and  C_6
REMARK    5  A    between atoms: C_6  and  N_7
REMARK    6  A    between atoms: C_6  and  C_8
REMARK    7  A    between atoms: C_8  and  C_9
REMARK                            x       y       z     vdW  Elec       q    Type
REMARK                         _______ _______ _______ _____ _____    ______ ____
ROOT
ATOM      1  C   UNL     1       7.755   5.987  19.043  0.00  0.00    +0.000 C 
ATOM      2  N   UNL     1       7.332   6.902  17.983  0.00  0.00    +0.000 N 
ATOM      3  C   UNL     1       7.756   8.216  17.848  0.00  0.00    +0.000 C 
ATOM      4  O   UNL     1       7.198   8.994  17.075  0.00  0.00    +0.000 OA
ENDROOT
BRANCH   2   5
ATOM      5  C   UNL     1       6.346   6.399  16.993  0.00  0.00    +0.000 C 
ATOM      6  C   UNL     1       4.907   6.607  17.460  0.00  0.00    +0.000 C 
ATOM      7  N   UNL     1       4.114   5.415  17.368  0.00  0.00    +0.000 N 
ATOM      8  C   UNL     1       4.642   4.188  17.179  0.00  0.00    +0.000 C 
ATOM      9  N   UNL     1       3.866   3.080  17.391  0.00  0.00    +0.000 N 
ATOM     10  C   UNL     1       2.563   3.050  17.813  0.00  0.00    +0.000 C 
ATOM     11  N   UNL     1       2.073   1.789  17.967  0.00  0.00    +0.000 N 
ATOM     12  O   UNL     1       1.880   4.030  18.078  0.00  0.00    +0.000 OA
ATOM     13  N   UNL     1       5.841   3.929  16.805  0.00  0.00    +0.000 NA
ATOM     14  C   UNL     1       6.693   4.972  16.536  0.00  0.00    +0.000 C 
ATOM     15  O   UNL     1       7.795   4.753  16.029  0.00  0.00    +0.000 OA
ATOM     16  H   UNL     1       3.170   5.450  17.762  0.00  0.00    +0.000 HD
ATOM     17  H   UNL     1       4.340   2.208  17.219  0.00  0.00    +0.000 HD
ATOM     18  H   UNL     1       2.451   1.019  17.442  0.00  0.00    +0.000 HD
ATOM     19  H   UNL     1       1.084   1.746  18.178  0.00  0.00    +0.000 HD
ENDBRANCH   2   5
BRANCH   3  20
ATOM     20  C   UNL     1       8.935   8.641  18.704  0.00  0.00    +0.000 C 
BRANCH  20  21
ATOM     21  C   UNL     1       8.932  10.134  19.066  0.00  0.00    +0.000 C 
BRANCH  21  22
ATOM     22  N   UNL     1       9.318  10.356  20.467  0.00  0.00    +0.000 NA
ATOM     23  H   UNL     1       8.493  10.473  21.052  0.00  0.00    +0.000 HD
ATOM     24  H   UNL     1       9.820  11.250  20.511  0.00  0.00    +0.000 HD
ENDBRANCH  21  22
BRANCH  21  25
ATOM     25  C   UNL     1       9.910  10.935  18.180  0.00  0.00    +0.000 C 
BRANCH  25  26
ATOM     26  C   UNL     1      10.184  12.376  18.663  0.00  0.00    +0.000 C 
ATOM     27  C   UNL     1       8.906  13.052  19.153  0.00  0.00    +0.000 C 
ATOM     28  C   UNL     1       8.380  13.732  17.909  0.00  0.00    +0.000 C 
ATOM     29  N   UNL     1       9.581  14.255  17.262  0.00  0.00    +0.000 NA
ATOM     30  C   UNL     1      10.665  13.300  17.539  0.00  0.00    +0.000 C 
ATOM     31  H   UNL     1       9.825  15.150  17.694  0.00  0.00    +0.000 HD
ENDBRANCH  25  26
ENDBRANCH  21  25
ENDBRANCH  20  21
ENDBRANCH   3  20
TORSDOF 6
ENDMDL
MODEL 8
REMARK VINA RESULT:      -6.6      3.582      5.392
REMARK  Name = 
REMARK  7 active torsions:
REMARK  status: ('A' for Active; 'I' for Inactive)
REMARK    1  A    between atoms: C_1  and  N_2
REMARK    2  A    between atoms: N_2  and  C_14
REMARK    3  A    between atoms: C_3  and  C_5
REMARK    4  A    between atoms: C_5  and  C_6
REMARK    5  A    between atoms: C_6  and  N_7
REMARK    6  A    between atoms: C_6  and  C_8
REMARK    7  A    between atoms: C_8  and  C_9
REMARK                            x       y       z     vdW  Elec       q    Type
REMARK                         _______ _______ _______ _____ _____    ______ ____
ROOT
ATOM      1  C   UNL     1       1.294   4.812  20.538  0.00  0.00    +0.000 C 
ATOM      2  N   UNL     1       2.378   5.246  19.658  0.00  0.00    +0.000 N 
ATOM      3  C   UNL     1       2.635   6.561  19.299  0.00  0.00    +0.000 C 
ATOM      4  O   UNL     1       3.414   6.836  18.386  0.00  0.00    +0.000 OA
ENDROOT
BRANCH   2   5
ATOM      5  C   UNL     1       3.253   4.197  19.075  0.00  0.00    +0.000 C 
ATOM      6  C   UNL     1       4.734   4.505  19.282  0.00  0.00    +0.000 C 
ATOM      7  N   UNL     1       5.497   4.411  18.071  0.00  0.00    +0.000 N 
ATOM      8  C   UNL     1       4.936   4.355  16.845  0.00  0.00    +0.000 C 
ATOM      9  N   UNL     1       5.714   4.560  15.737  0.00  0.00    +0.000 N 
ATOM     10  C   UNL     1       7.052   4.851  15.708  0.00  0.00    +0.000 C 
ATOM     11  N   UNL     1       7.538   5.038  14.449  0.00  0.00    +0.000 N 
ATOM     12  O   UNL     1       7.772   4.985  16.688  0.00  0.00    +0.000 OA
ATOM     13  N   UNL     1       3.703   4.119  16.588  0.00  0.00    +0.000 NA
ATOM     14  C   UNL     1       2.842   3.869  17.628  0.00  0.00    +0.000 C 
ATOM     15  O   UNL     1       1.692   3.489  17.401  0.00  0.00    +0.000 OA
ATOM     16  H   UNL     1       6.477   4.707  18.112  0.00  0.00    +0.000 HD
ATOM     17  H   UNL     1       5.213   4.491  14.866  0.00  0.00    +0.000 HD
ATOM     18  H   UNL     1       7.099   4.602  13.655  0.00  0.00    +0.000 HD
ATOM     19  H   UNL     1       8.543   5.151  14.399  0.00  0.00    +0.000 HD
ENDBRANCH   2   5
BRANCH   3  20
ATOM     20  C   UNL     1       1.902   7.635  20.082  0.00  0.00    +0.000 C 
BRANCH  20  21
ATOM     21  C   UNL     1       1.610   8.905  19.269  0.00  0.00    +0.000 C 
BRANCH  21  22
ATOM     22  N   UNL     1       1.344   8.599  17.856  0.00  0.00    +0.000 NA
ATOM     23  H   UNL     1       1.286   7.592  17.712  0.00  0.00    +0.000 HD
ATOM     24  H   UNL     1       2.157   8.912  17.314  0.00  0.00    +0.000 HD
ENDBRANCH  21  22
BRANCH  21  25
ATOM     25  C   UNL     1       0.384   9.664  19.821  0.00  0.00    +0.000 C 
BRANCH  25  26
ATOM     26  C   UNL     1       0.611  11.173  20.053  0.00  0.00    +0.000 C 
ATOM     27  C   UNL     1      -0.699  11.952  19.981  0.00  0.00    +0.000 C 
ATOM     28  C   UNL     1      -0.785  12.345  18.523  0.00  0.00    +0.000 C 
ATOM     29  N   UNL     1       0.589  12.701  18.176  0.00  0.00    +0.000 NA
ATOM     30  C   UNL     1       1.469  11.821  18.960  0.00  0.00    +0.000 C 
ATOM     31  H   UNL     1       0.762  13.667  18.465  0.00  0.00    +0.000 HD
ENDBRANCH  25  26
ENDBRANCH  21  25
ENDBRANCH  20  21
ENDBRANCH   3  20
TORSDOF 6
ENDMDL
MODEL 9
REMARK VINA RESULT:      -6.6      5.761      9.009
REMARK  Name = 
REMARK  7 active torsions:
REMARK  status: ('A' for Active; 'I' for Inactive)
REMARK    1  A    between atoms: C_1  and  N_2
REMARK    2  A    between atoms: N_2  and  C_14
REMARK    3  A    between atoms: C_3  and  C_5
REMARK    4  A    between atoms: C_5  and  C_6
REMARK    5  A    between atoms: C_6  and  N_7
REMARK    6  A    between atoms: C_6  and  C_8
REMARK    7  A    between atoms: C_8  and  C_9
REMARK                            x       y       z     vdW  Elec       q    Type
REMARK                         _______ _______ _______ _____ _____    ______ ____
ROOT
ATOM      1  C   UNL     1       0.671   9.391  20.704  0.00  0.00    +0.000 C 
ATOM      2  N   UNL     1       0.990   9.664  19.303  0.00  0.00    +0.000 N 
ATOM      3  C   UNL     1       1.822   8.889  18.509  0.00  0.00    +0.000 C 
ATOM      4  O   UNL     1       2.225   9.290  17.418  0.00  0.00    +0.000 OA
ENDROOT
BRANCH   2   5
ATOM      5  C   UNL     1       0.406  10.883  18.689  0.00  0.00    +0.000 C 
ATOM      6  C   UNL     1       0.597  12.117  19.568  0.00  0.00    +0.000 C 
ATOM      7  N   UNL     1      -0.622  12.846  19.777  0.00  0.00    +0.000 N 
ATOM      8  C   UNL     1      -1.841  12.347  19.487  0.00  0.00    +0.000 C 
ATOM      9  N   UNL     1      -2.958  12.970  19.976  0.00  0.00    +0.000 N 
ATOM     10  C   UNL     1      -3.002  14.078  20.780  0.00  0.00    +0.000 C 
ATOM     11  N   UNL     1      -4.267  14.440  21.133  0.00  0.00    +0.000 N 
ATOM     12  O   UNL     1      -2.030  14.689  21.202  0.00  0.00    +0.000 OA
ATOM     13  N   UNL     1      -2.085  11.311  18.772  0.00  0.00    +0.000 NA
ATOM     14  C   UNL     1      -1.034  10.630  18.208  0.00  0.00    +0.000 C 
ATOM     15  O   UNL     1      -1.248   9.729  17.395  0.00  0.00    +0.000 OA
ATOM     16  H   UNL     1      -0.592  13.624  20.442  0.00  0.00    +0.000 HD
ATOM     17  H   UNL     1      -3.824  12.533  19.703  0.00  0.00    +0.000 HD
ATOM     18  H   UNL     1      -5.054  14.208  20.550  0.00  0.00    +0.000 HD
ATOM     19  H   UNL     1      -4.328  15.314  21.641  0.00  0.00    +0.000 HD
ENDBRANCH   2   5
BRANCH   3  20
ATOM     20  C   UNL     1       2.214   7.530  19.060  0.00  0.00    +0.000 C 
BRANCH  20  21
ATOM     21  C   UNL     1       2.763   6.564  17.999  0.00  0.00    +0.000 C 
BRANCH  21  22
ATOM     22  N   UNL     1       4.064   7.007  17.480  0.00  0.00    +0.000 NA
ATOM     23  H   UNL     1       4.126   6.841  16.477  0.00  0.00    +0.000 HD
ATOM     24  H   UNL     1       4.785   6.413  17.905  0.00  0.00    +0.000 HD
ENDBRANCH  21  22
BRANCH  21  25
ATOM     25  C   UNL     1       2.946   5.140  18.566  0.00  0.00    +0.000 C 
BRANCH  25  26
ATOM     26  C   UNL     1       1.843   4.139  18.164  0.00  0.00    +0.000 C 
ATOM     27  C   UNL     1       1.092   3.615  19.386  0.00  0.00    +0.000 C 
ATOM     28  C   UNL     1       1.869   2.373  19.758  0.00  0.00    +0.000 C 
ATOM     29  N   UNL     1       2.194   1.764  18.470  0.00  0.00    +0.000 NA
ATOM     30  C   UNL     1       2.399   2.865  17.517  0.00  0.00    +0.000 C 
ATOM     31  H   UNL     1       1.392   1.213  18.155  0.00  0.00    +0.000 HD
ENDBRANCH  25  26
ENDBRANCH  21  25
ENDBRANCH  20  21
ENDBRANCH   3  20
TORSDOF 6
ENDMDL
