MODEL 1
REMARK VINA RESULT:      -8.4      0.000      0.000
REMARK  Name = 
REMARK  10 active torsions:
REMARK  status: ('A' for Active; 'I' for Inactive)
REMARK    1  A    between atoms: C_2  and  C_3
REMARK    2  A    between atoms: C_3  and  C_4
REMARK    3  A    between atoms: C_4  and  C_5
REMARK    4  A    between atoms: C_5  and  C_6
REMARK    5  A    between atoms: C_6  and  C_7
REMARK    6  A    between atoms: C_7  and  C_8
REMARK    7  A    between atoms: C_8  and  O_9
REMARK    8  A    between atoms: O_9  and  C_10
REMARK    9  A    between atoms: C_14  and  C_15
REMARK   10  A    between atoms: N_25  and  O_26
REMARK                            x       y       z     vdW  Elec       q    Type
REMARK                         _______ _______ _______ _____ _____    ______ ____
ROOT
ATOM      1  C   UNL     1       7.079   5.983  16.361  0.00  0.00    +0.000 A 
ATOM      2  C   UNL     1       7.269   5.312  15.157  0.00  0.00    +0.000 A 
ATOM      3  C   UNL     1       6.566   4.130  14.883  0.00  0.00    +0.000 A 
ATOM      4  C   UNL     1       5.644   3.614  15.806  0.00  0.00    +0.000 A 
ATOM      5  C   UNL     1       5.434   4.278  17.013  0.00  0.00    +0.000 A 
ATOM      6  C   UNL     1       6.174   5.450  17.273  0.00  0.00    +0.000 A 
ENDROOT
BRANCH   5   7
ATOM      7  C   UNL     1       4.491   3.873  18.066  0.00  0.00    +0.000 A 
ATOM      8  N   UNL     1       3.228   4.265  18.066  0.00  0.00    +0.000 NA
ATOM      9  C   UNL     1       2.654   3.746  19.183  0.00  0.00    +0.000 A 
ATOM     10  C   UNL     1       1.340   3.891  19.639  0.00  0.00    +0.000 A 
ATOM     11  C   UNL     1       0.986   3.285  20.845  0.00  0.00    +0.000 A 
ATOM     12  C   UNL     1       1.930   2.547  21.569  0.00  0.00    +0.000 A 
ATOM     13  C   UNL     1       3.245   2.379  21.113  0.00  0.00    +0.000 A 
ATOM     14  C   UNL     1       3.574   3.000  19.906  0.00  0.00    +0.000 A 
ATOM     15  N   UNL     1       4.728   3.066  19.155  0.00  0.00    +0.000 N 
ATOM     16  H   UNL     1       5.598   2.612  19.371  0.00  0.00    +0.000 HD
ENDBRANCH   5   7
BRANCH   1  17
ATOM     17  O   UNL     1       7.792   7.139  16.556  0.00  0.00    +0.000 OA
BRANCH  17  18
ATOM     18  C   UNL     1       7.395   7.919  17.692  0.00  0.00    +0.000 C 
BRANCH  18  19
ATOM     19  C   UNL     1       8.104   9.271  17.683  0.00  0.00    +0.000 C 
BRANCH  19  20
ATOM     20  C   UNL     1       9.057   9.388  18.877  0.00  0.00    +0.000 C 
BRANCH  20  21
ATOM     21  C   UNL     1       9.380  10.843  19.223  0.00  0.00    +0.000 C 
BRANCH  21  22
ATOM     22  C   UNL     1       9.787  11.629  17.973  0.00  0.00    +0.000 C 
BRANCH  22  23
ATOM     23  C   UNL     1      10.034  13.104  18.286  0.00  0.00    +0.000 C 
BRANCH  23  25
ATOM     24  O   UNL     1      11.840  13.311  16.666  0.00  0.00    +0.000 OA
ATOM     25  C   UNL     1      10.850  13.790  17.209  0.00  0.00    +0.000 C 
ATOM     26  N   UNL     1      10.373  15.037  16.878  0.00  0.00    +0.000 N 
ATOM     27  H   UNL     1       9.481  15.415  17.176  0.00  0.00    +0.000 HD
BRANCH  26  28
ATOM     28  O   UNL     1      11.040  15.706  15.829  0.00  0.00    +0.000 OA
ATOM     29  H   UNL     1      10.994  15.048  15.099  0.00  0.00    +0.000 HD
ENDBRANCH  26  28
ENDBRANCH  23  25
ENDBRANCH  22  23
ENDBRANCH  21  22
ENDBRANCH  20  21
ENDBRANCH  19  20
ENDBRANCH  18  19
ENDBRANCH  17  18
ENDBRANCH   1  17
TORSDOF 10
ENDMDL
MODEL 2
REMARK VINA RESULT:      -8.0      3.610      4.572
REMARK  Name = 
REMARK  10 active torsions:
REMARK  status: ('A' for Active; 'I' for Inactive)
REMARK    1  A    between atoms: C_2  and  C_3
REMARK    2  A    between atoms: C_3  and  C_4
REMARK    3  A    between atoms: C_4  and  C_5
REMARK    4  A    between atoms: C_5  and  C_6
REMARK    5  A    between atoms: C_6  and  C_7
REMARK    6  A    between atoms: C_7  and  C_8
REMARK    7  A    between atoms: C_8  and  O_9
REMARK    8  A    between atoms: O_9  and  C_10
REMARK    9  A    between atoms: C_14  and  C_15
REMARK   10  A    between atoms: N_25  and  O_26
REMARK                            x       y       z     vdW  Elec       q    Type
REMARK                         _______ _______ _______ _____ _____    ______ ____
ROOT
ATOM      1  C   UNL     1       4.965   4.631  18.972  0.00  0.00    +0.000 A 
ATOM      2  C   UNL     1       4.448   3.855  17.940  0.00  0.00    +0.000 A 
ATOM      3  C   UNL     1       3.157   4.096  17.448  0.00  0.00    +0.000 A 
ATOM      4  C   UNL     1       2.373   5.136  17.971  0.00  0.00    +0.000 A 
ATOM      5  C   UNL     1       2.879   5.928  18.999  0.00  0.00    +0.000 A 
ATOM      6  C   UNL     1       4.169   5.647  19.492  0.00  0.00    +0.000 A 
ENDROOT
BRANCH   5   7
ATOM      7  C   UNL     1       2.188   7.062  19.632  0.00  0.00    +0.000 A 
ATOM      8  N   UNL     1       1.905   8.170  18.969  0.00  0.00    +0.000 NA
ATOM      9  C   UNL     1       1.306   9.013  19.850  0.00  0.00    +0.000 A 
ATOM     10  C   UNL     1       0.837  10.314  19.635  0.00  0.00    +0.000 A 
ATOM     11  C   UNL     1       0.280  11.004  20.713  0.00  0.00    +0.000 A 
ATOM     12  C   UNL     1       0.192  10.398  21.971  0.00  0.00    +0.000 A 
ATOM     13  C   UNL     1       0.641   9.088  22.194  0.00  0.00    +0.000 A 
ATOM     14  C   UNL     1       1.198   8.422  21.100  0.00  0.00    +0.000 A 
ATOM     15  N   UNL     1       1.735   7.164  20.927  0.00  0.00    +0.000 N 
ATOM     16  H   UNL     1       1.798   6.448  21.629  0.00  0.00    +0.000 HD
ENDBRANCH   5   7
BRANCH   1  17
ATOM     17  O   UNL     1       6.240   4.345  19.395  0.00  0.00    +0.000 OA
BRANCH  17  18
ATOM     18  C   UNL     1       7.181   5.421  19.271  0.00  0.00    +0.000 C 
BRANCH  18  19
ATOM     19  C   UNL     1       7.480   5.699  17.800  0.00  0.00    +0.000 C 
BRANCH  19  20
ATOM     20  C   UNL     1       7.362   7.197  17.500  0.00  0.00    +0.000 C 
BRANCH  20  21
ATOM     21  C   UNL     1       8.289   8.040  18.377  0.00  0.00    +0.000 C 
BRANCH  21  22
ATOM     22  C   UNL     1       8.268   9.510  17.946  0.00  0.00    +0.000 C 
BRANCH  22  23
ATOM     23  C   UNL     1       9.158  10.376  18.837  0.00  0.00    +0.000 C 
BRANCH  23  25
ATOM     24  O   UNL     1      10.931  11.476  17.583  0.00  0.00    +0.000 OA
ATOM     25  C   UNL     1       9.806  11.511  18.072  0.00  0.00    +0.000 C 
ATOM     26  N   UNL     1       9.003  12.623  17.965  0.00  0.00    +0.000 N 
ATOM     27  H   UNL     1       8.019  12.654  18.209  0.00  0.00    +0.000 HD
BRANCH  26  28
ATOM     28  O   UNL     1       9.513  13.695  17.200  0.00  0.00    +0.000 OA
ATOM     29  H   UNL     1       8.760  14.327  17.199  0.00  0.00    +0.000 HD
ENDBRANCH  26  28
ENDBRANCH  23  25
ENDBRANCH  22  23
ENDBRANCH  21  22
ENDBRANCH  20  21
ENDBRANCH  19  20
ENDBRANCH  18  19
ENDBRANCH  17  18
ENDBRANCH   1  17
TORSDOF 10
ENDMDL
MODEL 3
REMARK VINA RESULT:      -8.0      5.921      9.430
REMARK  Name = 
REMARK  10 active torsions:
REMARK  status: ('A' for Active; 'I' for Inactive)
REMARK    1  A    between atoms: C_2  and  C_3
REMARK    2  A    between atoms: C_3  and  C_4
REMARK    3  A    between atoms: C_4  and  C_5
REMARK    4  A    between atoms: C_5  and  C_6
REMARK    5  A    between atoms: C_6  and  C_7
REMARK    6  A    between atoms: C_7  and  C_8
REMARK    7  A    between atoms: C_8  and  O_9
REMARK    8  A    between atoms: O_9  and  C_10
REMARK    9  A    between atoms: C_14  and  C_15
REMARK   10  A    between atoms: N_25  and  O_26
REMARK                            x       y       z     vdW  Elec       q    Type
REMARK                         _______ _______ _______ _____ _____    ______ ____
ROOT
ATOM      1  C   UNL     1       2.616   6.599  19.466  0.00  0.00    +0.000 A 
ATOM      2  C   UNL     1       2.972   6.804  18.137  0.00  0.00    +0.000 A 
ATOM      3  C   UNL     1       2.612   7.989  17.480  0.00  0.00    +0.000 A 
ATOM      4  C   UNL     1       1.907   8.997  18.154  0.00  0.00    +0.000 A 
ATOM      5  C   UNL     1       1.550   8.813  19.488  0.00  0.00    +0.000 A 
ATOM      6  C   UNL     1       1.902   7.601  20.116  0.00  0.00    +0.000 A 
ENDROOT
BRANCH   5   7
ATOM      7  C   UNL     1       0.832   9.781  20.329  0.00  0.00    +0.000 A 
ATOM      8  N   UNL     1       1.010  11.085  20.207  0.00  0.00    +0.000 NA
ATOM      9  C   UNL     1       0.230  11.680  21.147  0.00  0.00    +0.000 A 
ATOM     10  C   UNL     1       0.084  13.042  21.429  0.00  0.00    +0.000 A 
ATOM     11  C   UNL     1      -0.761  13.416  22.475  0.00  0.00    +0.000 A 
ATOM     12  C   UNL     1      -1.445  12.443  23.213  0.00  0.00    +0.000 A 
ATOM     13  C   UNL     1      -1.323  11.076  22.927  0.00  0.00    +0.000 A 
ATOM     14  C   UNL     1      -0.467  10.729  21.879  0.00  0.00    +0.000 A 
ATOM     15  N   UNL     1      -0.094   9.528  21.315  0.00  0.00    +0.000 N 
ATOM     16  H   UNL     1      -0.431   8.620  21.585  0.00  0.00    +0.000 HD
ENDBRANCH   5   7
BRANCH   1  17
ATOM     17  O   UNL     1       3.012   5.421  20.048  0.00  0.00    +0.000 OA
BRANCH  17  18
ATOM     18  C   UNL     1       2.209   4.983  21.153  0.00  0.00    +0.000 C 
BRANCH  18  19
ATOM     19  C   UNL     1       1.642   3.593  20.881  0.00  0.00    +0.000 C 
BRANCH  19  20
ATOM     20  C   UNL     1       0.938   3.554  19.521  0.00  0.00    +0.000 C 
BRANCH  20  21
ATOM     21  C   UNL     1       1.106   2.207  18.817  0.00  0.00    +0.000 C 
BRANCH  21  22
ATOM     22  C   UNL     1       2.125   2.304  17.677  0.00  0.00    +0.000 C 
BRANCH  22  23
ATOM     23  C   UNL     1       3.538   1.965  18.150  0.00  0.00    +0.000 C 
BRANCH  23  25
ATOM     24  O   UNL     1       4.606   3.904  17.135  0.00  0.00    +0.000 OA
ATOM     25  C   UNL     1       4.462   3.165  18.105  0.00  0.00    +0.000 C 
ATOM     26  N   UNL     1       5.148   3.367  19.279  0.00  0.00    +0.000 N 
ATOM     27  H   UNL     1       4.956   2.891  20.153  0.00  0.00    +0.000 HD
BRANCH  26  28
ATOM     28  O   UNL     1       5.972   4.512  19.336  0.00  0.00    +0.000 OA
ATOM     29  H   UNL     1       6.737   4.248  18.777  0.00  0.00    +0.000 HD
ENDBRANCH  26  28
ENDBRANCH  23  25
ENDBRANCH  22  23
ENDBRANCH  21  22
ENDBRANCH  20  21
ENDBRANCH  19  20
ENDBRANCH  18  19
ENDBRANCH  17  18
ENDBRANCH   1  17
TORSDOF 10
ENDMDL
MODEL 4
REMARK VINA RESULT:      -7.9      5.028      7.184
REMARK  Name = 
REMARK  10 active torsions:
REMARK  status: ('A' for Active; 'I' for Inactive)
REMARK    1  A    between atoms: C_2  and  C_3
REMARK    2  A    between atoms: C_3  and  C_4
REMARK    3  A    between atoms: C_4  and  C_5
REMARK    4  A    between atoms: C_5  and  C_6
REMARK    5  A    between atoms: C_6  and  C_7
REMARK    6  A    between atoms: C_7  and  C_8
REMARK    7  A    between atoms: C_8  and  O_9
REMARK    8  A    between atoms: O_9  and  C_10
REMARK    9  A    between atoms: C_14  and  C_15
REMARK   10  A    between atoms: N_25  and  O_26
REMARK                            x       y       z     vdW  Elec       q    Type
REMARK                         _______ _______ _______ _____ _____    ______ ____
ROOT
ATOM      1  C   UNL     1       3.540   3.508  19.042  0.00  0.00    +0.000 A 
ATOM      2  C   UNL     1       3.226   2.668  20.105  0.00  0.00    +0.000 A 
ATOM      3  C   UNL     1       2.508   3.154  21.207  0.00  0.00    +0.000 A 
ATOM      4  C   UNL     1       2.074   4.487  21.249  0.00  0.00    +0.000 A 
ATOM      5  C   UNL     1       2.372   5.341  20.189  0.00  0.00    +0.000 A 
ATOM      6  C   UNL     1       3.118   4.832  19.106  0.00  0.00    +0.000 A 
ENDROOT
BRANCH   5   7
ATOM      7  C   UNL     1       1.971   6.751  20.080  0.00  0.00    +0.000 A 
ATOM      8  N   UNL     1       2.063   7.421  18.944  0.00  0.00    +0.000 NA
ATOM      9  C   UNL     1       1.648   8.689  19.200  0.00  0.00    +0.000 A 
ATOM     10  C   UNL     1       1.577   9.780  18.327  0.00  0.00    +0.000 A 
ATOM     11  C   UNL     1       1.144  11.007  18.832  0.00  0.00    +0.000 A 
ATOM     12  C   UNL     1       0.785  11.130  20.179  0.00  0.00    +0.000 A 
ATOM     13  C   UNL     1       0.833  10.040  21.060  0.00  0.00    +0.000 A 
ATOM     14  C   UNL     1       1.275   8.825  20.530  0.00  0.00    +0.000 A 
ATOM     15  N   UNL     1       1.456   7.566  21.061  0.00  0.00    +0.000 N 
ATOM     16  H   UNL     1       1.258   7.292  22.008  0.00  0.00    +0.000 HD
ENDBRANCH   5   7
BRANCH   1  17
ATOM     17  O   UNL     1       4.234   2.962  17.992  0.00  0.00    +0.000 OA
BRANCH  17  18
ATOM     18  C   UNL     1       3.903   3.487  16.698  0.00  0.00    +0.000 C 
BRANCH  18  19
ATOM     19  C   UNL     1       4.678   4.775  16.433  0.00  0.00    +0.000 C 
BRANCH  19  20
ATOM     20  C   UNL     1       5.523   4.644  15.162  0.00  0.00    +0.000 C 
BRANCH  20  21
ATOM     21  C   UNL     1       7.010   4.887  15.426  0.00  0.00    +0.000 C 
BRANCH  21  22
ATOM     22  C   UNL     1       7.375   4.551  16.876  0.00  0.00    +0.000 C 
BRANCH  22  23
ATOM     23  C   UNL     1       7.494   5.808  17.737  0.00  0.00    +0.000 C 
BRANCH  23  25
ATOM     24  O   UNL     1       6.237   5.316  19.763  0.00  0.00    +0.000 OA
ATOM     25  C   UNL     1       7.316   5.512  19.212  0.00  0.00    +0.000 C 
ATOM     26  N   UNL     1       8.502   5.479  19.907  0.00  0.00    +0.000 N 
ATOM     27  H   UNL     1       9.423   5.478  19.483  0.00  0.00    +0.000 HD
BRANCH  26  28
ATOM     28  O   UNL     1       8.421   5.135  21.274  0.00  0.00    +0.000 OA
ATOM     29  H   UNL     1       8.422   4.153  21.242  0.00  0.00    +0.000 HD
ENDBRANCH  26  28
ENDBRANCH  23  25
ENDBRANCH  22  23
ENDBRANCH  21  22
ENDBRANCH  20  21
ENDBRANCH  19  20
ENDBRANCH  18  19
ENDBRANCH  17  18
ENDBRANCH   1  17
TORSDOF 10
ENDMDL
MODEL 5
REMARK VINA RESULT:      -7.8      5.475      7.885
REMARK  Name = 
REMARK  10 active torsions:
REMARK  status: ('A' for Active; 'I' for Inactive)
REMARK    1  A    between atoms: C_2  and  C_3
REMARK    2  A    between atoms: C_3  and  C_4
REMARK    3  A    between atoms: C_4  and  C_5
REMARK    4  A    between atoms: C_5  and  C_6
REMARK    5  A    between atoms: C_6  and  C_7
REMARK    6  A    between atoms: C_7  and  C_8
REMARK    7  A    between atoms: C_8  and  O_9
REMARK    8  A    between atoms: O_9  and  C_10
REMARK    9  A    between atoms: C_14  and  C_15
REMARK   10  A    between atoms: N_25  and  O_26
REMARK                            x       y       z     vdW  Elec       q    Type
REMARK                         _______ _______ _______ _____ _____    ______ ____
ROOT
ATOM      1  C   UNL     1       4.685   4.340  18.405  0.00  0.00    +0.000 A 
ATOM      2  C   UNL     1       3.931   3.374  17.747  0.00  0.00    +0.000 A 
ATOM      3  C   UNL     1       2.564   3.579  17.512  0.00  0.00    +0.000 A 
ATOM      4  C   UNL     1       1.937   4.767  17.915  0.00  0.00    +0.000 A 
ATOM      5  C   UNL     1       2.679   5.749  18.568  0.00  0.00    +0.000 A 
ATOM      6  C   UNL     1       4.046   5.506  18.814  0.00  0.00    +0.000 A 
ENDROOT
BRANCH   5   7
ATOM      7  C   UNL     1       2.170   7.049  19.030  0.00  0.00    +0.000 A 
ATOM      8  N   UNL     1       1.852   7.269  20.294  0.00  0.00    +0.000 NA
ATOM      9  C   UNL     1       1.389   8.544  20.369  0.00  0.00    +0.000 A 
ATOM     10  C   UNL     1       0.913   9.239  21.486  0.00  0.00    +0.000 A 
ATOM     11  C   UNL     1       0.455  10.545  21.309  0.00  0.00    +0.000 A 
ATOM     12  C   UNL     1       0.482  11.138  20.041  0.00  0.00    +0.000 A 
ATOM     13  C   UNL     1       0.975  10.459  18.917  0.00  0.00    +0.000 A 
ATOM     14  C   UNL     1       1.422   9.151  19.122  0.00  0.00    +0.000 A 
ATOM     15  N   UNL     1       1.957   8.190  18.292  0.00  0.00    +0.000 N 
ATOM     16  H   UNL     1       2.149   8.299  17.311  0.00  0.00    +0.000 HD
ENDBRANCH   5   7
BRANCH   1  17
ATOM     17  O   UNL     1       6.020   4.078  18.589  0.00  0.00    +0.000 OA
BRANCH  17  18
ATOM     18  C   UNL     1       6.842   5.227  18.836  0.00  0.00    +0.000 C 
BRANCH  18  19
ATOM     19  C   UNL     1       7.396   5.776  17.524  0.00  0.00    +0.000 C 
BRANCH  19  20
ATOM     20  C   UNL     1       7.386   4.694  16.440  0.00  0.00    +0.000 C 
BRANCH  20  21
ATOM     21  C   UNL     1       6.459   5.046  15.275  0.00  0.00    +0.000 C 
BRANCH  21  22
ATOM     22  C   UNL     1       6.194   3.822  14.392  0.00  0.00    +0.000 C 
BRANCH  22  23
ATOM     23  C   UNL     1       5.294   4.162  13.205  0.00  0.00    +0.000 C 
BRANCH  23  25
ATOM     24  O   UNL     1       4.436   2.854  11.339  0.00  0.00    +0.000 OA
ATOM     25  C   UNL     1       5.348   3.105  12.122  0.00  0.00    +0.000 C 
ATOM     26  N   UNL     1       6.543   2.425  12.085  0.00  0.00    +0.000 N 
ATOM     27  H   UNL     1       7.378   2.691  12.595  0.00  0.00    +0.000 HD
BRANCH  26  28
ATOM     28  O   UNL     1       6.694   1.475  11.051  0.00  0.00    +0.000 OA
ATOM     29  H   UNL     1       7.441   0.926  11.379  0.00  0.00    +0.000 HD
ENDBRANCH  26  28
ENDBRANCH  23  25
ENDBRANCH  22  23
ENDBRANCH  21  22
ENDBRANCH  20  21
ENDBRANCH  19  20
ENDBRANCH  18  19
ENDBRANCH  17  18
ENDBRANCH   1  17
TORSDOF 10
ENDMDL
MODEL 6
REMARK VINA RESULT:      -7.8      1.597      1.702
REMARK  Name = 
REMARK  10 active torsions:
REMARK  status: ('A' for Active; 'I' for Inactive)
REMARK    1  A    between atoms: C_2  and  C_3
REMARK    2  A    between atoms: C_3  and  C_4
REMARK    3  A    between atoms: C_4  and  C_5
REMARK    4  A    between atoms: C_5  and  C_6
REMARK    5  A    between atoms: C_6  and  C_7
REMARK    6  A    between atoms: C_7  and  C_8
REMARK    7  A    between atoms: C_8  and  O_9
REMARK    8  A    between atoms: O_9  and  C_10
REMARK    9  A    between atoms: C_14  and  C_15
REMARK   10  A    between atoms: N_25  and  O_26
REMARK                            x       y       z     vdW  Elec       q    Type
REMARK                         _______ _______ _______ _____ _____    ______ ____
ROOT
ATOM      1  C   UNL     1       6.979   5.724  16.268  0.00  0.00    +0.000 A 
ATOM      2  C   UNL     1       7.075   5.097  15.030  0.00  0.00    +0.000 A 
ATOM      3  C   UNL     1       6.276   3.983  14.734  0.00  0.00    +0.000 A 
ATOM      4  C   UNL     1       5.353   3.494  15.669  0.00  0.00    +0.000 A 
ATOM      5  C   UNL     1       5.237   4.115  16.911  0.00  0.00    +0.000 A 
ATOM      6  C   UNL     1       6.071   5.217  17.192  0.00  0.00    +0.000 A 
ENDROOT
BRANCH   5   7
ATOM      7  C   UNL     1       4.305   3.732  17.982  0.00  0.00    +0.000 A 
ATOM      8  N   UNL     1       3.011   3.993  17.913  0.00  0.00    +0.000 NA
ATOM      9  C   UNL     1       2.456   3.541  19.068  0.00  0.00    +0.000 A 
ATOM     10  C   UNL     1       1.120   3.601  19.478  0.00  0.00    +0.000 A 
ATOM     11  C   UNL     1       0.789   3.094  20.736  0.00  0.00    +0.000 A 
ATOM     12  C   UNL     1       1.777   2.535  21.555  0.00  0.00    +0.000 A 
ATOM     13  C   UNL     1       3.116   2.452  21.147  0.00  0.00    +0.000 A 
ATOM     14  C   UNL     1       3.420   2.972  19.886  0.00  0.00    +0.000 A 
ATOM     15  N   UNL     1       4.585   3.072  19.156  0.00  0.00    +0.000 N 
ATOM     16  H   UNL     1       5.489   2.734  19.439  0.00  0.00    +0.000 HD
ENDBRANCH   5   7
BRANCH   1  17
ATOM     17  O   UNL     1       7.783   6.815  16.484  0.00  0.00    +0.000 OA
BRANCH  17  18
ATOM     18  C   UNL     1       7.260   7.790  17.399  0.00  0.00    +0.000 C 
BRANCH  18  19
ATOM     19  C   UNL     1       8.369   8.316  18.306  0.00  0.00    +0.000 C 
BRANCH  19  20
ATOM     20  C   UNL     1       8.601   9.811  18.063  0.00  0.00    +0.000 C 
BRANCH  20  21
ATOM     21  C   UNL     1       9.569  10.422  19.076  0.00  0.00    +0.000 C 
BRANCH  21  22
ATOM     22  C   UNL     1       9.984  11.837  18.659  0.00  0.00    +0.000 C 
BRANCH  22  23
ATOM     23  C   UNL     1       8.902  12.522  17.825  0.00  0.00    +0.000 C 
BRANCH  23  25
ATOM     24  O   UNL     1       8.197  14.852  17.769  0.00  0.00    +0.000 OA
ATOM     25  C   UNL     1       8.473  13.848  18.419  0.00  0.00    +0.000 C 
ATOM     26  N   UNL     1       8.415  13.835  19.793  0.00  0.00    +0.000 N 
ATOM     27  H   UNL     1       8.479  13.002  20.369  0.00  0.00    +0.000 HD
BRANCH  26  28
ATOM     28  O   UNL     1       7.951  15.015  20.414  0.00  0.00    +0.000 OA
ATOM     29  H   UNL     1       7.011  14.795  20.603  0.00  0.00    +0.000 HD
ENDBRANCH  26  28
ENDBRANCH  23  25
ENDBRANCH  22  23
ENDBRANCH  21  22
ENDBRANCH  20  21
ENDBRANCH  19  20
ENDBRANCH  18  19
ENDBRANCH  17  18
ENDBRANCH   1  17
TORSDOF 10
ENDMDL
MODEL 7
REMARK VINA RESULT:      -7.7      5.292      9.105
REMARK  Name = 
REMARK  10 active torsions:
REMARK  status: ('A' for Active; 'I' for Inactive)
REMARK    1  A    between atoms: C_2  and  C_3
REMARK    2  A    between atoms: C_3  and  C_4
REMARK    3  A    between atoms: C_4  and  C_5
REMARK    4  A    between atoms: C_5  and  C_6
REMARK    5  A    between atoms: C_6  and  C_7
REMARK    6  A    between atoms: C_7  and  C_8
REMARK    7  A    between atoms: C_8  and  O_9
REMARK    8  A    between atoms: O_9  and  C_10
REMARK    9  A    between atoms: C_14  and  C_15
REMARK   10  A    between atoms: N_25  and  O_26
REMARK                            x       y       z     vdW  Elec       q    Type
REMARK                         _______ _______ _______ _____ _____    ______ ____
ROOT
ATOM      1  C   UNL     1       5.417   5.279  19.137  0.00  0.00    +0.000 A 
ATOM      2  C   UNL     1       6.571   5.547  19.865  0.00  0.00    +0.000 A 
ATOM      3  C   UNL     1       7.825   5.543  19.235  0.00  0.00    +0.000 A 
ATOM      4  C   UNL     1       7.936   5.291  17.860  0.00  0.00    +0.000 A 
ATOM      5  C   UNL     1       6.789   5.029  17.114  0.00  0.00    +0.000 A 
ATOM      6  C   UNL     1       5.545   5.013  17.777  0.00  0.00    +0.000 A 
ENDROOT
BRANCH   5   7
ATOM      7  C   UNL     1       6.743   4.767  15.668  0.00  0.00    +0.000 A 
ATOM      8  N   UNL     1       5.855   3.949  15.130  0.00  0.00    +0.000 NA
ATOM      9  C   UNL     1       6.112   3.910  13.797  0.00  0.00    +0.000 A 
ATOM     10  C   UNL     1       5.459   3.175  12.801  0.00  0.00    +0.000 A 
ATOM     11  C   UNL     1       5.928   3.272  11.490  0.00  0.00    +0.000 A 
ATOM     12  C   UNL     1       7.020   4.094  11.189  0.00  0.00    +0.000 A 
ATOM     13  C   UNL     1       7.670   4.850  12.175  0.00  0.00    +0.000 A 
ATOM     14  C   UNL     1       7.185   4.730  13.479  0.00  0.00    +0.000 A 
ATOM     15  N   UNL     1       7.547   5.294  14.683  0.00  0.00    +0.000 N 
ATOM     16  H   UNL     1       8.282   5.966  14.822  0.00  0.00    +0.000 HD
ENDBRANCH   5   7
BRANCH   1  17
ATOM     17  O   UNL     1       4.224   5.311  19.816  0.00  0.00    +0.000 OA
BRANCH  17  18
ATOM     18  C   UNL     1       3.143   5.953  19.125  0.00  0.00    +0.000 C 
BRANCH  18  19
ATOM     19  C   UNL     1       2.001   6.257  20.090  0.00  0.00    +0.000 C 
BRANCH  19  20
ATOM     20  C   UNL     1       1.722   5.050  20.992  0.00  0.00    +0.000 C 
BRANCH  20  21
ATOM     21  C   UNL     1       0.704   4.088  20.378  0.00  0.00    +0.000 C 
BRANCH  21  22
ATOM     22  C   UNL     1       1.280   2.673  20.269  0.00  0.00    +0.000 C 
BRANCH  22  23
ATOM     23  C   UNL     1       1.750   2.359  18.849  0.00  0.00    +0.000 C 
BRANCH  23  25
ATOM     24  O   UNL     1       3.795   1.541  17.811  0.00  0.00    +0.000 OA
ATOM     25  C   UNL     1       3.216   1.981  18.800  0.00  0.00    +0.000 C 
ATOM     26  N   UNL     1       3.868   2.178  19.995  0.00  0.00    +0.000 N 
ATOM     27  H   UNL     1       3.486   2.679  20.789  0.00  0.00    +0.000 HD
BRANCH  26  28
ATOM     28  O   UNL     1       5.256   1.918  20.003  0.00  0.00    +0.000 OA
ATOM     29  H   UNL     1       5.296   0.986  19.693  0.00  0.00    +0.000 HD
ENDBRANCH  26  28
ENDBRANCH  23  25
ENDBRANCH  22  23
ENDBRANCH  21  22
ENDBRANCH  20  21
ENDBRANCH  19  20
ENDBRANCH  18  19
ENDBRANCH  17  18
ENDBRANCH   1  17
TORSDOF 10
ENDMDL
MODEL 8
REMARK VINA RESULT:      -7.7      5.809      8.201
REMARK  Name = 
REMARK  10 active torsions:
REMARK  status: ('A' for Active; 'I' for Inactive)
REMARK    1  A    between atoms: C_2  and  C_3
REMARK    2  A    between atoms: C_3  and  C_4
REMARK    3  A    between atoms: C_4  and  C_5
REMARK    4  A    between atoms: C_5  and  C_6
REMARK    5  A    between atoms: C_6  and  C_7
REMARK    6  A    between atoms: C_7  and  C_8
REMARK    7  A    between atoms: C_8  and  O_9
REMARK    8  A    between atoms: O_9  and  C_10
REMARK    9  A    between atoms: C_14  and  C_15
REMARK   10  A    between atoms: N_25  and  O_26
REMARK                            x       y       z     vdW  Elec       q    Type
REMARK                         _______ _______ _______ _____ _____    ______ ____
ROOT
ATOM      1  C   UNL     1       4.175   4.007  19.596  0.00  0.00    +0.000 A 
ATOM      2  C   UNL     1       3.413   3.012  20.200  0.00  0.00    +0.000 A 
ATOM      3  C   UNL     1       2.163   3.316  20.759  0.00  0.00    +0.000 A 
ATOM      4  C   UNL     1       1.649   4.620  20.701  0.00  0.00    +0.000 A 
ATOM      5  C   UNL     1       2.395   5.627  20.093  0.00  0.00    +0.000 A 
ATOM      6  C   UNL     1       3.660   5.299  19.562  0.00  0.00    +0.000 A 
ENDROOT
BRANCH   5   7
ATOM      7  C   UNL     1       1.984   7.030  19.938  0.00  0.00    +0.000 A 
ATOM      8  N   UNL     1       1.359   7.688  20.899  0.00  0.00    +0.000 NA
ATOM      9  C   UNL     1       1.097   8.932  20.419  0.00  0.00    +0.000 A 
ATOM     10  C   UNL     1       0.438   9.992  21.049  0.00  0.00    +0.000 A 
ATOM     11  C   UNL     1       0.257  11.178  20.336  0.00  0.00    +0.000 A 
ATOM     12  C   UNL     1       0.734  11.295  19.026  0.00  0.00    +0.000 A 
ATOM     13  C   UNL     1       1.413  10.246  18.390  0.00  0.00    +0.000 A 
ATOM     14  C   UNL     1       1.576   9.069  19.124  0.00  0.00    +0.000 A 
ATOM     15  N   UNL     1       2.169   7.854  18.852  0.00  0.00    +0.000 N 
ATOM     16  H   UNL     1       2.645   7.608  18.002  0.00  0.00    +0.000 HD
ENDBRANCH   5   7
BRANCH   1  17
ATOM     17  O   UNL     1       5.383   3.635  19.059  0.00  0.00    +0.000 OA
BRANCH  17  18
ATOM     18  C   UNL     1       6.221   4.717  18.629  0.00  0.00    +0.000 C 
BRANCH  18  19
ATOM     19  C   UNL     1       6.434   4.657  17.119  0.00  0.00    +0.000 C 
BRANCH  19  20
ATOM     20  C   UNL     1       5.557   5.695  16.410  0.00  0.00    +0.000 C 
BRANCH  20  21
ATOM     21  C   UNL     1       5.503   5.473  14.898  0.00  0.00    +0.000 C 
BRANCH  21  22
ATOM     22  C   UNL     1       6.330   4.250  14.490  0.00  0.00    +0.000 C 
BRANCH  22  23
ATOM     23  C   UNL     1       6.694   4.279  13.006  0.00  0.00    +0.000 C 
BRANCH  23  25
ATOM     24  O   UNL     1       4.783   3.227  11.925  0.00  0.00    +0.000 OA
ATOM     25  C   UNL     1       5.974   3.205  12.217  0.00  0.00    +0.000 C 
ATOM     26  N   UNL     1       6.794   2.166  11.841  0.00  0.00    +0.000 N 
ATOM     27  H   UNL     1       7.805   2.168  11.916  0.00  0.00    +0.000 HD
BRANCH  26  28
ATOM     28  O   UNL     1       6.209   1.163  11.038  0.00  0.00    +0.000 OA
ATOM     29  H   UNL     1       5.453   0.866  11.592  0.00  0.00    +0.000 HD
ENDBRANCH  26  28
ENDBRANCH  23  25
ENDBRANCH  22  23
ENDBRANCH  21  22
ENDBRANCH  20  21
ENDBRANCH  19  20
ENDBRANCH  18  19
ENDBRANCH  17  18
ENDBRANCH   1  17
TORSDOF 10
ENDMDL
MODEL 9
REMARK VINA RESULT:      -7.6      4.901      6.912
REMARK  Name = 
REMARK  10 active torsions:
REMARK  status: ('A' for Active; 'I' for Inactive)
REMARK    1  A    between atoms: C_2  and  C_3
REMARK    2  A    between atoms: C_3  and  C_4
REMARK    3  A    between atoms: C_4  and  C_5
REMARK    4  A    between atoms: C_5  and  C_6
REMARK    5  A    between atoms: C_6  and  C_7
REMARK    6  A    between atoms: C_7  and  C_8
REMARK    7  A    between atoms: C_8  and  O_9
REMARK    8  A    between atoms: O_9  and  C_10
REMARK    9  A    between atoms: C_14  and  C_15
REMARK   10  A    between atoms: N_25  and  O_26
REMARK                            x       y       z     vdW  Elec       q    Type
REMARK                         _______ _______ _______ _____ _____    ______ ____
ROOT
ATOM      1  C   UNL     1       4.650   4.451  19.150  0.00  0.00    +0.000 A 
ATOM      2  C   UNL     1       4.026   3.567  18.277  0.00  0.00    +0.000 A 
ATOM      3  C   UNL     1       2.717   3.809  17.836  0.00  0.00    +0.000 A 
ATOM      4  C   UNL     1       2.022   4.956  18.250  0.00  0.00    +0.000 A 
ATOM      5  C   UNL     1       2.635   5.856  19.118  0.00  0.00    +0.000 A 
ATOM      6  C   UNL     1       3.942   5.574  19.565  0.00  0.00    +0.000 A 
ENDROOT
BRANCH   5   7
ATOM      7  C   UNL     1       2.045   7.105  19.621  0.00  0.00    +0.000 A 
ATOM      8  N   UNL     1       1.557   7.208  20.845  0.00  0.00    +0.000 NA
ATOM      9  C   UNL     1       1.065   8.468  20.969  0.00  0.00    +0.000 A 
ATOM     10  C   UNL     1       0.432   9.056  22.069  0.00  0.00    +0.000 A 
ATOM     11  C   UNL     1      -0.022  10.371  21.949  0.00  0.00    +0.000 A 
ATOM     12  C   UNL     1       0.164  11.076  20.754  0.00  0.00    +0.000 A 
ATOM     13  C   UNL     1       0.815  10.505  19.651  0.00  0.00    +0.000 A 
ATOM     14  C   UNL     1       1.254   9.186  19.797  0.00  0.00    +0.000 A 
ATOM     15  N   UNL     1       1.913   8.307  18.965  0.00  0.00    +0.000 N 
ATOM     16  H   UNL     1       2.232   8.505  18.032  0.00  0.00    +0.000 HD
ENDBRANCH   5   7
BRANCH   1  17
ATOM     17  O   UNL     1       5.936   4.156  19.530  0.00  0.00    +0.000 OA
BRANCH  17  18
ATOM     18  C   UNL     1       6.836   5.272  19.563  0.00  0.00    +0.000 C 
BRANCH  18  19
ATOM     19  C   UNL     1       7.510   5.453  18.205  0.00  0.00    +0.000 C 
BRANCH  19  20
ATOM     20  C   UNL     1       7.518   6.930  17.800  0.00  0.00    +0.000 C 
BRANCH  20  21
ATOM     21  C   UNL     1       6.242   7.337  17.062  0.00  0.00    +0.000 C 
BRANCH  21  22
ATOM     22  C   UNL     1       5.474   6.106  16.569  0.00  0.00    +0.000 C 
BRANCH  22  23
ATOM     23  C   UNL     1       5.379   6.070  15.044  0.00  0.00    +0.000 C 
BRANCH  23  25
ATOM     24  O   UNL     1       7.542   5.062  14.561  0.00  0.00    +0.000 OA
ATOM     25  C   UNL     1       6.321   5.052  14.434  0.00  0.00    +0.000 C 
ATOM     26  N   UNL     1       5.676   4.083  13.703  0.00  0.00    +0.000 N 
ATOM     27  H   UNL     1       4.673   3.935  13.694  0.00  0.00    +0.000 HD
BRANCH  26  28
ATOM     28  O   UNL     1       6.484   3.058  13.166  0.00  0.00    +0.000 OA
ATOM     29  H   UNL     1       7.172   3.566  12.681  0.00  0.00    +0.000 HD
ENDBRANCH  26  28
ENDBRANCH  23  25
ENDBRANCH  22  23
ENDBRANCH  21  22
ENDBRANCH  20  21
ENDBRANCH  19  20
ENDBRANCH  18  19
ENDBRANCH  17  18
ENDBRANCH   1  17
TORSDOF 10
ENDMDL
