MODEL 1
REMARK VINA RESULT:      -8.7      0.000      0.000
REMARK  Name = 
REMARK  6 active torsions:
REMARK  status: ('A' for Active; 'I' for Inactive)
REMARK    1  A    between atoms: C_1  and  C_2
REMARK    2  A    between atoms: C_2  and  N_3
REMARK    3  A    between atoms: C_2  and  C_13
REMARK    4  A    between atoms: C_4  and  C_6
REMARK    5  A    between atoms: C_16  and  N_17
REMARK    6  A    between atoms: C_22  and  C_23
REMARK                            x       y       z     vdW  Elec       q    Type
REMARK                         _______ _______ _______ _____ _____    ______ ____
ROOT
ATOM      1  C   UNL     1       1.062  10.467  19.502  0.00  0.00    +0.000 A 
ATOM      2  C   UNL     1       1.439  10.090  18.205  0.00  0.00    +0.000 A 
ATOM      3  C   UNL     1       1.848   8.781  17.921  0.00  0.00    +0.000 A 
ATOM      4  C   UNL     1       1.889   7.801  18.912  0.00  0.00    +0.000 A 
ATOM      5  C   UNL     1       1.503   8.164  20.209  0.00  0.00    +0.000 A 
ATOM      6  C   UNL     1       1.095   9.480  20.499  0.00  0.00    +0.000 A 
ENDROOT
BRANCH   4   7
ATOM      7  N   UNL     1       2.286   6.466  18.648  0.00  0.00    +0.000 N 
ATOM      8  C   UNL     1       3.586   5.990  18.683  0.00  0.00    +0.000 C 
ATOM      9  O   UNL     1       4.585   6.646  18.960  0.00  0.00    +0.000 OA
ATOM     10  N   UNL     1       3.674   4.628  18.432  0.00  0.00    +0.000 N 
ATOM     11  C   UNL     1       4.944   3.888  18.503  0.00  0.00    +0.000 C 
ATOM     12  C   UNL     1       4.717   3.432  17.052  0.00  0.00    +0.000 C 
ATOM     13  C   UNL     1       3.275   3.977  17.179  0.00  0.00    +0.000 C 
ATOM     14  H   UNL     1       1.569   5.755  18.629  0.00  0.00    +0.000 HD
BRANCH  12  15
ATOM     15  C   UNL     1       5.688   4.022  15.927  0.00  0.00    +0.000 A 
ATOM     16  C   UNL     1       5.618   3.644  14.580  0.00  0.00    +0.000 A 
ATOM     17  C   UNL     1       6.488   4.178  13.628  0.00  0.00    +0.000 A 
ATOM     18  C   UNL     1       7.418   5.124  14.023  0.00  0.00    +0.000 A 
ATOM     19  N   UNL     1       8.333   5.634  13.103  0.00  0.00    +0.000 N 
ATOM     20  N   UNL     1       7.527   5.529  15.294  0.00  0.00    +0.000 NA
ATOM     21  C   UNL     1       6.672   4.977  16.200  0.00  0.00    +0.000 A 
ATOM     22  H   UNL     1       7.892   5.932  12.242  0.00  0.00    +0.000 HD
ATOM     23  H   UNL     1       8.849   6.378  13.563  0.00  0.00    +0.000 HD
ENDBRANCH  12  15
ENDBRANCH   4   7
BRANCH   1  25
ATOM     24  C   UNL     1       1.274  12.599  20.915  0.00  0.00    +0.000 C 
ATOM     25  C   UNL     1       0.582  11.891  19.746  0.00  0.00    +0.000 C 
BRANCH  25  26
ATOM     26  N   UNL     1      -0.861  11.887  19.946  0.00  0.00    +0.000 N 
ATOM     27  C   UNL     1      -1.739  12.153  18.923  0.00  0.00    +0.000 C 
ATOM     28  O   UNL     1      -1.384  12.392  17.770  0.00  0.00    +0.000 OA
ATOM     29  H   UNL     1      -1.201  11.621  20.859  0.00  0.00    +0.000 HD
BRANCH  27  30
ATOM     30  C   UNL     1      -3.191  12.112  19.251  0.00  0.00    +0.000 A 
ATOM     31  C   UNL     1      -3.707  12.663  20.435  0.00  0.00    +0.000 A 
ATOM     32  C   UNL     1      -5.080  12.615  20.693  0.00  0.00    +0.000 A 
ATOM     33  C   UNL     1      -5.941  12.020  19.772  0.00  0.00    +0.000 A 
ATOM     34  C   UNL     1      -5.425  11.485  18.596  0.00  0.00    +0.000 A 
ATOM     35  F   UNL     1      -6.257  10.919  17.712  0.00  0.00    +0.000 F 
ATOM     36  C   UNL     1      -4.063  11.529  18.324  0.00  0.00    +0.000 A 
ENDBRANCH  27  30
ENDBRANCH  25  26
ENDBRANCH   1  25
TORSDOF 5
ENDMDL
MODEL 2
REMARK VINA RESULT:      -8.7      0.795      1.166
REMARK  Name = 
REMARK  6 active torsions:
REMARK  status: ('A' for Active; 'I' for Inactive)
REMARK    1  A    between atoms: C_1  and  C_2
REMARK    2  A    between atoms: C_2  and  N_3
REMARK    3  A    between atoms: C_2  and  C_13
REMARK    4  A    between atoms: C_4  and  C_6
REMARK    5  A    between atoms: C_16  and  N_17
REMARK    6  A    between atoms: C_22  and  C_23
REMARK                            x       y       z     vdW  Elec       q    Type
REMARK                         _______ _______ _______ _____ _____    ______ ____
ROOT
ATOM      1  C   UNL     1       1.002  10.361  19.431  0.00  0.00    +0.000 A 
ATOM      2  C   UNL     1       1.421   9.987  18.147  0.00  0.00    +0.000 A 
ATOM      3  C   UNL     1       1.875   8.688  17.882  0.00  0.00    +0.000 A 
ATOM      4  C   UNL     1       1.919   7.717  18.881  0.00  0.00    +0.000 A 
ATOM      5  C   UNL     1       1.492   8.077  20.165  0.00  0.00    +0.000 A 
ATOM      6  C   UNL     1       1.039   9.383  20.435  0.00  0.00    +0.000 A 
ENDROOT
BRANCH   4   7
ATOM      7  N   UNL     1       2.360   6.392  18.636  0.00  0.00    +0.000 N 
ATOM      8  C   UNL     1       3.680   5.969  18.636  0.00  0.00    +0.000 C 
ATOM      9  O   UNL     1       4.660   6.672  18.860  0.00  0.00    +0.000 OA
ATOM     10  N   UNL     1       3.814   4.605  18.416  0.00  0.00    +0.000 N 
ATOM     11  C   UNL     1       5.115   3.918  18.459  0.00  0.00    +0.000 C 
ATOM     12  C   UNL     1       4.855   3.415  17.029  0.00  0.00    +0.000 C 
ATOM     13  C   UNL     1       3.397   3.905  17.195  0.00  0.00    +0.000 C 
ATOM     14  H   UNL     1       1.673   5.652  18.662  0.00  0.00    +0.000 HD
BRANCH  12  15
ATOM     15  C   UNL     1       5.760   4.014  15.855  0.00  0.00    +0.000 A 
ATOM     16  C   UNL     1       5.626   3.631  14.514  0.00  0.00    +0.000 A 
ATOM     17  C   UNL     1       6.440   4.173  13.517  0.00  0.00    +0.000 A 
ATOM     18  C   UNL     1       7.378   5.130  13.862  0.00  0.00    +0.000 A 
ATOM     19  N   UNL     1       8.239   5.648  12.896  0.00  0.00    +0.000 N 
ATOM     20  N   UNL     1       7.547   5.539  15.125  0.00  0.00    +0.000 NA
ATOM     21  C   UNL     1       6.747   4.980  16.075  0.00  0.00    +0.000 A 
ATOM     22  H   UNL     1       7.752   5.939  12.058  0.00  0.00    +0.000 HD
ATOM     23  H   UNL     1       8.770   6.398  13.327  0.00  0.00    +0.000 HD
ENDBRANCH  12  15
ENDBRANCH   4   7
BRANCH   1  25
ATOM     24  C   UNL     1       1.073  12.484  20.871  0.00  0.00    +0.000 C 
ATOM     25  C   UNL     1       0.476  11.772  19.654  0.00  0.00    +0.000 C 
BRANCH  25  26
ATOM     26  N   UNL     1      -0.977  11.735  19.756  0.00  0.00    +0.000 N 
ATOM     27  C   UNL     1      -1.791  12.000  18.682  0.00  0.00    +0.000 C 
ATOM     28  O   UNL     1      -1.365  12.264  17.559  0.00  0.00    +0.000 OA
ATOM     29  H   UNL     1      -1.371  11.448  20.642  0.00  0.00    +0.000 HD
BRANCH  27  30
ATOM     30  C   UNL     1      -3.260  11.924  18.912  0.00  0.00    +0.000 A 
ATOM     31  C   UNL     1      -4.122  11.257  18.028  0.00  0.00    +0.000 A 
ATOM     32  C   UNL     1      -5.494  11.197  18.294  0.00  0.00    +0.000 A 
ATOM     33  C   UNL     1      -6.007  11.800  19.442  0.00  0.00    +0.000 A 
ATOM     34  C   UNL     1      -5.146  12.450  20.320  0.00  0.00    +0.000 A 
ATOM     35  F   UNL     1      -5.643  13.022  21.424  0.00  0.00    +0.000 F 
ATOM     36  C   UNL     1      -3.780  12.514  20.071  0.00  0.00    +0.000 A 
ENDBRANCH  27  30
ENDBRANCH  25  26
ENDBRANCH   1  25
TORSDOF 5
ENDMDL
MODEL 3
REMARK VINA RESULT:      -8.6      3.131      4.636
REMARK  Name = 
REMARK  6 active torsions:
REMARK  status: ('A' for Active; 'I' for Inactive)
REMARK    1  A    between atoms: C_1  and  C_2
REMARK    2  A    between atoms: C_2  and  N_3
REMARK    3  A    between atoms: C_2  and  C_13
REMARK    4  A    between atoms: C_4  and  C_6
REMARK    5  A    between atoms: C_16  and  N_17
REMARK    6  A    between atoms: C_22  and  C_23
REMARK                            x       y       z     vdW  Elec       q    Type
REMARK                         _______ _______ _______ _____ _____    ______ ____
ROOT
ATOM      1  C   UNL     1       1.082   9.972  20.296  0.00  0.00    +0.000 A 
ATOM      2  C   UNL     1       1.088   8.915  21.218  0.00  0.00    +0.000 A 
ATOM      3  C   UNL     1       1.442   7.617  20.829  0.00  0.00    +0.000 A 
ATOM      4  C   UNL     1       1.809   7.327  19.516  0.00  0.00    +0.000 A 
ATOM      5  C   UNL     1       1.818   8.378  18.590  0.00  0.00    +0.000 A 
ATOM      6  C   UNL     1       1.459   9.683  18.977  0.00  0.00    +0.000 A 
ENDROOT
BRANCH   4   7
ATOM      7  N   UNL     1       2.185   6.024  19.099  0.00  0.00    +0.000 N 
ATOM      8  C   UNL     1       3.478   5.526  19.080  0.00  0.00    +0.000 C 
ATOM      9  O   UNL     1       4.486   6.130  19.432  0.00  0.00    +0.000 OA
ATOM     10  N   UNL     1       3.544   4.201  18.674  0.00  0.00    +0.000 N 
ATOM     11  C   UNL     1       4.802   3.436  18.660  0.00  0.00    +0.000 C 
ATOM     12  C   UNL     1       4.571   3.155  17.166  0.00  0.00    +0.000 C 
ATOM     13  C   UNL     1       3.138   3.705  17.354  0.00  0.00    +0.000 C 
ATOM     14  H   UNL     1       1.457   5.332  18.998  0.00  0.00    +0.000 HD
BRANCH  12  15
ATOM     15  C   UNL     1       5.554   3.855  16.117  0.00  0.00    +0.000 A 
ATOM     16  C   UNL     1       5.505   3.609  14.739  0.00  0.00    +0.000 A 
ATOM     17  C   UNL     1       6.385   4.236  13.855  0.00  0.00    +0.000 A 
ATOM     18  C   UNL     1       7.305   5.143  14.353  0.00  0.00    +0.000 A 
ATOM     19  N   UNL     1       8.230   5.743  13.501  0.00  0.00    +0.000 N 
ATOM     20  N   UNL     1       7.394   5.423  15.659  0.00  0.00    +0.000 NA
ATOM     21  C   UNL     1       6.530   4.783  16.495  0.00  0.00    +0.000 A 
ATOM     22  H   UNL     1       7.800   6.121  12.666  0.00  0.00    +0.000 HD
ATOM     23  H   UNL     1       8.736   6.440  14.037  0.00  0.00    +0.000 HD
ENDBRANCH  12  15
ENDBRANCH   4   7
BRANCH   1  25
ATOM     24  C   UNL     1      -0.767  11.627  20.950  0.00  0.00    +0.000 C 
ATOM     25  C   UNL     1       0.734  11.372  20.783  0.00  0.00    +0.000 C 
BRANCH  25  26
ATOM     26  N   UNL     1       1.312  12.356  19.877  0.00  0.00    +0.000 N 
ATOM     27  C   UNL     1       1.935  13.491  20.336  0.00  0.00    +0.000 C 
ATOM     28  O   UNL     1       2.072  13.753  21.530  0.00  0.00    +0.000 OA
ATOM     29  H   UNL     1       1.291  12.144  18.889  0.00  0.00    +0.000 HD
BRANCH  27  30
ATOM     30  C   UNL     1       2.493  14.416  19.311  0.00  0.00    +0.000 A 
ATOM     31  C   UNL     1       1.791  15.546  18.862  0.00  0.00    +0.000 A 
ATOM     32  C   UNL     1       2.361  16.396  17.910  0.00  0.00    +0.000 A 
ATOM     33  C   UNL     1       3.632  16.123  17.405  0.00  0.00    +0.000 A 
ATOM     34  C   UNL     1       4.327  15.007  17.861  0.00  0.00    +0.000 A 
ATOM     35  F   UNL     1       5.549  14.752  17.377  0.00  0.00    +0.000 F 
ATOM     36  C   UNL     1       3.775  14.156  18.810  0.00  0.00    +0.000 A 
ENDBRANCH  27  30
ENDBRANCH  25  26
ENDBRANCH   1  25
TORSDOF 5
ENDMDL
MODEL 4
REMARK VINA RESULT:      -8.6      2.932      4.647
REMARK  Name = 
REMARK  6 active torsions:
REMARK  status: ('A' for Active; 'I' for Inactive)
REMARK    1  A    between atoms: C_1  and  C_2
REMARK    2  A    between atoms: C_2  and  N_3
REMARK    3  A    between atoms: C_2  and  C_13
REMARK    4  A    between atoms: C_4  and  C_6
REMARK    5  A    between atoms: C_16  and  N_17
REMARK    6  A    between atoms: C_22  and  C_23
REMARK                            x       y       z     vdW  Elec       q    Type
REMARK                         _______ _______ _______ _____ _____    ______ ____
ROOT
ATOM      1  C   UNL     1       1.082  10.153  20.009  0.00  0.00    +0.000 A 
ATOM      2  C   UNL     1       1.450   9.864  18.687  0.00  0.00    +0.000 A 
ATOM      3  C   UNL     1       1.851   8.575  18.312  0.00  0.00    +0.000 A 
ATOM      4  C   UNL     1       1.892   7.530  19.234  0.00  0.00    +0.000 A 
ATOM      5  C   UNL     1       1.516   7.806  20.555  0.00  0.00    +0.000 A 
ATOM      6  C   UNL     1       1.116   9.102  20.936  0.00  0.00    +0.000 A 
ENDROOT
BRANCH   4   7
ATOM      7  N   UNL     1       2.281   6.214  18.878  0.00  0.00    +0.000 N 
ATOM      8  C   UNL     1       3.580   5.731  18.873  0.00  0.00    +0.000 C 
ATOM      9  O   UNL     1       4.583   6.363  19.188  0.00  0.00    +0.000 OA
ATOM     10  N   UNL     1       3.660   4.389  18.530  0.00  0.00    +0.000 N 
ATOM     11  C   UNL     1       4.926   3.640  18.542  0.00  0.00    +0.000 C 
ATOM     12  C   UNL     1       4.688   3.285  17.065  0.00  0.00    +0.000 C 
ATOM     13  C   UNL     1       3.250   3.826  17.238  0.00  0.00    +0.000 C 
ATOM     14  H   UNL     1       1.561   5.509  18.816  0.00  0.00    +0.000 HD
BRANCH  12  15
ATOM     15  C   UNL     1       5.656   3.945  15.977  0.00  0.00    +0.000 A 
ATOM     16  C   UNL     1       5.593   3.640  14.611  0.00  0.00    +0.000 A 
ATOM     17  C   UNL     1       6.459   4.235  13.692  0.00  0.00    +0.000 A 
ATOM     18  C   UNL     1       7.378   5.167  14.140  0.00  0.00    +0.000 A 
ATOM     19  N   UNL     1       8.290   5.736  13.253  0.00  0.00    +0.000 N 
ATOM     20  N   UNL     1       7.480   5.503  15.432  0.00  0.00    +0.000 NA
ATOM     21  C   UNL     1       6.630   4.894  16.304  0.00  0.00    +0.000 A 
ATOM     22  H   UNL     1       7.848   6.076  12.408  0.00  0.00    +0.000 HD
ATOM     23  H   UNL     1       8.797   6.459  13.754  0.00  0.00    +0.000 HD
ENDBRANCH  12  15
ENDBRANCH   4   7
BRANCH   1  25
ATOM     24  C   UNL     1      -0.823  11.869  19.910  0.00  0.00    +0.000 C 
ATOM     25  C   UNL     1       0.610  11.559  20.352  0.00  0.00    +0.000 C 
BRANCH  25  26
ATOM     26  N   UNL     1       1.532  12.532  19.781  0.00  0.00    +0.000 N 
ATOM     27  C   UNL     1       2.015  13.593  20.508  0.00  0.00    +0.000 C 
ATOM     28  O   UNL     1       1.728  13.792  21.687  0.00  0.00    +0.000 OA
ATOM     29  H   UNL     1       1.855  12.365  18.838  0.00  0.00    +0.000 HD
BRANCH  27  30
ATOM     30  C   UNL     1       2.957  14.514  19.815  0.00  0.00    +0.000 A 
ATOM     31  C   UNL     1       4.055  15.094  20.469  0.00  0.00    +0.000 A 
ATOM     32  C   UNL     1       4.922  15.941  19.772  0.00  0.00    +0.000 A 
ATOM     33  C   UNL     1       4.698  16.209  18.423  0.00  0.00    +0.000 A 
ATOM     34  C   UNL     1       3.615  15.623  17.777  0.00  0.00    +0.000 A 
ATOM     35  F   UNL     1       3.408  15.880  16.479  0.00  0.00    +0.000 F 
ATOM     36  C   UNL     1       2.747  14.776  18.455  0.00  0.00    +0.000 A 
ENDBRANCH  27  30
ENDBRANCH  25  26
ENDBRANCH   1  25
TORSDOF 5
ENDMDL
MODEL 5
REMARK VINA RESULT:      -8.5      3.688     11.573
REMARK  Name = 
REMARK  6 active torsions:
REMARK  status: ('A' for Active; 'I' for Inactive)
REMARK    1  A    between atoms: C_1  and  C_2
REMARK    2  A    between atoms: C_2  and  N_3
REMARK    3  A    between atoms: C_2  and  C_13
REMARK    4  A    between atoms: C_4  and  C_6
REMARK    5  A    between atoms: C_16  and  N_17
REMARK    6  A    between atoms: C_22  and  C_23
REMARK                            x       y       z     vdW  Elec       q    Type
REMARK                         _______ _______ _______ _____ _____    ______ ____
ROOT
ATOM      1  C   UNL     1       2.197   7.196  19.037  0.00  0.00    +0.000 A 
ATOM      2  C   UNL     1       1.627   7.644  20.237  0.00  0.00    +0.000 A 
ATOM      3  C   UNL     1       1.149   8.954  20.367  0.00  0.00    +0.000 A 
ATOM      4  C   UNL     1       1.214   9.860  19.309  0.00  0.00    +0.000 A 
ATOM      5  C   UNL     1       1.771   9.419  18.102  0.00  0.00    +0.000 A 
ATOM      6  C   UNL     1       2.256   8.103  17.969  0.00  0.00    +0.000 A 
ENDROOT
BRANCH   4   7
ATOM      7  N   UNL     1       0.725  11.187  19.411  0.00  0.00    +0.000 N 
ATOM      8  C   UNL     1       0.690  11.946  20.569  0.00  0.00    +0.000 C 
ATOM      9  O   UNL     1       1.087  11.591  21.674  0.00  0.00    +0.000 OA
ATOM     10  N   UNL     1       0.207  13.231  20.363  0.00  0.00    +0.000 N 
ATOM     11  C   UNL     1       0.160  14.243  21.431  0.00  0.00    +0.000 C 
ATOM     12  C   UNL     1      -1.350  14.385  21.180  0.00  0.00    +0.000 C 
ATOM     13  C   UNL     1      -1.145  13.555  19.891  0.00  0.00    +0.000 C 
ATOM     14  H   UNL     1       0.576  11.703  18.555  0.00  0.00    +0.000 HD
BRANCH  12  15
ATOM     15  C   UNL     1      -2.346  13.852  22.312  0.00  0.00    +0.000 A 
ATOM     16  C   UNL     1      -3.109  14.703  23.123  0.00  0.00    +0.000 A 
ATOM     17  C   UNL     1      -3.963  14.199  24.105  0.00  0.00    +0.000 A 
ATOM     18  C   UNL     1      -4.078  12.828  24.257  0.00  0.00    +0.000 A 
ATOM     19  N   UNL     1      -4.883  12.299  25.265  0.00  0.00    +0.000 N 
ATOM     20  N   UNL     1      -3.380  11.967  23.507  0.00  0.00    +0.000 NA
ATOM     21  C   UNL     1      -2.544  12.492  22.568  0.00  0.00    +0.000 A 
ATOM     22  H   UNL     1      -5.803  12.720  25.287  0.00  0.00    +0.000 HD
ATOM     23  H   UNL     1      -4.911  11.292  25.140  0.00  0.00    +0.000 HD
ENDBRANCH  12  15
ENDBRANCH   4   7
BRANCH   1  25
ATOM     24  C   UNL     1       3.039   5.112  20.274  0.00  0.00    +0.000 C 
ATOM     25  C   UNL     1       2.658   5.749  18.935  0.00  0.00    +0.000 C 
BRANCH  25  26
ATOM     26  N   UNL     1       3.773   5.661  18.002  0.00  0.00    +0.000 N 
ATOM     27  C   UNL     1       3.905   4.616  17.119  0.00  0.00    +0.000 C 
ATOM     28  O   UNL     1       3.093   3.696  17.033  0.00  0.00    +0.000 OA
ATOM     29  H   UNL     1       4.423   6.434  17.984  0.00  0.00    +0.000 HD
BRANCH  27  30
ATOM     30  C   UNL     1       5.084   4.644  16.211  0.00  0.00    +0.000 A 
ATOM     31  C   UNL     1       6.321   5.177  16.607  0.00  0.00    +0.000 A 
ATOM     32  C   UNL     1       7.406   5.166  15.725  0.00  0.00    +0.000 A 
ATOM     33  C   UNL     1       7.261   4.623  14.449  0.00  0.00    +0.000 A 
ATOM     34  C   UNL     1       6.035   4.088  14.067  0.00  0.00    +0.000 A 
ATOM     35  F   UNL     1       5.903   3.563  12.842  0.00  0.00    +0.000 F 
ATOM     36  C   UNL     1       4.950   4.087  14.933  0.00  0.00    +0.000 A 
ENDBRANCH  27  30
ENDBRANCH  25  26
ENDBRANCH   1  25
TORSDOF 5
ENDMDL
MODEL 6
REMARK VINA RESULT:      -8.3      3.288      5.091
REMARK  Name = 
REMARK  6 active torsions:
REMARK  status: ('A' for Active; 'I' for Inactive)
REMARK    1  A    between atoms: C_1  and  C_2
REMARK    2  A    between atoms: C_2  and  N_3
REMARK    3  A    between atoms: C_2  and  C_13
REMARK    4  A    between atoms: C_4  and  C_6
REMARK    5  A    between atoms: C_16  and  N_17
REMARK    6  A    between atoms: C_22  and  C_23
REMARK                            x       y       z     vdW  Elec       q    Type
REMARK                         _______ _______ _______ _____ _____    ______ ____
ROOT
ATOM      1  C   UNL     1       1.050  10.309  19.799  0.00  0.00    +0.000 A 
ATOM      2  C   UNL     1       1.060   9.318  20.790  0.00  0.00    +0.000 A 
ATOM      3  C   UNL     1       1.440   8.002  20.495  0.00  0.00    +0.000 A 
ATOM      4  C   UNL     1       1.828   7.629  19.209  0.00  0.00    +0.000 A 
ATOM      5  C   UNL     1       1.832   8.614  18.214  0.00  0.00    +0.000 A 
ATOM      6  C   UNL     1       1.448   9.937  18.507  0.00  0.00    +0.000 A 
ENDROOT
BRANCH   4   7
ATOM      7  N   UNL     1       2.229   6.308  18.888  0.00  0.00    +0.000 N 
ATOM      8  C   UNL     1       3.532   5.835  18.901  0.00  0.00    +0.000 C 
ATOM      9  O   UNL     1       4.528   6.483  19.206  0.00  0.00    +0.000 OA
ATOM     10  N   UNL     1       3.624   4.485  18.592  0.00  0.00    +0.000 N 
ATOM     11  C   UNL     1       4.897   3.747  18.630  0.00  0.00    +0.000 C 
ATOM     12  C   UNL     1       4.670   3.354  17.161  0.00  0.00    +0.000 C 
ATOM     13  C   UNL     1       3.226   3.887  17.312  0.00  0.00    +0.000 C 
ATOM     14  H   UNL     1       1.515   5.595  18.839  0.00  0.00    +0.000 HD
BRANCH  12  15
ATOM     15  C   UNL     1       5.638   3.995  16.062  0.00  0.00    +0.000 A 
ATOM     16  C   UNL     1       5.564   3.680  14.699  0.00  0.00    +0.000 A 
ATOM     17  C   UNL     1       6.431   4.258  13.770  0.00  0.00    +0.000 A 
ATOM     18  C   UNL     1       7.363   5.184  14.206  0.00  0.00    +0.000 A 
ATOM     19  N   UNL     1       8.276   5.736  13.308  0.00  0.00    +0.000 N 
ATOM     20  N   UNL     1       7.476   5.529  15.494  0.00  0.00    +0.000 NA
ATOM     21  C   UNL     1       6.624   4.936  16.376  0.00  0.00    +0.000 A 
ATOM     22  H   UNL     1       7.832   6.073  12.463  0.00  0.00    +0.000 HD
ATOM     23  H   UNL     1       8.793   6.457  13.800  0.00  0.00    +0.000 HD
ENDBRANCH  12  15
ENDBRANCH   4   7
BRANCH   1  25
ATOM     24  C   UNL     1      -0.744  12.144  19.776  0.00  0.00    +0.000 C 
ATOM     25  C   UNL     1       0.674  11.733  20.184  0.00  0.00    +0.000 C 
BRANCH  25  26
ATOM     26  N   UNL     1       1.646  12.660  19.619  0.00  0.00    +0.000 N 
ATOM     27  C   UNL     1       2.274  13.613  20.384  0.00  0.00    +0.000 C 
ATOM     28  O   UNL     1       2.084  13.746  21.592  0.00  0.00    +0.000 OA
ATOM     29  H   UNL     1       1.891  12.538  18.646  0.00  0.00    +0.000 HD
BRANCH  27  30
ATOM     30  C   UNL     1       3.253  14.496  19.692  0.00  0.00    +0.000 A 
ATOM     31  C   UNL     1       3.774  14.188  18.426  0.00  0.00    +0.000 A 
ATOM     32  C   UNL     1       4.680  15.056  17.808  0.00  0.00    +0.000 A 
ATOM     33  C   UNL     1       5.065  16.232  18.449  0.00  0.00    +0.000 A 
ATOM     34  C   UNL     1       4.537  16.537  19.700  0.00  0.00    +0.000 A 
ATOM     35  F   UNL     1       4.906  17.671  20.309  0.00  0.00    +0.000 F 
ATOM     36  C   UNL     1       3.633  15.687  20.324  0.00  0.00    +0.000 A 
ENDBRANCH  27  30
ENDBRANCH  25  26
ENDBRANCH   1  25
TORSDOF 5
ENDMDL
MODEL 7
REMARK VINA RESULT:      -8.3      1.687      2.202
REMARK  Name = 
REMARK  6 active torsions:
REMARK  status: ('A' for Active; 'I' for Inactive)
REMARK    1  A    between atoms: C_1  and  C_2
REMARK    2  A    between atoms: C_2  and  N_3
REMARK    3  A    between atoms: C_2  and  C_13
REMARK    4  A    between atoms: C_4  and  C_6
REMARK    5  A    between atoms: C_16  and  N_17
REMARK    6  A    between atoms: C_22  and  C_23
REMARK                            x       y       z     vdW  Elec       q    Type
REMARK                         _______ _______ _______ _____ _____    ______ ____
ROOT
ATOM      1  C   UNL     1       1.036  10.472  19.534  0.00  0.00    +0.000 A 
ATOM      2  C   UNL     1       0.984   9.505  20.548  0.00  0.00    +0.000 A 
ATOM      3  C   UNL     1       1.362   8.179  20.304  0.00  0.00    +0.000 A 
ATOM      4  C   UNL     1       1.812   7.770  19.049  0.00  0.00    +0.000 A 
ATOM      5  C   UNL     1       1.879   8.731  18.032  0.00  0.00    +0.000 A 
ATOM      6  C   UNL     1       1.495  10.065  18.273  0.00  0.00    +0.000 A 
ENDROOT
BRANCH   4   7
ATOM      7  N   UNL     1       2.214   6.438  18.780  0.00  0.00    +0.000 N 
ATOM      8  C   UNL     1       3.516   5.966  18.814  0.00  0.00    +0.000 C 
ATOM      9  O   UNL     1       4.512   6.625  19.095  0.00  0.00    +0.000 OA
ATOM     10  N   UNL     1       3.609   4.605  18.558  0.00  0.00    +0.000 N 
ATOM     11  C   UNL     1       4.882   3.869  18.627  0.00  0.00    +0.000 C 
ATOM     12  C   UNL     1       4.657   3.419  17.174  0.00  0.00    +0.000 C 
ATOM     13  C   UNL     1       3.213   3.958  17.302  0.00  0.00    +0.000 C 
ATOM     14  H   UNL     1       1.500   5.724  18.758  0.00  0.00    +0.000 HD
BRANCH  12  15
ATOM     15  C   UNL     1       5.627   4.017  16.052  0.00  0.00    +0.000 A 
ATOM     16  C   UNL     1       5.547   3.658  14.700  0.00  0.00    +0.000 A 
ATOM     17  C   UNL     1       6.416   4.198  13.751  0.00  0.00    +0.000 A 
ATOM     18  C   UNL     1       7.355   5.131  14.154  0.00  0.00    +0.000 A 
ATOM     19  N   UNL     1       8.270   5.647  13.237  0.00  0.00    +0.000 N 
ATOM     20  N   UNL     1       7.474   5.517  15.430  0.00  0.00    +0.000 NA
ATOM     21  C   UNL     1       6.620   4.960  16.333  0.00  0.00    +0.000 A 
ATOM     22  H   UNL     1       7.827   5.960  12.382  0.00  0.00    +0.000 HD
ATOM     23  H   UNL     1       8.794   6.380  13.703  0.00  0.00    +0.000 HD
ENDBRANCH  12  15
ENDBRANCH   4   7
BRANCH   1  25
ATOM     24  C   UNL     1       1.695  12.657  20.708  0.00  0.00    +0.000 C 
ATOM     25  C   UNL     1       0.657  11.909  19.865  0.00  0.00    +0.000 C 
BRANCH  25  26
ATOM     26  N   UNL     1      -0.638  11.927  20.532  0.00  0.00    +0.000 N 
ATOM     27  C   UNL     1      -1.437  13.044  20.542  0.00  0.00    +0.000 C 
ATOM     28  O   UNL     1      -1.138  14.097  19.981  0.00  0.00    +0.000 OA
ATOM     29  H   UNL     1      -0.959  11.061  20.941  0.00  0.00    +0.000 HD
BRANCH  27  30
ATOM     30  C   UNL     1      -2.742  12.934  21.251  0.00  0.00    +0.000 A 
ATOM     31  C   UNL     1      -3.966  12.912  20.566  0.00  0.00    +0.000 A 
ATOM     32  C   UNL     1      -5.166  12.791  21.274  0.00  0.00    +0.000 A 
ATOM     33  C   UNL     1      -5.147  12.691  22.664  0.00  0.00    +0.000 A 
ATOM     34  C   UNL     1      -3.930  12.703  23.337  0.00  0.00    +0.000 A 
ATOM     35  F   UNL     1      -3.917  12.601  24.672  0.00  0.00    +0.000 F 
ATOM     36  C   UNL     1      -2.729  12.818  22.647  0.00  0.00    +0.000 A 
ENDBRANCH  27  30
ENDBRANCH  25  26
ENDBRANCH   1  25
TORSDOF 5
ENDMDL
MODEL 8
REMARK VINA RESULT:      -8.3      3.858     11.711
REMARK  Name = 
REMARK  6 active torsions:
REMARK  status: ('A' for Active; 'I' for Inactive)
REMARK    1  A    between atoms: C_1  and  C_2
REMARK    2  A    between atoms: C_2  and  N_3
REMARK    3  A    between atoms: C_2  and  C_13
REMARK    4  A    between atoms: C_4  and  C_6
REMARK    5  A    between atoms: C_16  and  N_17
REMARK    6  A    between atoms: C_22  and  C_23
REMARK                            x       y       z     vdW  Elec       q    Type
REMARK                         _______ _______ _______ _____ _____    ______ ____
ROOT
ATOM      1  C   UNL     1       1.810   6.668  20.094  0.00  0.00    +0.000 A 
ATOM      2  C   UNL     1       1.044   7.111  21.182  0.00  0.00    +0.000 A 
ATOM      3  C   UNL     1       0.628   8.445  21.279  0.00  0.00    +0.000 A 
ATOM      4  C   UNL     1       0.950   9.380  20.296  0.00  0.00    +0.000 A 
ATOM      5  C   UNL     1       1.705   8.945  19.199  0.00  0.00    +0.000 A 
ATOM      6  C   UNL     1       2.128   7.605  19.101  0.00  0.00    +0.000 A 
ENDROOT
BRANCH   4   7
ATOM      7  N   UNL     1       0.530  10.733  20.363  0.00  0.00    +0.000 N 
ATOM      8  C   UNL     1       0.190  11.414  21.520  0.00  0.00    +0.000 C 
ATOM      9  O   UNL     1       0.215  10.956  22.658  0.00  0.00    +0.000 OA
ATOM     10  N   UNL     1      -0.136  12.744  21.293  0.00  0.00    +0.000 N 
ATOM     11  C   UNL     1      -0.444  13.684  22.383  0.00  0.00    +0.000 C 
ATOM     12  C   UNL     1      -1.798  13.962  21.709  0.00  0.00    +0.000 C 
ATOM     13  C   UNL     1      -1.261  13.205  20.472  0.00  0.00    +0.000 C 
ATOM     14  H   UNL     1       0.674  11.314  19.550  0.00  0.00    +0.000 HD
BRANCH  12  15
ATOM     15  C   UNL     1      -3.117  13.438  22.446  0.00  0.00    +0.000 A 
ATOM     16  C   UNL     1      -3.211  13.292  23.836  0.00  0.00    +0.000 A 
ATOM     17  C   UNL     1      -4.379  12.825  24.441  0.00  0.00    +0.000 A 
ATOM     18  C   UNL     1      -5.475  12.529  23.649  0.00  0.00    +0.000 A 
ATOM     19  N   UNL     1      -6.635  12.011  24.222  0.00  0.00    +0.000 N 
ATOM     20  N   UNL     1      -5.446  12.655  22.317  0.00  0.00    +0.000 NA
ATOM     21  C   UNL     1      -4.286  13.100  21.757  0.00  0.00    +0.000 A 
ATOM     22  H   UNL     1      -6.936  12.538  25.033  0.00  0.00    +0.000 HD
ATOM     23  H   UNL     1      -7.342  11.963  23.496  0.00  0.00    +0.000 HD
ENDBRANCH  12  15
ENDBRANCH   4   7
BRANCH   1  25
ATOM     24  C   UNL     1       2.322   4.504  21.376  0.00  0.00    +0.000 C 
ATOM     25  C   UNL     1       2.196   5.198  20.016  0.00  0.00    +0.000 C 
BRANCH  25  26
ATOM     26  N   UNL     1       3.439   5.064  19.268  0.00  0.00    +0.000 N 
ATOM     27  C   UNL     1       3.473   4.545  17.996  0.00  0.00    +0.000 C 
ATOM     28  O   UNL     1       2.469   4.178  17.388  0.00  0.00    +0.000 OA
ATOM     29  H   UNL     1       4.280   5.424  19.699  0.00  0.00    +0.000 HD
BRANCH  27  30
ATOM     30  C   UNL     1       4.804   4.467  17.334  0.00  0.00    +0.000 A 
ATOM     31  C   UNL     1       4.941   4.285  15.949  0.00  0.00    +0.000 A 
ATOM     32  C   UNL     1       6.212   4.234  15.369  0.00  0.00    +0.000 A 
ATOM     33  C   UNL     1       7.348   4.365  16.167  0.00  0.00    +0.000 A 
ATOM     34  C   UNL     1       7.205   4.555  17.538  0.00  0.00    +0.000 A 
ATOM     35  F   UNL     1       8.299   4.685  18.299  0.00  0.00    +0.000 F 
ATOM     36  C   UNL     1       5.949   4.612  18.128  0.00  0.00    +0.000 A 
ENDBRANCH  27  30
ENDBRANCH  25  26
ENDBRANCH   1  25
TORSDOF 5
ENDMDL
MODEL 9
REMARK VINA RESULT:      -8.3      3.560     10.916
REMARK  Name = 
REMARK  6 active torsions:
REMARK  status: ('A' for Active; 'I' for Inactive)
REMARK    1  A    between atoms: C_1  and  C_2
REMARK    2  A    between atoms: C_2  and  N_3
REMARK    3  A    between atoms: C_2  and  C_13
REMARK    4  A    between atoms: C_4  and  C_6
REMARK    5  A    between atoms: C_16  and  N_17
REMARK    6  A    between atoms: C_22  and  C_23
REMARK                            x       y       z     vdW  Elec       q    Type
REMARK                         _______ _______ _______ _____ _____    ______ ____
ROOT
ATOM      1  C   UNL     1       2.290   4.628  18.810  0.00  0.00    +0.000 A 
ATOM      2  C   UNL     1       2.409   5.854  18.141  0.00  0.00    +0.000 A 
ATOM      3  C   UNL     1       2.182   7.066  18.805  0.00  0.00    +0.000 A 
ATOM      4  C   UNL     1       1.839   7.102  20.156  0.00  0.00    +0.000 A 
ATOM      5  C   UNL     1       1.729   5.883  20.837  0.00  0.00    +0.000 A 
ATOM      6  C   UNL     1       1.952   4.662  20.171  0.00  0.00    +0.000 A 
ENDROOT
BRANCH   4   7
ATOM      7  N   UNL     1       1.617   8.316  20.854  0.00  0.00    +0.000 N 
ATOM      8  C   UNL     1       0.438   8.680  21.484  0.00  0.00    +0.000 C 
ATOM      9  O   UNL     1      -0.584   8.003  21.544  0.00  0.00    +0.000 OA
ATOM     10  N   UNL     1       0.523   9.903  22.134  0.00  0.00    +0.000 N 
ATOM     11  C   UNL     1      -0.577  10.452  22.942  0.00  0.00    +0.000 C 
ATOM     12  C   UNL     1      -0.552  11.708  22.056  0.00  0.00    +0.000 C 
ATOM     13  C   UNL     1       0.783  11.188  21.474  0.00  0.00    +0.000 C 
ATOM     14  H   UNL     1       2.422   8.877  21.093  0.00  0.00    +0.000 HD
BRANCH  12  15
ATOM     15  C   UNL     1      -1.796  11.956  21.082  0.00  0.00    +0.000 A 
ATOM     16  C   UNL     1      -1.797  11.581  19.732  0.00  0.00    +0.000 A 
ATOM     17  C   UNL     1      -2.901  11.819  18.912  0.00  0.00    +0.000 A 
ATOM     18  C   UNL     1      -4.028  12.412  19.456  0.00  0.00    +0.000 A 
ATOM     19  N   UNL     1      -5.124  12.709  18.648  0.00  0.00    +0.000 N 
ATOM     20  N   UNL     1      -4.087  12.784  20.740  0.00  0.00    +0.000 NA
ATOM     21  C   UNL     1      -2.987  12.551  21.509  0.00  0.00    +0.000 A 
ATOM     22  H   UNL     1      -5.399  11.928  18.066  0.00  0.00    +0.000 HD
ATOM     23  H   UNL     1      -5.871  13.038  19.251  0.00  0.00    +0.000 HD
ENDBRANCH  12  15
ENDBRANCH   4   7
BRANCH   1  25
ATOM     24  C   UNL     1       3.173   2.221  18.920  0.00  0.00    +0.000 C 
ATOM     25  C   UNL     1       2.593   3.342  18.053  0.00  0.00    +0.000 C 
BRANCH  25  26
ATOM     26  N   UNL     1       3.490   3.634  16.943  0.00  0.00    +0.000 N 
ATOM     27  C   UNL     1       4.814   3.946  17.139  0.00  0.00    +0.000 C 
ATOM     28  O   UNL     1       5.344   3.984  18.248  0.00  0.00    +0.000 OA
ATOM     29  H   UNL     1       3.117   3.540  16.009  0.00  0.00    +0.000 HD
BRANCH  27  30
ATOM     30  C   UNL     1       5.630   4.218  15.924  0.00  0.00    +0.000 A 
ATOM     31  C   UNL     1       6.790   5.006  15.962  0.00  0.00    +0.000 A 
ATOM     32  C   UNL     1       7.535   5.220  14.798  0.00  0.00    +0.000 A 
ATOM     33  C   UNL     1       7.125   4.647  13.595  0.00  0.00    +0.000 A 
ATOM     34  C   UNL     1       5.980   3.857  13.566  0.00  0.00    +0.000 A 
ATOM     35  F   UNL     1       5.595   3.304  12.408  0.00  0.00    +0.000 F 
ATOM     36  C   UNL     1       5.233   3.632  14.715  0.00  0.00    +0.000 A 
ENDBRANCH  27  30
ENDBRANCH  25  26
ENDBRANCH   1  25
TORSDOF 5
ENDMDL
