MODEL 1
REMARK VINA RESULT:      -6.4      0.000      0.000
REMARK  Name = 
REMARK  9 active torsions:
REMARK  status: ('A' for Active; 'I' for Inactive)
REMARK    1  A    between atoms: C_1  and  O_2
REMARK    2  A    between atoms: O_2  and  C_3
REMARK    3  A    between atoms: C_3  and  C_4
REMARK    4  A    between atoms: N_8  and  C_9
REMARK    5  A    between atoms: C_9  and  C_10
REMARK    6  A    between atoms: C_10  and  C_11
REMARK    7  A    between atoms: C_11  and  C_12
REMARK    8  A    between atoms: C_16  and  O_17
REMARK    9  A    between atoms: O_17  and  C_18
REMARK                            x       y       z     vdW  Elec       q    Type
REMARK                         _______ _______ _______ _____ _____    ______ ____
ROOT
ATOM      1  C   UNL     1       4.332   4.026  19.075  0.00  0.00    +0.000 C 
ENDROOT
BRANCH   1   6
ATOM      2  C   UNL     1       6.408   5.724  16.381  0.00  0.00    +0.000 C 
ATOM      3  C   UNL     1       7.321   6.579  17.269  0.00  0.00    +0.000 C 
ATOM      4  C   UNL     1       7.618   5.897  18.600  0.00  0.00    +0.000 C 
ATOM      5  C   UNL     1       6.343   5.410  19.292  0.00  0.00    +0.000 C 
ATOM      6  N   UNL     1       5.540   4.549  18.410  0.00  0.00    +0.000 NA
ATOM      7  C   UNL     1       5.170   5.278  17.180  0.00  0.00    +0.000 C 
BRANCH   2   8
ATOM      8  C   UNL     1       7.157   4.527  15.776  0.00  0.00    +0.000 C 
BRANCH   8  10
ATOM      9  C   UNL     1       6.177   3.945  13.713  0.00  0.00    +0.000 C 
ATOM     10  O   UNL     1       6.222   3.677  15.108  0.00  0.00    +0.000 OA
ENDBRANCH   8  10
ENDBRANCH   2   8
ENDBRANCH   1   6
BRANCH   1  11
ATOM     11  C   UNL     1       3.086   4.872  18.782  0.00  0.00    +0.000 C 
BRANCH  11  12
ATOM     12  C   UNL     1       2.716   5.771  19.962  0.00  0.00    +0.000 C 
BRANCH  12  13
ATOM     13  C   UNL     1       2.251   7.131  19.493  0.00  0.00    +0.000 A 
ATOM     14  C   UNL     1       2.510   7.550  18.184  0.00  0.00    +0.000 A 
ATOM     15  C   UNL     1       2.072   8.800  17.748  0.00  0.00    +0.000 A 
ATOM     16  C   UNL     1       1.371   9.635  18.616  0.00  0.00    +0.000 A 
ATOM     17  C   UNL     1       1.091   9.228  19.923  0.00  0.00    +0.000 A 
ATOM     18  C   UNL     1       1.524   7.972  20.353  0.00  0.00    +0.000 A 
BRANCH  17  19
ATOM     19  O   UNL     1       0.397  10.142  20.668  0.00  0.00    +0.000 OA
ATOM     20  C   UNL     1       0.992  11.422  20.834  0.00  0.00    +0.000 C 
ENDBRANCH  17  19
ENDBRANCH  12  13
ENDBRANCH  11  12
ENDBRANCH   1  11
TORSDOF 7
ENDMDL
MODEL 2
REMARK VINA RESULT:      -6.3      3.185      7.593
REMARK  Name = 
REMARK  9 active torsions:
REMARK  status: ('A' for Active; 'I' for Inactive)
REMARK    1  A    between atoms: C_1  and  O_2
REMARK    2  A    between atoms: O_2  and  C_3
REMARK    3  A    between atoms: C_3  and  C_4
REMARK    4  A    between atoms: N_8  and  C_9
REMARK    5  A    between atoms: C_9  and  C_10
REMARK    6  A    between atoms: C_10  and  C_11
REMARK    7  A    between atoms: C_11  and  C_12
REMARK    8  A    between atoms: C_16  and  O_17
REMARK    9  A    between atoms: O_17  and  C_18
REMARK                            x       y       z     vdW  Elec       q    Type
REMARK                         _______ _______ _______ _____ _____    ______ ____
ROOT
ATOM      1  C   UNL     1       5.831   4.820  18.314  0.00  0.00    +0.000 C 
ENDROOT
BRANCH   1   6
ATOM      2  C   UNL     1       2.090   4.989  18.966  0.00  0.00    +0.000 C 
ATOM      3  C   UNL     1       1.624   3.850  18.051  0.00  0.00    +0.000 C 
ATOM      4  C   UNL     1       2.661   2.736  17.959  0.00  0.00    +0.000 C 
ATOM      5  C   UNL     1       4.055   3.275  17.633  0.00  0.00    +0.000 C 
ATOM      6  N   UNL     1       4.468   4.323  18.580  0.00  0.00    +0.000 NA
ATOM      7  C   UNL     1       3.505   5.441  18.559  0.00  0.00    +0.000 C 
BRANCH   2   8
ATOM      8  C   UNL     1       2.022   4.595  20.449  0.00  0.00    +0.000 C 
BRANCH   8  10
ATOM      9  C   UNL     1       1.328   2.591  21.476  0.00  0.00    +0.000 C 
ATOM     10  O   UNL     1       0.945   3.674  20.641  0.00  0.00    +0.000 OA
ENDBRANCH   8  10
ENDBRANCH   2   8
ENDBRANCH   1   6
BRANCH   1  11
ATOM     11  C   UNL     1       6.350   4.405  16.931  0.00  0.00    +0.000 C 
BRANCH  11  12
ATOM     12  C   UNL     1       5.876   5.359  15.834  0.00  0.00    +0.000 C 
BRANCH  12  13
ATOM     13  C   UNL     1       6.278   4.864  14.464  0.00  0.00    +0.000 A 
ATOM     14  C   UNL     1       7.478   5.290  13.885  0.00  0.00    +0.000 A 
ATOM     15  C   UNL     1       7.854   4.825  12.625  0.00  0.00    +0.000 A 
ATOM     16  C   UNL     1       7.035   3.930  11.940  0.00  0.00    +0.000 A 
ATOM     17  C   UNL     1       5.838   3.483  12.507  0.00  0.00    +0.000 A 
ATOM     18  C   UNL     1       5.470   3.944  13.773  0.00  0.00    +0.000 A 
BRANCH  17  19
ATOM     19  O   UNL     1       5.131   2.608  11.729  0.00  0.00    +0.000 OA
ATOM     20  C   UNL     1       3.929   3.093  11.144  0.00  0.00    +0.000 C 
ENDBRANCH  17  19
ENDBRANCH  12  13
ENDBRANCH  11  12
ENDBRANCH   1  11
TORSDOF 7
ENDMDL
MODEL 3
REMARK VINA RESULT:      -6.2      1.521      2.285
REMARK  Name = 
REMARK  9 active torsions:
REMARK  status: ('A' for Active; 'I' for Inactive)
REMARK    1  A    between atoms: C_1  and  O_2
REMARK    2  A    between atoms: O_2  and  C_3
REMARK    3  A    between atoms: C_3  and  C_4
REMARK    4  A    between atoms: N_8  and  C_9
REMARK    5  A    between atoms: C_9  and  C_10
REMARK    6  A    between atoms: C_10  and  C_11
REMARK    7  A    between atoms: C_11  and  C_12
REMARK    8  A    between atoms: C_16  and  O_17
REMARK    9  A    between atoms: O_17  and  C_18
REMARK                            x       y       z     vdW  Elec       q    Type
REMARK                         _______ _______ _______ _____ _____    ______ ____
ROOT
ATOM      1  C   UNL     1       4.226   3.361  18.377  0.00  0.00    +0.000 C 
ENDROOT
BRANCH   1   6
ATOM      2  C   UNL     1       6.295   5.784  16.304  0.00  0.00    +0.000 C 
ATOM      3  C   UNL     1       6.865   6.655  17.431  0.00  0.00    +0.000 C 
ATOM      4  C   UNL     1       7.088   5.854  18.709  0.00  0.00    +0.000 C 
ATOM      5  C   UNL     1       5.850   5.046  19.103  0.00  0.00    +0.000 C 
ATOM      6  N   UNL     1       5.388   4.188  18.001  0.00  0.00    +0.000 NA
ATOM      7  C   UNL     1       5.068   5.006  16.814  0.00  0.00    +0.000 C 
BRANCH   2   8
ATOM      8  C   UNL     1       7.359   4.846  15.714  0.00  0.00    +0.000 C 
BRANCH   8  10
ATOM      9  C   UNL     1       6.917   4.719  13.402  0.00  0.00    +0.000 C 
ATOM     10  O   UNL     1       7.724   5.310  14.412  0.00  0.00    +0.000 OA
ENDBRANCH   8  10
ENDBRANCH   2   8
ENDBRANCH   1   6
BRANCH   1  11
ATOM     11  C   UNL     1       3.118   3.385  17.315  0.00  0.00    +0.000 C 
BRANCH  11  12
ATOM     12  C   UNL     1       1.760   3.748  17.916  0.00  0.00    +0.000 C 
BRANCH  12  13
ATOM     13  C   UNL     1       1.840   5.021  18.727  0.00  0.00    +0.000 A 
ATOM     14  C   UNL     1       1.565   5.001  20.098  0.00  0.00    +0.000 A 
ATOM     15  C   UNL     1       1.649   6.173  20.848  0.00  0.00    +0.000 A 
ATOM     16  C   UNL     1       2.011   7.370  20.233  0.00  0.00    +0.000 A 
ATOM     17  C   UNL     1       2.301   7.408  18.867  0.00  0.00    +0.000 A 
ATOM     18  C   UNL     1       2.225   6.230  18.120  0.00  0.00    +0.000 A 
BRANCH  17  19
ATOM     19  O   UNL     1       2.642   8.644  18.391  0.00  0.00    +0.000 OA
ATOM     20  C   UNL     1       1.605   9.413  17.796  0.00  0.00    +0.000 C 
ENDBRANCH  17  19
ENDBRANCH  12  13
ENDBRANCH  11  12
ENDBRANCH   1  11
TORSDOF 7
ENDMDL
MODEL 4
REMARK VINA RESULT:      -6.1      1.173      1.361
REMARK  Name = 
REMARK  9 active torsions:
REMARK  status: ('A' for Active; 'I' for Inactive)
REMARK    1  A    between atoms: C_1  and  O_2
REMARK    2  A    between atoms: O_2  and  C_3
REMARK    3  A    between atoms: C_3  and  C_4
REMARK    4  A    between atoms: N_8  and  C_9
REMARK    5  A    between atoms: C_9  and  C_10
REMARK    6  A    between atoms: C_10  and  C_11
REMARK    7  A    between atoms: C_11  and  C_12
REMARK    8  A    between atoms: C_16  and  O_17
REMARK    9  A    between atoms: O_17  and  C_18
REMARK                            x       y       z     vdW  Elec       q    Type
REMARK                         _______ _______ _______ _____ _____    ______ ____
ROOT
ATOM      1  C   UNL     1       4.587   3.396  19.115  0.00  0.00    +0.000 C 
ENDROOT
BRANCH   1   6
ATOM      2  C   UNL     1       5.975   5.495  16.266  0.00  0.00    +0.000 C 
ATOM      3  C   UNL     1       6.673   6.592  17.080  0.00  0.00    +0.000 C 
ATOM      4  C   UNL     1       7.217   6.058  18.400  0.00  0.00    +0.000 C 
ATOM      5  C   UNL     1       6.161   5.272  19.180  0.00  0.00    +0.000 C 
ATOM      6  N   UNL     1       5.570   4.199  18.366  0.00  0.00    +0.000 NA
ATOM      7  C   UNL     1       4.949   4.761  17.150  0.00  0.00    +0.000 C 
BRANCH   2   8
ATOM      8  C   UNL     1       6.982   4.522  15.635  0.00  0.00    +0.000 C 
BRANCH   8  10
ATOM      9  C   UNL     1       7.411   4.984  13.364  0.00  0.00    +0.000 C 
ATOM     10  O   UNL     1       7.804   5.234  14.707  0.00  0.00    +0.000 OA
ENDBRANCH   8  10
ENDBRANCH   2   8
ENDBRANCH   1   6
BRANCH   1  11
ATOM     11  C   UNL     1       3.169   3.514  18.539  0.00  0.00    +0.000 C 
BRANCH  11  12
ATOM     12  C   UNL     1       2.178   4.055  19.569  0.00  0.00    +0.000 C 
BRANCH  12  13
ATOM     13  C   UNL     1       2.099   5.563  19.517  0.00  0.00    +0.000 A 
ATOM     14  C   UNL     1       2.368   6.241  18.323  0.00  0.00    +0.000 A 
ATOM     15  C   UNL     1       2.285   7.632  18.272  0.00  0.00    +0.000 A 
ATOM     16  C   UNL     1       1.928   8.351  19.410  0.00  0.00    +0.000 A 
ATOM     17  C   UNL     1       1.642   7.691  20.609  0.00  0.00    +0.000 A 
ATOM     18  C   UNL     1       1.718   6.298  20.654  0.00  0.00    +0.000 A 
BRANCH  17  19
ATOM     19  O   UNL     1       1.306   8.516  21.647  0.00  0.00    +0.000 OA
ATOM     20  C   UNL     1       0.768   9.788  21.311  0.00  0.00    +0.000 C 
ENDBRANCH  17  19
ENDBRANCH  12  13
ENDBRANCH  11  12
ENDBRANCH   1  11
TORSDOF 7
ENDMDL
MODEL 5
REMARK VINA RESULT:      -6.0      3.101      4.763
REMARK  Name = 
REMARK  9 active torsions:
REMARK  status: ('A' for Active; 'I' for Inactive)
REMARK    1  A    between atoms: C_1  and  O_2
REMARK    2  A    between atoms: O_2  and  C_3
REMARK    3  A    between atoms: C_3  and  C_4
REMARK    4  A    between atoms: N_8  and  C_9
REMARK    5  A    between atoms: C_9  and  C_10
REMARK    6  A    between atoms: C_10  and  C_11
REMARK    7  A    between atoms: C_11  and  C_12
REMARK    8  A    between atoms: C_16  and  O_17
REMARK    9  A    between atoms: O_17  and  C_18
REMARK                            x       y       z     vdW  Elec       q    Type
REMARK                         _______ _______ _______ _____ _____    ______ ____
ROOT
ATOM      1  C   UNL     1       3.635   6.907  17.833  0.00  0.00    +0.000 C 
ENDROOT
BRANCH   1   6
ATOM      2  C   UNL     1       6.288   5.359  15.593  0.00  0.00    +0.000 C 
ATOM      3  C   UNL     1       7.377   5.093  16.641  0.00  0.00    +0.000 C 
ATOM      4  C   UNL     1       6.783   4.765  18.006  0.00  0.00    +0.000 C 
ATOM      5  C   UNL     1       5.733   5.792  18.436  0.00  0.00    +0.000 C 
ATOM      6  N   UNL     1       4.686   5.959  17.416  0.00  0.00    +0.000 NA
ATOM      7  C   UNL     1       5.282   6.391  16.136  0.00  0.00    +0.000 C 
BRANCH   2   8
ATOM      8  C   UNL     1       5.593   4.063  15.150  0.00  0.00    +0.000 C 
BRANCH   8  10
ATOM      9  C   UNL     1       6.140   3.446  12.943  0.00  0.00    +0.000 C 
ATOM     10  O   UNL     1       5.239   4.169  13.770  0.00  0.00    +0.000 OA
ENDBRANCH   8  10
ENDBRANCH   2   8
ENDBRANCH   1   6
BRANCH   1  11
ATOM     11  C   UNL     1       2.263   6.236  17.981  0.00  0.00    +0.000 C 
BRANCH  11  12
ATOM     12  C   UNL     1       2.338   4.727  17.749  0.00  0.00    +0.000 C 
BRANCH  12  13
ATOM     13  C   UNL     1       2.271   3.967  19.054  0.00  0.00    +0.000 A 
ATOM     14  C   UNL     1       1.066   3.883  19.760  0.00  0.00    +0.000 A 
ATOM     15  C   UNL     1       1.001   3.173  20.957  0.00  0.00    +0.000 A 
ATOM     16  C   UNL     1       2.139   2.539  21.454  0.00  0.00    +0.000 A 
ATOM     17  C   UNL     1       3.349   2.600  20.757  0.00  0.00    +0.000 A 
ATOM     18  C   UNL     1       3.407   3.305  19.553  0.00  0.00    +0.000 A 
BRANCH  17  19
ATOM     19  O   UNL     1       4.385   1.936  21.354  0.00  0.00    +0.000 OA
ATOM     20  C   UNL     1       5.159   1.075  20.529  0.00  0.00    +0.000 C 
ENDBRANCH  17  19
ENDBRANCH  12  13
ENDBRANCH  11  12
ENDBRANCH   1  11
TORSDOF 7
ENDMDL
MODEL 6
REMARK VINA RESULT:      -5.9      1.678      2.584
REMARK  Name = 
REMARK  9 active torsions:
REMARK  status: ('A' for Active; 'I' for Inactive)
REMARK    1  A    between atoms: C_1  and  O_2
REMARK    2  A    between atoms: O_2  and  C_3
REMARK    3  A    between atoms: C_3  and  C_4
REMARK    4  A    between atoms: N_8  and  C_9
REMARK    5  A    between atoms: C_9  and  C_10
REMARK    6  A    between atoms: C_10  and  C_11
REMARK    7  A    between atoms: C_11  and  C_12
REMARK    8  A    between atoms: C_16  and  O_17
REMARK    9  A    between atoms: O_17  and  C_18
REMARK                            x       y       z     vdW  Elec       q    Type
REMARK                         _______ _______ _______ _____ _____    ______ ____
ROOT
ATOM      1  C   UNL     1       3.959   5.587  19.566  0.00  0.00    +0.000 C 
ENDROOT
BRANCH   1   6
ATOM      2  C   UNL     1       6.041   4.256  16.678  0.00  0.00    +0.000 C 
ATOM      3  C   UNL     1       5.504   5.146  15.550  0.00  0.00    +0.000 C 
ATOM      4  C   UNL     1       5.110   6.528  16.058  0.00  0.00    +0.000 C 
ATOM      5  C   UNL     1       4.200   6.451  17.286  0.00  0.00    +0.000 C 
ATOM      6  N   UNL     1       4.796   5.633  18.353  0.00  0.00    +0.000 NA
ATOM      7  C   UNL     1       5.059   4.264  17.864  0.00  0.00    +0.000 C 
BRANCH   2   8
ATOM      8  C   UNL     1       7.456   4.671  17.108  0.00  0.00    +0.000 C 
BRANCH   8  10
ATOM      9  C   UNL     1       8.113   5.649  19.149  0.00  0.00    +0.000 C 
ATOM     10  O   UNL     1       7.590   4.487  18.520  0.00  0.00    +0.000 OA
ENDBRANCH   8  10
ENDBRANCH   2   8
ENDBRANCH   1   6
BRANCH   1  11
ATOM     11  C   UNL     1       2.501   5.980  19.290  0.00  0.00    +0.000 C 
BRANCH  11  12
ATOM     12  C   UNL     1       1.758   6.351  20.574  0.00  0.00    +0.000 C 
BRANCH  12  13
ATOM     13  C   UNL     1       1.412   7.822  20.603  0.00  0.00    +0.000 A 
ATOM     14  C   UNL     1       1.466   8.582  19.429  0.00  0.00    +0.000 A 
ATOM     15  C   UNL     1       1.137   9.936  19.454  0.00  0.00    +0.000 A 
ATOM     16  C   UNL     1       0.749  10.538  20.650  0.00  0.00    +0.000 A 
ATOM     17  C   UNL     1       0.677   9.793  21.830  0.00  0.00    +0.000 A 
ATOM     18  C   UNL     1       0.998   8.434  21.799  0.00  0.00    +0.000 A 
BRANCH  17  19
ATOM     19  O   UNL     1       0.283  10.505  22.930  0.00  0.00    +0.000 OA
ATOM     20  C   UNL     1      -1.106  10.783  23.053  0.00  0.00    +0.000 C 
ENDBRANCH  17  19
ENDBRANCH  12  13
ENDBRANCH  11  12
ENDBRANCH   1  11
TORSDOF 7
ENDMDL
MODEL 7
REMARK VINA RESULT:      -5.9      2.926      6.245
REMARK  Name = 
REMARK  9 active torsions:
REMARK  status: ('A' for Active; 'I' for Inactive)
REMARK    1  A    between atoms: C_1  and  O_2
REMARK    2  A    between atoms: O_2  and  C_3
REMARK    3  A    between atoms: C_3  and  C_4
REMARK    4  A    between atoms: N_8  and  C_9
REMARK    5  A    between atoms: C_9  and  C_10
REMARK    6  A    between atoms: C_10  and  C_11
REMARK    7  A    between atoms: C_11  and  C_12
REMARK    8  A    between atoms: C_16  and  O_17
REMARK    9  A    between atoms: O_17  and  C_18
REMARK                            x       y       z     vdW  Elec       q    Type
REMARK                         _______ _______ _______ _____ _____    ______ ____
ROOT
ATOM      1  C   UNL     1       2.857   6.391  19.265  0.00  0.00    +0.000 C 
ENDROOT
BRANCH   1   6
ATOM      2  C   UNL     1       1.114   3.309  20.648  0.00  0.00    +0.000 C 
ATOM      3  C   UNL     1       0.563   2.725  19.341  0.00  0.00    +0.000 C 
ATOM      4  C   UNL     1       1.481   3.014  18.159  0.00  0.00    +0.000 C 
ATOM      5  C   UNL     1       1.861   4.495  18.076  0.00  0.00    +0.000 C 
ATOM      6  N   UNL     1       2.436   4.980  19.340  0.00  0.00    +0.000 NA
ATOM      7  C   UNL     1       1.476   4.792  20.446  0.00  0.00    +0.000 C 
BRANCH   2   8
ATOM      8  C   UNL     1       2.307   2.499  21.178  0.00  0.00    +0.000 C 
BRANCH   8  10
ATOM      9  C   UNL     1       4.417   2.162  20.185  0.00  0.00    +0.000 C 
ATOM     10  O   UNL     1       3.522   3.113  20.744  0.00  0.00    +0.000 OA
ENDBRANCH   8  10
ENDBRANCH   2   8
ENDBRANCH   1   6
BRANCH   1  11
ATOM     11  C   UNL     1       2.695   6.980  17.857  0.00  0.00    +0.000 C 
BRANCH  11  12
ATOM     12  C   UNL     1       4.010   7.545  17.321  0.00  0.00    +0.000 C 
BRANCH  12  13
ATOM     13  C   UNL     1       5.011   6.445  17.047  0.00  0.00    +0.000 A 
ATOM     14  C   UNL     1       4.944   5.714  15.856  0.00  0.00    +0.000 A 
ATOM     15  C   UNL     1       5.873   4.707  15.599  0.00  0.00    +0.000 A 
ATOM     16  C   UNL     1       6.874   4.428  16.527  0.00  0.00    +0.000 A 
ATOM     17  C   UNL     1       6.965   5.156  17.716  0.00  0.00    +0.000 A 
ATOM     18  C   UNL     1       6.038   6.171  17.966  0.00  0.00    +0.000 A 
BRANCH  17  19
ATOM     19  O   UNL     1       7.993   4.781  18.537  0.00  0.00    +0.000 OA
ATOM     20  C   UNL     1       8.151   5.513  19.746  0.00  0.00    +0.000 C 
ENDBRANCH  17  19
ENDBRANCH  12  13
ENDBRANCH  11  12
ENDBRANCH   1  11
TORSDOF 7
ENDMDL
MODEL 8
REMARK VINA RESULT:      -5.9      2.646      5.918
REMARK  Name = 
REMARK  9 active torsions:
REMARK  status: ('A' for Active; 'I' for Inactive)
REMARK    1  A    between atoms: C_1  and  O_2
REMARK    2  A    between atoms: O_2  and  C_3
REMARK    3  A    between atoms: C_3  and  C_4
REMARK    4  A    between atoms: N_8  and  C_9
REMARK    5  A    between atoms: C_9  and  C_10
REMARK    6  A    between atoms: C_10  and  C_11
REMARK    7  A    between atoms: C_11  and  C_12
REMARK    8  A    between atoms: C_16  and  O_17
REMARK    9  A    between atoms: O_17  and  C_18
REMARK                            x       y       z     vdW  Elec       q    Type
REMARK                         _______ _______ _______ _____ _____    ______ ____
ROOT
ATOM      1  C   UNL     1       3.640   3.175  17.000  0.00  0.00    +0.000 C 
ENDROOT
BRANCH   1   6
ATOM      2  C   UNL     1       1.578   3.976  20.091  0.00  0.00    +0.000 C 
ATOM      3  C   UNL     1       2.073   2.860  21.019  0.00  0.00    +0.000 C 
ATOM      4  C   UNL     1       3.531   2.503  20.749  0.00  0.00    +0.000 C 
ATOM      5  C   UNL     1       3.793   2.248  19.263  0.00  0.00    +0.000 C 
ATOM      6  N   UNL     1       3.350   3.378  18.431  0.00  0.00    +0.000 NA
ATOM      7  C   UNL     1       1.907   3.624  18.628  0.00  0.00    +0.000 C 
BRANCH   2   8
ATOM      8  C   UNL     1       2.147   5.345  20.489  0.00  0.00    +0.000 C 
BRANCH   8  10
ATOM      9  C   UNL     1       2.740   7.206  19.169  0.00  0.00    +0.000 C 
ATOM     10  O   UNL     1       1.690   6.331  19.560  0.00  0.00    +0.000 OA
ENDBRANCH   8  10
ENDBRANCH   2   8
ENDBRANCH   1   6
BRANCH   1  11
ATOM     11  C   UNL     1       4.923   3.889  16.553  0.00  0.00    +0.000 C 
BRANCH  11  12
ATOM     12  C   UNL     1       4.794   5.409  16.651  0.00  0.00    +0.000 C 
BRANCH  12  13
ATOM     13  C   UNL     1       5.978   6.017  17.367  0.00  0.00    +0.000 A 
ATOM     14  C   UNL     1       6.745   5.241  18.243  0.00  0.00    +0.000 A 
ATOM     15  C   UNL     1       7.844   5.798  18.896  0.00  0.00    +0.000 A 
ATOM     16  C   UNL     1       8.184   7.131  18.673  0.00  0.00    +0.000 A 
ATOM     17  C   UNL     1       7.438   7.918  17.792  0.00  0.00    +0.000 A 
ATOM     18  C   UNL     1       6.344   7.354  17.133  0.00  0.00    +0.000 A 
BRANCH  17  19
ATOM     19  O   UNL     1       7.880   9.207  17.666  0.00  0.00    +0.000 OA
ATOM     20  C   UNL     1       8.871   9.641  18.588  0.00  0.00    +0.000 C 
ENDBRANCH  17  19
ENDBRANCH  12  13
ENDBRANCH  11  12
ENDBRANCH   1  11
TORSDOF 7
ENDMDL
MODEL 9
REMARK VINA RESULT:      -5.9      1.738      2.728
REMARK  Name = 
REMARK  9 active torsions:
REMARK  status: ('A' for Active; 'I' for Inactive)
REMARK    1  A    between atoms: C_1  and  O_2
REMARK    2  A    between atoms: O_2  and  C_3
REMARK    3  A    between atoms: C_3  and  C_4
REMARK    4  A    between atoms: N_8  and  C_9
REMARK    5  A    between atoms: C_9  and  C_10
REMARK    6  A    between atoms: C_10  and  C_11
REMARK    7  A    between atoms: C_11  and  C_12
REMARK    8  A    between atoms: C_16  and  O_17
REMARK    9  A    between atoms: O_17  and  C_18
REMARK                            x       y       z     vdW  Elec       q    Type
REMARK                         _______ _______ _______ _____ _____    ______ ____
ROOT
ATOM      1  C   UNL     1       4.277   3.352  18.155  0.00  0.00    +0.000 C 
ENDROOT
BRANCH   1   6
ATOM      2  C   UNL     1       7.319   5.419  17.195  0.00  0.00    +0.000 C 
ATOM      3  C   UNL     1       7.220   5.316  15.668  0.00  0.00    +0.000 C 
ATOM      4  C   UNL     1       5.772   5.232  15.197  0.00  0.00    +0.000 C 
ATOM      5  C   UNL     1       4.985   4.158  15.953  0.00  0.00    +0.000 C 
ATOM      6  N   UNL     1       5.071   4.345  17.409  0.00  0.00    +0.000 NA
ATOM      7  C   UNL     1       6.480   4.306  17.849  0.00  0.00    +0.000 C 
BRANCH   2   8
ATOM      8  C   UNL     1       6.911   6.811  17.701  0.00  0.00    +0.000 C 
BRANCH   8  10
ATOM      9  C   UNL     1       8.122   8.827  17.858  0.00  0.00    +0.000 C 
ATOM     10  O   UNL     1       7.653   7.805  16.989  0.00  0.00    +0.000 OA
ENDBRANCH   8  10
ENDBRANCH   2   8
ENDBRANCH   1   6
BRANCH   1  11
ATOM     11  C   UNL     1       2.766   3.538  17.959  0.00  0.00    +0.000 C 
BRANCH  11  12
ATOM     12  C   UNL     1       2.085   4.052  19.227  0.00  0.00    +0.000 C 
BRANCH  12  13
ATOM     13  C   UNL     1       2.053   5.562  19.260  0.00  0.00    +0.000 A 
ATOM     14  C   UNL     1       2.304   6.298  18.097  0.00  0.00    +0.000 A 
ATOM     15  C   UNL     1       2.265   7.691  18.125  0.00  0.00    +0.000 A 
ATOM     16  C   UNL     1       1.969   8.356  19.313  0.00  0.00    +0.000 A 
ATOM     17  C   UNL     1       1.703   7.639  20.483  0.00  0.00    +0.000 A 
ATOM     18  C   UNL     1       1.735   6.243  20.449  0.00  0.00    +0.000 A 
BRANCH  17  19
ATOM     19  O   UNL     1       1.429   8.414  21.576  0.00  0.00    +0.000 OA
ATOM     20  C   UNL     1       0.319   9.297  21.478  0.00  0.00    +0.000 C 
ENDBRANCH  17  19
ENDBRANCH  12  13
ENDBRANCH  11  12
ENDBRANCH   1  11
TORSDOF 7
ENDMDL
