MODEL 1
REMARK VINA RESULT:      -8.7      0.000      0.000
REMARK  Name = 
REMARK  3 active torsions:
REMARK  status: ('A' for Active; 'I' for Inactive)
REMARK    1  A    between atoms: C_1  and  N_2
REMARK    2  A    between atoms: C_3  and  C_5
REMARK    3  A    between atoms: C_9  and  C_10
REMARK                            x       y       z     vdW  Elec       q    Type
REMARK                         _______ _______ _______ _____ _____    ______ ____
ROOT
ATOM      1  C   UNL     1       5.221   4.647  17.010  0.00  0.00    +0.000 A 
ATOM      2  C   UNL     1       5.273   3.612  17.937  0.00  0.00    +0.000 A 
ATOM      3  N   UNL     1       4.495   3.532  19.063  0.00  0.00    +0.000 NA
ATOM      4  C   UNL     1       3.603   4.525  19.317  0.00  0.00    +0.000 A 
ATOM      5  C   UNL     1       3.503   5.619  18.455  0.00  0.00    +0.000 A 
ATOM      6  C   UNL     1       4.329   5.668  17.322  0.00  0.00    +0.000 A 
ATOM      7  C   UNL     1       2.455   6.666  18.578  0.00  0.00    +0.000 C 
ATOM      8  C   UNL     1       1.960   6.849  19.985  0.00  0.00    +0.000 C 
ATOM      9  C   UNL     1       1.884   5.573  20.804  0.00  0.00    +0.000 C 
ATOM     10  N   UNL     1       2.735   4.445  20.447  0.00  0.00    +0.000 N 
ATOM     11  C   UNL     1       2.581   3.345  21.292  0.00  0.00    +0.000 C 
ATOM     12  N   UNL     1       3.271   2.218  20.971  0.00  0.00    +0.000 N 
ATOM     13  O   UNL     1       1.840   3.347  22.274  0.00  0.00    +0.000 OA
ATOM     14  H   UNL     1       4.264   2.425  20.958  0.00  0.00    +0.000 HD
ATOM     15  H   UNL     1       3.119   1.983  19.996  0.00  0.00    +0.000 HD
ENDROOT
BRANCH   1  20
ATOM     16  C   UNL     1       6.149   3.964  13.405  0.00  0.00    +0.000 A 
ATOM     17  C   UNL     1       7.288   4.742  13.310  0.00  0.00    +0.000 A 
ATOM     18  N   UNL     1       7.761   5.507  14.328  0.00  0.00    +0.000 NA
ATOM     19  C   UNL     1       7.088   5.453  15.508  0.00  0.00    +0.000 A 
ATOM     20  C   UNL     1       5.946   4.687  15.730  0.00  0.00    +0.000 A 
ATOM     21  C   UNL     1       5.475   3.941  14.628  0.00  0.00    +0.000 A 
BRANCH  16  24
ATOM     22  C   UNL     1       6.336   1.298  10.727  0.00  0.00    +0.000 C 
ATOM     23  N   UNL     1       6.618   2.117  11.882  0.00  0.00    +0.000 N 
ATOM     24  C   UNL     1       5.747   3.119  12.259  0.00  0.00    +0.000 C 
ATOM     25  O   UNL     1       4.679   3.332  11.696  0.00  0.00    +0.000 OA
ATOM     26  H   UNL     1       7.392   1.859  12.479  0.00  0.00    +0.000 HD
ENDBRANCH  16  24
ENDBRANCH   1  20
TORSDOF 2
ENDMDL
MODEL 2
REMARK VINA RESULT:      -8.3      4.271      6.141
REMARK  Name = 
REMARK  3 active torsions:
REMARK  status: ('A' for Active; 'I' for Inactive)
REMARK    1  A    between atoms: C_1  and  N_2
REMARK    2  A    between atoms: C_3  and  C_5
REMARK    3  A    between atoms: C_9  and  C_10
REMARK                            x       y       z     vdW  Elec       q    Type
REMARK                         _______ _______ _______ _____ _____    ______ ____
ROOT
ATOM      1  C   UNL     1       2.220   7.652  19.077  0.00  0.00    +0.000 A 
ATOM      2  C   UNL     1       1.778   8.636  18.199  0.00  0.00    +0.000 A 
ATOM      3  N   UNL     1       1.021   9.721  18.561  0.00  0.00    +0.000 NA
ATOM      4  C   UNL     1       0.661   9.866  19.862  0.00  0.00    +0.000 A 
ATOM      5  C   UNL     1       1.036   8.910  20.807  0.00  0.00    +0.000 A 
ATOM      6  C   UNL     1       1.797   7.807  20.393  0.00  0.00    +0.000 A 
ATOM      7  C   UNL     1       0.813   9.069  22.269  0.00  0.00    +0.000 C 
ATOM      8  C   UNL     1      -0.369   9.939  22.598  0.00  0.00    +0.000 C 
ATOM      9  C   UNL     1      -0.589  11.100  21.645  0.00  0.00    +0.000 C 
ATOM     10  N   UNL     1      -0.075  11.014  20.285  0.00  0.00    +0.000 N 
ATOM     11  C   UNL     1      -0.364  12.138  19.510  0.00  0.00    +0.000 C 
ATOM     12  N   UNL     1       0.161  12.178  18.256  0.00  0.00    +0.000 N 
ATOM     13  O   UNL     1      -1.034  13.085  19.920  0.00  0.00    +0.000 OA
ATOM     14  H   UNL     1      -0.173  11.379  17.728  0.00  0.00    +0.000 HD
ATOM     15  H   UNL     1       1.155  11.973  18.289  0.00  0.00    +0.000 HD
ENDROOT
BRANCH   1  20
ATOM     16  C   UNL     1       4.691   5.525  17.154  0.00  0.00    +0.000 A 
ATOM     17  C   UNL     1       4.883   4.509  18.073  0.00  0.00    +0.000 A 
ATOM     18  N   UNL     1       4.293   4.483  19.296  0.00  0.00    +0.000 NA
ATOM     19  C   UNL     1       3.435   5.495  19.592  0.00  0.00    +0.000 A 
ATOM     20  C   UNL     1       3.142   6.556  18.738  0.00  0.00    +0.000 A 
ATOM     21  C   UNL     1       3.812   6.556  17.495  0.00  0.00    +0.000 A 
BRANCH  16  24
ATOM     22  C   UNL     1       6.308   3.998  14.094  0.00  0.00    +0.000 C 
ATOM     23  N   UNL     1       5.613   4.169  15.348  0.00  0.00    +0.000 N 
ATOM     24  C   UNL     1       5.333   5.434  15.824  0.00  0.00    +0.000 C 
ATOM     25  O   UNL     1       5.588   6.461  15.206  0.00  0.00    +0.000 OA
ATOM     26  H   UNL     1       5.226   3.353  15.800  0.00  0.00    +0.000 HD
ENDBRANCH  16  24
ENDBRANCH   1  20
TORSDOF 2
ENDMDL
MODEL 3
REMARK VINA RESULT:      -8.3      3.923      5.812
REMARK  Name = 
REMARK  3 active torsions:
REMARK  status: ('A' for Active; 'I' for Inactive)
REMARK    1  A    between atoms: C_1  and  N_2
REMARK    2  A    between atoms: C_3  and  C_5
REMARK    3  A    between atoms: C_9  and  C_10
REMARK                            x       y       z     vdW  Elec       q    Type
REMARK                         _______ _______ _______ _____ _____    ______ ____
ROOT
ATOM      1  C   UNL     1       2.146   7.399  19.496  0.00  0.00    +0.000 A 
ATOM      2  C   UNL     1       1.784   7.359  20.839  0.00  0.00    +0.000 A 
ATOM      3  N   UNL     1       1.140   8.371  21.503  0.00  0.00    +0.000 NA
ATOM      4  C   UNL     1       0.825   9.506  20.827  0.00  0.00    +0.000 A 
ATOM      5  C   UNL     1       1.176   9.644  19.483  0.00  0.00    +0.000 A 
ATOM      6  C   UNL     1       1.848   8.591  18.844  0.00  0.00    +0.000 A 
ATOM      7  C   UNL     1       0.738  10.784  18.634  0.00  0.00    +0.000 C 
ATOM      8  C   UNL     1       0.484  12.043  19.415  0.00  0.00    +0.000 C 
ATOM      9  C   UNL     1      -0.109  11.827  20.795  0.00  0.00    +0.000 C 
ATOM     10  N   UNL     1       0.101  10.553  21.471  0.00  0.00    +0.000 N 
ATOM     11  C   UNL     1      -0.479  10.496  22.739  0.00  0.00    +0.000 C 
ATOM     12  N   UNL     1      -0.409   9.308  23.398  0.00  0.00    +0.000 N 
ATOM     13  O   UNL     1      -1.063  11.447  23.257  0.00  0.00    +0.000 OA
ATOM     14  H   UNL     1       0.564   9.051  23.522  0.00  0.00    +0.000 HD
ATOM     15  H   UNL     1      -0.722   8.556  22.793  0.00  0.00    +0.000 HD
ENDROOT
BRANCH   1  20
ATOM     16  C   UNL     1       4.272   5.469  17.030  0.00  0.00    +0.000 A 
ATOM     17  C   UNL     1       3.802   4.191  17.273  0.00  0.00    +0.000 A 
ATOM     18  N   UNL     1       2.864   3.903  18.212  0.00  0.00    +0.000 NA
ATOM     19  C   UNL     1       2.339   4.948  18.905  0.00  0.00    +0.000 A 
ATOM     20  C   UNL     1       2.714   6.278  18.730  0.00  0.00    +0.000 A 
ATOM     21  C   UNL     1       3.720   6.518  17.768  0.00  0.00    +0.000 A 
BRANCH  16  24
ATOM     22  C   UNL     1       7.060   4.764  14.572  0.00  0.00    +0.000 C 
ATOM     23  N   UNL     1       6.028   4.612  15.570  0.00  0.00    +0.000 N 
ATOM     24  C   UNL     1       5.252   5.690  15.944  0.00  0.00    +0.000 C 
ATOM     25  O   UNL     1       5.340   6.798  15.427  0.00  0.00    +0.000 OA
ATOM     26  H   UNL     1       5.800   3.681  15.889  0.00  0.00    +0.000 HD
ENDBRANCH  16  24
ENDBRANCH   1  20
TORSDOF 2
ENDMDL
MODEL 4
REMARK VINA RESULT:      -8.3      3.662      5.042
REMARK  Name = 
REMARK  3 active torsions:
REMARK  status: ('A' for Active; 'I' for Inactive)
REMARK    1  A    between atoms: C_1  and  N_2
REMARK    2  A    between atoms: C_3  and  C_5
REMARK    3  A    between atoms: C_9  and  C_10
REMARK                            x       y       z     vdW  Elec       q    Type
REMARK                         _______ _______ _______ _____ _____    ______ ____
ROOT
ATOM      1  C   UNL     1       3.448   7.029  18.305  0.00  0.00    +0.000 A 
ATOM      2  C   UNL     1       3.169   8.191  17.594  0.00  0.00    +0.000 A 
ATOM      3  N   UNL     1       2.257   9.141  17.979  0.00  0.00    +0.000 NA
ATOM      4  C   UNL     1       1.561   8.956  19.130  0.00  0.00    +0.000 A 
ATOM      5  C   UNL     1       1.757   7.803  19.892  0.00  0.00    +0.000 A 
ATOM      6  C   UNL     1       2.687   6.848  19.455  0.00  0.00    +0.000 A 
ATOM      7  C   UNL     1       1.150   7.594  21.234  0.00  0.00    +0.000 C 
ATOM      8  C   UNL     1      -0.143   8.336  21.423  0.00  0.00    +0.000 C 
ATOM      9  C   UNL     1      -0.205   9.692  20.743  0.00  0.00    +0.000 C 
ATOM     10  N   UNL     1       0.650   9.952  19.592  0.00  0.00    +0.000 N 
ATOM     11  C   UNL     1       0.479  11.227  19.051  0.00  0.00    +0.000 C 
ATOM     12  N   UNL     1       1.306  11.582  18.031  0.00  0.00    +0.000 N 
ATOM     13  O   UNL     1      -0.350  12.033  19.472  0.00  0.00    +0.000 OA
ATOM     14  H   UNL     1       1.187  10.932  17.262  0.00  0.00    +0.000 HD
ATOM     15  H   UNL     1       2.270  11.393  18.284  0.00  0.00    +0.000 HD
ENDROOT
BRANCH   1  20
ATOM     16  C   UNL     1       6.021   5.067  16.339  0.00  0.00    +0.000 A 
ATOM     17  C   UNL     1       6.517   4.264  17.350  0.00  0.00    +0.000 A 
ATOM     18  N   UNL     1       6.100   4.338  18.640  0.00  0.00    +0.000 NA
ATOM     19  C   UNL     1       5.108   5.224  18.921  0.00  0.00    +0.000 A 
ATOM     20  C   UNL     1       4.513   6.065  17.984  0.00  0.00    +0.000 A 
ATOM     21  C   UNL     1       5.010   5.975  16.665  0.00  0.00    +0.000 A 
BRANCH  16  24
ATOM     22  C   UNL     1       6.234   3.676  12.828  0.00  0.00    +0.000 C 
ATOM     23  N   UNL     1       5.790   3.982  14.167  0.00  0.00    +0.000 N 
ATOM     24  C   UNL     1       6.496   4.870  14.952  0.00  0.00    +0.000 C 
ATOM     25  O   UNL     1       7.478   5.488  14.557  0.00  0.00    +0.000 OA
ATOM     26  H   UNL     1       4.889   3.637  14.467  0.00  0.00    +0.000 HD
ENDBRANCH  16  24
ENDBRANCH   1  20
TORSDOF 2
ENDMDL
MODEL 5
REMARK VINA RESULT:      -8.1      4.258      6.453
REMARK  Name = 
REMARK  3 active torsions:
REMARK  status: ('A' for Active; 'I' for Inactive)
REMARK    1  A    between atoms: C_1  and  N_2
REMARK    2  A    between atoms: C_3  and  C_5
REMARK    3  A    between atoms: C_9  and  C_10
REMARK                            x       y       z     vdW  Elec       q    Type
REMARK                         _______ _______ _______ _____ _____    ______ ____
ROOT
ATOM      1  C   UNL     1       2.382   7.702  18.504  0.00  0.00    +0.000 A 
ATOM      2  C   UNL     1       1.898   8.765  17.748  0.00  0.00    +0.000 A 
ATOM      3  N   UNL     1       1.136   9.791  18.244  0.00  0.00    +0.000 NA
ATOM      4  C   UNL     1       0.811   9.792  19.562  0.00  0.00    +0.000 A 
ATOM      5  C   UNL     1       1.230   8.748  20.390  0.00  0.00    +0.000 A 
ATOM      6  C   UNL     1       1.996   7.710  19.840  0.00  0.00    +0.000 A 
ATOM      7  C   UNL     1       1.048   8.749  21.866  0.00  0.00    +0.000 C 
ATOM      8  C   UNL     1      -0.137   9.557  22.318  0.00  0.00    +0.000 C 
ATOM      9  C   UNL     1      -0.404  10.807  21.500  0.00  0.00    +0.000 C 
ATOM     10  N   UNL     1       0.071  10.875  20.124  0.00  0.00    +0.000 N 
ATOM     11  C   UNL     1      -0.260  12.068  19.481  0.00  0.00    +0.000 C 
ATOM     12  N   UNL     1       0.228  12.249  18.225  0.00  0.00    +0.000 N 
ATOM     13  O   UNL     1      -0.932  12.954  20.008  0.00  0.00    +0.000 OA
ATOM     14  H   UNL     1      -0.109  11.505  17.624  0.00  0.00    +0.000 HD
ATOM     15  H   UNL     1       1.225  12.062  18.208  0.00  0.00    +0.000 HD
ENDROOT
BRANCH   1  20
ATOM     16  C   UNL     1       4.063   4.341  18.053  0.00  0.00    +0.000 A 
ATOM     17  C   UNL     1       5.043   4.694  17.144  0.00  0.00    +0.000 A 
ATOM     18  N   UNL     1       5.177   5.946  16.635  0.00  0.00    +0.000 NA
ATOM     19  C   UNL     1       4.319   6.897  17.093  0.00  0.00    +0.000 A 
ATOM     20  C   UNL     1       3.311   6.666  18.026  0.00  0.00    +0.000 A 
ATOM     21  C   UNL     1       3.191   5.339  18.494  0.00  0.00    +0.000 A 
BRANCH  16  24
ATOM     22  C   UNL     1       4.904   1.378  20.250  0.00  0.00    +0.000 C 
ATOM     23  N   UNL     1       4.815   2.712  19.706  0.00  0.00    +0.000 N 
ATOM     24  C   UNL     1       4.035   2.965  18.596  0.00  0.00    +0.000 C 
ATOM     25  O   UNL     1       3.338   2.115  18.054  0.00  0.00    +0.000 OA
ATOM     26  H   UNL     1       5.227   3.474  20.227  0.00  0.00    +0.000 HD
ENDBRANCH  16  24
ENDBRANCH   1  20
TORSDOF 2
ENDMDL
MODEL 6
REMARK VINA RESULT:      -8.0      4.193      6.235
REMARK  Name = 
REMARK  3 active torsions:
REMARK  status: ('A' for Active; 'I' for Inactive)
REMARK    1  A    between atoms: C_1  and  N_2
REMARK    2  A    between atoms: C_3  and  C_5
REMARK    3  A    between atoms: C_9  and  C_10
REMARK                            x       y       z     vdW  Elec       q    Type
REMARK                         _______ _______ _______ _____ _____    ______ ____
ROOT
ATOM      1  C   UNL     1       2.072   8.016  19.234  0.00  0.00    +0.000 A 
ATOM      2  C   UNL     1       1.859   7.920  20.606  0.00  0.00    +0.000 A 
ATOM      3  N   UNL     1       1.043   8.752  21.329  0.00  0.00    +0.000 NA
ATOM      4  C   UNL     1       0.387   9.751  20.685  0.00  0.00    +0.000 A 
ATOM      5  C   UNL     1       0.563   9.940  19.313  0.00  0.00    +0.000 A 
ATOM      6  C   UNL     1       1.419   9.076  18.613  0.00  0.00    +0.000 A 
ATOM      7  C   UNL     1      -0.228  10.908  18.509  0.00  0.00    +0.000 C 
ATOM      8  C   UNL     1      -0.721  12.082  19.310  0.00  0.00    +0.000 C 
ATOM      9  C   UNL     1      -1.107  11.758  20.741  0.00  0.00    +0.000 C 
ATOM     10  N   UNL     1      -0.517  10.597  21.395  0.00  0.00    +0.000 N 
ATOM     11  C   UNL     1      -0.942  10.427  22.713  0.00  0.00    +0.000 C 
ATOM     12  N   UNL     1      -0.509   9.314  23.363  0.00  0.00    +0.000 N 
ATOM     13  O   UNL     1      -1.698  11.211  23.285  0.00  0.00    +0.000 OA
ATOM     14  H   UNL     1       0.504   9.315  23.393  0.00  0.00    +0.000 HD
ATOM     15  H   UNL     1      -0.675   8.491  22.792  0.00  0.00    +0.000 HD
ENDROOT
BRANCH   1  20
ATOM     16  C   UNL     1       3.232   4.754  17.705  0.00  0.00    +0.000 A 
ATOM     17  C   UNL     1       4.245   5.229  16.893  0.00  0.00    +0.000 A 
ATOM     18  N   UNL     1       4.558   6.545  16.777  0.00  0.00    +0.000 NA
ATOM     19  C   UNL     1       3.856   7.420  17.545  0.00  0.00    +0.000 A 
ATOM     20  C   UNL     1       2.832   7.057  18.417  0.00  0.00    +0.000 A 
ATOM     21  C   UNL     1       2.521   5.681  18.471  0.00  0.00    +0.000 A 
BRANCH  16  24
ATOM     22  C   UNL     1       3.868   1.117  18.528  0.00  0.00    +0.000 C 
ATOM     23  N   UNL     1       3.976   2.555  18.452  0.00  0.00    +0.000 N 
ATOM     24  C   UNL     1       3.005   3.296  17.809  0.00  0.00    +0.000 C 
ATOM     25  O   UNL     1       1.988   2.807  17.332  0.00  0.00    +0.000 OA
ATOM     26  H   UNL     1       4.701   3.012  18.986  0.00  0.00    +0.000 HD
ENDBRANCH  16  24
ENDBRANCH   1  20
TORSDOF 2
ENDMDL
MODEL 7
REMARK VINA RESULT:      -8.0      4.307      6.545
REMARK  Name = 
REMARK  3 active torsions:
REMARK  status: ('A' for Active; 'I' for Inactive)
REMARK    1  A    between atoms: C_1  and  N_2
REMARK    2  A    between atoms: C_3  and  C_5
REMARK    3  A    between atoms: C_9  and  C_10
REMARK                            x       y       z     vdW  Elec       q    Type
REMARK                         _______ _______ _______ _____ _____    ______ ____
ROOT
ATOM      1  C   UNL     1       2.181   7.214  19.654  0.00  0.00    +0.000 A 
ATOM      2  C   UNL     1       2.064   8.172  18.652  0.00  0.00    +0.000 A 
ATOM      3  N   UNL     1       1.462   9.395  18.808  0.00  0.00    +0.000 NA
ATOM      4  C   UNL     1       0.930   9.716  20.016  0.00  0.00    +0.000 A 
ATOM      5  C   UNL     1       0.976   8.802  21.070  0.00  0.00    +0.000 A 
ATOM      6  C   UNL     1       1.588   7.557  20.864  0.00  0.00    +0.000 A 
ATOM      7  C   UNL     1       0.555   9.130  22.458  0.00  0.00    +0.000 C 
ATOM      8  C   UNL     1      -0.492  10.207  22.522  0.00  0.00    +0.000 C 
ATOM      9  C   UNL     1      -0.351  11.295  21.474  0.00  0.00    +0.000 C 
ATOM     10  N   UNL     1       0.349  11.002  20.231  0.00  0.00    +0.000 N 
ATOM     11  C   UNL     1       0.389  12.082  19.348  0.00  0.00    +0.000 C 
ATOM     12  N   UNL     1       1.105  11.919  18.203  0.00  0.00    +0.000 N 
ATOM     13  O   UNL     1      -0.161  13.159  19.575  0.00  0.00    +0.000 OA
ATOM     14  H   UNL     1       0.725  11.140  17.677  0.00  0.00    +0.000 HD
ATOM     15  H   UNL     1       2.030  11.560  18.420  0.00  0.00    +0.000 HD
ENDROOT
BRANCH   1  20
ATOM     16  C   UNL     1       4.864   4.727  18.682  0.00  0.00    +0.000 A 
ATOM     17  C   UNL     1       4.385   3.607  19.336  0.00  0.00    +0.000 A 
ATOM     18  N   UNL     1       3.266   3.608  20.105  0.00  0.00    +0.000 NA
ATOM     19  C   UNL     1       2.570   4.773  20.185  0.00  0.00    +0.000 A 
ATOM     20  C   UNL     1       2.938   5.957  19.550  0.00  0.00    +0.000 A 
ATOM     21  C   UNL     1       4.130   5.911  18.794  0.00  0.00    +0.000 A 
BRANCH  16  24
ATOM     22  C   UNL     1       6.966   4.556  15.542  0.00  0.00    +0.000 C 
ATOM     23  N   UNL     1       5.864   4.733  16.458  0.00  0.00    +0.000 N 
ATOM     24  C   UNL     1       6.059   4.611  17.818  0.00  0.00    +0.000 C 
ATOM     25  O   UNL     1       7.156   4.414  18.329  0.00  0.00    +0.000 OA
ATOM     26  H   UNL     1       4.986   5.074  16.094  0.00  0.00    +0.000 HD
ENDBRANCH  16  24
ENDBRANCH   1  20
TORSDOF 2
ENDMDL
MODEL 8
REMARK VINA RESULT:      -7.9      3.799      5.907
REMARK  Name = 
REMARK  3 active torsions:
REMARK  status: ('A' for Active; 'I' for Inactive)
REMARK    1  A    between atoms: C_1  and  N_2
REMARK    2  A    between atoms: C_3  and  C_5
REMARK    3  A    between atoms: C_9  and  C_10
REMARK                            x       y       z     vdW  Elec       q    Type
REMARK                         _______ _______ _______ _____ _____    ______ ____
ROOT
ATOM      1  C   UNL     1       2.028   6.950  19.357  0.00  0.00    +0.000 A 
ATOM      2  C   UNL     1       1.618   6.946  20.687  0.00  0.00    +0.000 A 
ATOM      3  N   UNL     1       1.116   8.036  21.351  0.00  0.00    +0.000 NA
ATOM      4  C   UNL     1       1.005   9.216  20.689  0.00  0.00    +0.000 A 
ATOM      5  C   UNL     1       1.420   9.319  19.360  0.00  0.00    +0.000 A 
ATOM      6  C   UNL     1       1.942   8.185  18.721  0.00  0.00    +0.000 A 
ATOM      7  C   UNL     1       1.194  10.526  18.522  0.00  0.00    +0.000 C 
ATOM      8  C   UNL     1       1.113  11.797  19.321  0.00  0.00    +0.000 C 
ATOM      9  C   UNL     1       0.446  11.655  20.676  0.00  0.00    +0.000 C 
ATOM     10  N   UNL     1       0.431  10.354  21.332  0.00  0.00    +0.000 N 
ATOM     11  C   UNL     1      -0.195  10.368  22.579  0.00  0.00    +0.000 C 
ATOM     12  N   UNL     1      -0.333   9.173  23.215  0.00  0.00    +0.000 N 
ATOM     13  O   UNL     1      -0.642  11.390  23.098  0.00  0.00    +0.000 OA
ATOM     14  H   UNL     1       0.583   8.765  23.365  0.00  0.00    +0.000 HD
ATOM     15  H   UNL     1      -0.739   8.489  22.584  0.00  0.00    +0.000 HD
ENDROOT
BRANCH   1  20
ATOM     16  C   UNL     1       4.219   4.439  17.564  0.00  0.00    +0.000 A 
ATOM     17  C   UNL     1       3.249   3.550  17.138  0.00  0.00    +0.000 A 
ATOM     18  N   UNL     1       1.929   3.689  17.424  0.00  0.00    +0.000 NA
ATOM     19  C   UNL     1       1.558   4.791  18.128  0.00  0.00    +0.000 A 
ATOM     20  C   UNL     1       2.441   5.767  18.586  0.00  0.00    +0.000 A 
ATOM     21  C   UNL     1       3.806   5.555  18.295  0.00  0.00    +0.000 A 
BRANCH  16  24
ATOM     22  C   UNL     1       7.997   4.374  17.753  0.00  0.00    +0.000 C 
ATOM     23  N   UNL     1       6.599   4.476  18.098  0.00  0.00    +0.000 N 
ATOM     24  C   UNL     1       5.625   4.235  17.151  0.00  0.00    +0.000 C 
ATOM     25  O   UNL     1       5.871   3.868  16.007  0.00  0.00    +0.000 OA
ATOM     26  H   UNL     1       6.350   4.597  19.070  0.00  0.00    +0.000 HD
ENDBRANCH  16  24
ENDBRANCH   1  20
TORSDOF 2
ENDMDL
MODEL 9
REMARK VINA RESULT:      -7.9      4.122      5.946
REMARK  Name = 
REMARK  3 active torsions:
REMARK  status: ('A' for Active; 'I' for Inactive)
REMARK    1  A    between atoms: C_1  and  N_2
REMARK    2  A    between atoms: C_3  and  C_5
REMARK    3  A    between atoms: C_9  and  C_10
REMARK                            x       y       z     vdW  Elec       q    Type
REMARK                         _______ _______ _______ _____ _____    ______ ____
ROOT
ATOM      1  C   UNL     1       2.359   7.169  18.669  0.00  0.00    +0.000 A 
ATOM      2  C   UNL     1       2.285   8.255  17.803  0.00  0.00    +0.000 A 
ATOM      3  N   UNL     1       1.826   9.500  18.150  0.00  0.00    +0.000 NA
ATOM      4  C   UNL     1       1.405   9.713  19.424  0.00  0.00    +0.000 A 
ATOM      5  C   UNL     1       1.417   8.671  20.353  0.00  0.00    +0.000 A 
ATOM      6  C   UNL     1       1.880   7.409  19.952  0.00  0.00    +0.000 A 
ATOM      7  C   UNL     1       1.117   8.857  21.797  0.00  0.00    +0.000 C 
ATOM      8  C   UNL     1       0.196  10.013  22.069  0.00  0.00    +0.000 C 
ATOM      9  C   UNL     1       0.389  11.209  21.154  0.00  0.00    +0.000 C 
ATOM     10  N   UNL     1       0.978  11.011  19.836  0.00  0.00    +0.000 N 
ATOM     11  C   UNL     1       1.079  12.187  19.091  0.00  0.00    +0.000 C 
ATOM     12  N   UNL     1       1.704  12.104  17.886  0.00  0.00    +0.000 N 
ATOM     13  O   UNL     1       0.661  13.274  19.487  0.00  0.00    +0.000 OA
ATOM     14  H   UNL     1       1.212  11.440  17.298  0.00  0.00    +0.000 HD
ATOM     15  H   UNL     1       2.597  11.631  17.989  0.00  0.00    +0.000 HD
ENDROOT
BRANCH   1  20
ATOM     16  C   UNL     1       4.690   4.576  17.196  0.00  0.00    +0.000 A 
ATOM     17  C   UNL     1       4.145   3.434  17.753  0.00  0.00    +0.000 A 
ATOM     18  N   UNL     1       3.090   3.448  18.608  0.00  0.00    +0.000 NA
ATOM     19  C   UNL     1       2.526   4.655  18.879  0.00  0.00    +0.000 A 
ATOM     20  C   UNL     1       2.971   5.867  18.357  0.00  0.00    +0.000 A 
ATOM     21  C   UNL     1       4.095   5.802  17.504  0.00  0.00    +0.000 A 
BRANCH  16  24
ATOM     22  C   UNL     1       6.489   4.256  13.883  0.00  0.00    +0.000 C 
ATOM     23  N   UNL     1       5.471   4.449  14.888  0.00  0.00    +0.000 N 
ATOM     24  C   UNL     1       5.802   4.454  16.228  0.00  0.00    +0.000 C 
ATOM     25  O   UNL     1       6.954   4.363  16.639  0.00  0.00    +0.000 OA
ATOM     26  H   UNL     1       4.541   4.708  14.589  0.00  0.00    +0.000 HD
ENDBRANCH  16  24
ENDBRANCH   1  20
TORSDOF 2
ENDMDL
