MODEL 1
REMARK VINA RESULT:      -8.9      0.000      0.000
REMARK  Name = 
REMARK  5 active torsions:
REMARK  status: ('A' for Active; 'I' for Inactive)
REMARK    1  A    between atoms: C_1  and  C_2
REMARK    2  A    between atoms: N_7  and  C_8
REMARK    3  A    between atoms: C_11  and  C_12
REMARK    4  A    between atoms: C_14  and  C_15
REMARK    5  A    between atoms: C_28  and  C_29
REMARK                            x       y       z     vdW  Elec       q    Type
REMARK                         _______ _______ _______ _____ _____    ______ ____
ROOT
ATOM      1  C   UNL     1       4.312   6.078  17.571  0.00  0.00    +0.000 A 
ATOM      2  C   UNL     1       4.042   7.399  17.114  0.00  0.00    +0.000 A 
ATOM      3  C   UNL     1       3.100   8.273  17.707  0.00  0.00    +0.000 A 
ATOM      4  C   UNL     1       2.365   7.850  18.806  0.00  0.00    +0.000 A 
ATOM      5  C   UNL     1       2.622   6.571  19.282  0.00  0.00    +0.000 A 
ATOM      6  C   UNL     1       3.583   5.674  18.711  0.00  0.00    +0.000 A 
ENDROOT
BRANCH   1  13
ATOM      7  C   UNL     1       7.455   4.627  17.711  0.00  0.00    +0.000 C 
ATOM      8  C   UNL     1       6.671   5.595  16.818  0.00  0.00    +0.000 C 
ATOM      9  C   UNL     1       7.182   5.562  15.365  0.00  0.00    +0.000 C 
ATOM     10  C   UNL     1       6.792   4.287  14.624  0.00  0.00    +0.000 C 
ATOM     11  C   UNL     1       5.289   4.077  14.699  0.00  0.00    +0.000 C 
ATOM     12  C   UNL     1       4.790   4.086  16.138  0.00  0.00    +0.000 C 
ATOM     13  N   UNL     1       5.217   5.293  16.859  0.00  0.00    +0.000 N 
ENDBRANCH   1  13
BRANCH   4  14
ATOM     14  C   UNL     1       1.383   8.661  19.516  0.00  0.00    +0.000 A 
ATOM     15  N   UNL     1       0.697   9.663  19.025  0.00  0.00    +0.000 NA
ATOM     16  C   UNL     1      -0.182   9.980  20.033  0.00  0.00    +0.000 A 
ATOM     17  N   UNL     1       0.002   9.267  21.156  0.00  0.00    +0.000 NA
ATOM     18  O   UNL     1       1.051   8.383  20.813  0.00  0.00    +0.000 OA
BRANCH  16  19
ATOM     19  C   UNL     1      -1.275  10.899  19.734  0.00  0.00    +0.000 A 
ATOM     20  C   UNL     1      -1.779  11.828  20.650  0.00  0.00    +0.000 A 
ATOM     21  C   UNL     1      -2.978  12.501  20.370  0.00  0.00    +0.000 A 
ATOM     22  C   UNL     1      -3.687  12.245  19.182  0.00  0.00    +0.000 A 
ATOM     23  C   UNL     1      -3.152  11.372  18.233  0.00  0.00    +0.000 A 
ATOM     24  C   UNL     1      -1.941  10.733  18.509  0.00  0.00    +0.000 A 
ATOM     25  C   UNL     1      -3.837  11.142  16.916  0.00  0.00    +0.000 C 
ATOM     26  N   UNL     1      -5.292  11.145  17.010  0.00  0.00    +0.000 NA
ATOM     27  C   UNL     1      -5.835  12.282  17.753  0.00  0.00    +0.000 C 
ATOM     28  C   UNL     1      -5.008  12.909  18.900  0.00  0.00    +0.000 C 
ATOM     29  H   UNL     1      -5.587  10.277  17.454  0.00  0.00    +0.000 HD
ENDBRANCH  16  19
ENDBRANCH   4  14
BRANCH   6  30
ATOM     30  C   UNL     1       3.675   4.375  19.489  0.00  0.00    +0.000 C 
ATOM     31  F   UNL     1       4.902   3.871  19.769  0.00  0.00    +0.000 F 
ATOM     32  F   UNL     1       3.063   4.473  20.709  0.00  0.00    +0.000 F 
ATOM     33  F   UNL     1       3.007   3.368  18.846  0.00  0.00    +0.000 F 
ENDBRANCH   6  30
TORSDOF 4
ENDMDL
MODEL 2
REMARK VINA RESULT:      -8.9      3.599     10.216
REMARK  Name = 
REMARK  5 active torsions:
REMARK  status: ('A' for Active; 'I' for Inactive)
REMARK    1  A    between atoms: C_1  and  C_2
REMARK    2  A    between atoms: N_7  and  C_8
REMARK    3  A    between atoms: C_11  and  C_12
REMARK    4  A    between atoms: C_14  and  C_15
REMARK    5  A    between atoms: C_28  and  C_29
REMARK                            x       y       z     vdW  Elec       q    Type
REMARK                         _______ _______ _______ _____ _____    ______ ____
ROOT
ATOM      1  C   UNL     1      -2.321  12.368  20.609  0.00  0.00    +0.000 A 
ATOM      2  C   UNL     1      -2.144  12.237  19.203  0.00  0.00    +0.000 A 
ATOM      3  C   UNL     1      -1.112  11.484  18.594  0.00  0.00    +0.000 A 
ATOM      4  C   UNL     1      -0.186  10.818  19.384  0.00  0.00    +0.000 A 
ATOM      5  C   UNL     1      -0.347  10.916  20.760  0.00  0.00    +0.000 A 
ATOM      6  C   UNL     1      -1.393  11.657  21.402  0.00  0.00    +0.000 A 
ENDROOT
BRANCH   1  13
ATOM      7  C   UNL     1      -3.359  15.666  20.829  0.00  0.00    +0.000 C 
ATOM      8  C   UNL     1      -3.061  14.486  21.761  0.00  0.00    +0.000 C 
ATOM      9  C   UNL     1      -3.868  14.585  23.071  0.00  0.00    +0.000 C 
ATOM     10  C   UNL     1      -5.352  14.289  22.882  0.00  0.00    +0.000 C 
ATOM     11  C   UNL     1      -5.535  12.940  22.207  0.00  0.00    +0.000 C 
ATOM     12  C   UNL     1      -4.757  12.853  20.900  0.00  0.00    +0.000 C 
ATOM     13  N   UNL     1      -3.338  13.193  21.084  0.00  0.00    +0.000 N 
ENDBRANCH   1  13
BRANCH   4  14
ATOM     14  C   UNL     1       0.907   9.996  18.879  0.00  0.00    +0.000 A 
ATOM     15  N   UNL     1       1.294   8.837  19.351  0.00  0.00    +0.000 NA
ATOM     16  C   UNL     1       2.239   8.417  18.446  0.00  0.00    +0.000 A 
ATOM     17  N   UNL     1       2.509   9.318  17.487  0.00  0.00    +0.000 NA
ATOM     18  O   UNL     1       1.619  10.377  17.775  0.00  0.00    +0.000 OA
BRANCH  16  19
ATOM     19  C   UNL     1       2.708   7.037  18.526  0.00  0.00    +0.000 A 
ATOM     20  C   UNL     1       3.712   6.511  17.706  0.00  0.00    +0.000 A 
ATOM     21  C   UNL     1       3.933   5.126  17.680  0.00  0.00    +0.000 A 
ATOM     22  C   UNL     1       3.150   4.256  18.462  0.00  0.00    +0.000 A 
ATOM     23  C   UNL     1       2.196   4.783  19.334  0.00  0.00    +0.000 A 
ATOM     24  C   UNL     1       2.006   6.166  19.375  0.00  0.00    +0.000 A 
ATOM     25  C   UNL     1       1.403   3.891  20.247  0.00  0.00    +0.000 C 
ATOM     26  N   UNL     1       1.061   2.606  19.649  0.00  0.00    +0.000 NA
ATOM     27  C   UNL     1       2.191   1.927  19.017  0.00  0.00    +0.000 C 
ATOM     28  C   UNL     1       3.332   2.764  18.392  0.00  0.00    +0.000 C 
ATOM     29  H   UNL     1       0.327   2.758  18.959  0.00  0.00    +0.000 HD
ENDBRANCH  16  19
ENDBRANCH   4  14
BRANCH   6  30
ATOM     30  C   UNL     1      -1.335  11.524  22.912  0.00  0.00    +0.000 C 
ATOM     31  F   UNL     1      -0.541  10.566  23.450  0.00  0.00    +0.000 F 
ATOM     32  F   UNL     1      -0.913  12.683  23.504  0.00  0.00    +0.000 F 
ATOM     33  F   UNL     1      -2.580  11.300  23.434  0.00  0.00    +0.000 F 
ENDBRANCH   6  30
TORSDOF 4
ENDMDL
MODEL 3
REMARK VINA RESULT:      -8.8      2.175      3.188
REMARK  Name = 
REMARK  5 active torsions:
REMARK  status: ('A' for Active; 'I' for Inactive)
REMARK    1  A    between atoms: C_1  and  C_2
REMARK    2  A    between atoms: N_7  and  C_8
REMARK    3  A    between atoms: C_11  and  C_12
REMARK    4  A    between atoms: C_14  and  C_15
REMARK    5  A    between atoms: C_28  and  C_29
REMARK                            x       y       z     vdW  Elec       q    Type
REMARK                         _______ _______ _______ _____ _____    ______ ____
ROOT
ATOM      1  C   UNL     1       3.269   5.721  18.498  0.00  0.00    +0.000 A 
ATOM      2  C   UNL     1       3.694   6.761  17.625  0.00  0.00    +0.000 A 
ATOM      3  C   UNL     1       3.191   8.084  17.652  0.00  0.00    +0.000 A 
ATOM      4  C   UNL     1       2.212   8.429  18.573  0.00  0.00    +0.000 A 
ATOM      5  C   UNL     1       1.791   7.436  19.448  0.00  0.00    +0.000 A 
ATOM      6  C   UNL     1       2.297   6.095  19.452  0.00  0.00    +0.000 A 
ENDROOT
BRANCH   1  13
ATOM      7  C   UNL     1       4.747   3.605  16.186  0.00  0.00    +0.000 C 
ATOM      8  C   UNL     1       3.525   3.629  17.111  0.00  0.00    +0.000 C 
ATOM      9  C   UNL     1       3.090   2.205  17.509  0.00  0.00    +0.000 C 
ATOM     10  C   UNL     1       4.045   1.544  18.498  0.00  0.00    +0.000 C 
ATOM     11  C   UNL     1       4.239   2.436  19.714  0.00  0.00    +0.000 C 
ATOM     12  C   UNL     1       4.692   3.836  19.319  0.00  0.00    +0.000 C 
ATOM     13  N   UNL     1       3.795   4.442  18.325  0.00  0.00    +0.000 N 
ENDBRANCH   1  13
BRANCH   4  14
ATOM     14  C   UNL     1       1.630   9.758  18.715  0.00  0.00    +0.000 A 
ATOM     15  N   UNL     1       0.585  10.079  19.436  0.00  0.00    +0.000 NA
ATOM     16  C   UNL     1       0.542  11.450  19.355  0.00  0.00    +0.000 A 
ATOM     17  N   UNL     1       1.470  11.974  18.537  0.00  0.00    +0.000 NA
ATOM     18  O   UNL     1       2.200  10.842  18.105  0.00  0.00    +0.000 OA
BRANCH  16  19
ATOM     19  C   UNL     1      -0.358  12.169  20.251  0.00  0.00    +0.000 A 
ATOM     20  C   UNL     1       0.026  12.668  21.499  0.00  0.00    +0.000 A 
ATOM     21  C   UNL     1      -0.952  13.129  22.394  0.00  0.00    +0.000 A 
ATOM     22  C   UNL     1      -2.317  13.086  22.055  0.00  0.00    +0.000 A 
ATOM     23  C   UNL     1      -2.699  12.655  20.784  0.00  0.00    +0.000 A 
ATOM     24  C   UNL     1      -1.715  12.229  19.889  0.00  0.00    +0.000 A 
ATOM     25  C   UNL     1      -4.139  12.678  20.357  0.00  0.00    +0.000 C 
ATOM     26  N   UNL     1      -5.068  12.351  21.432  0.00  0.00    +0.000 NA
ATOM     27  C   UNL     1      -4.822  13.086  22.672  0.00  0.00    +0.000 C 
ATOM     28  C   UNL     1      -3.379  13.514  23.031  0.00  0.00    +0.000 C 
ATOM     29  H   UNL     1      -5.011  11.350  21.613  0.00  0.00    +0.000 HD
ENDBRANCH  16  19
ENDBRANCH   4  14
BRANCH   6  30
ATOM     30  C   UNL     1       1.684   5.263  20.562  0.00  0.00    +0.000 C 
ATOM     31  F   UNL     1       2.491   4.792  21.544  0.00  0.00    +0.000 F 
ATOM     32  F   UNL     1       0.708   5.953  21.230  0.00  0.00    +0.000 F 
ATOM     33  F   UNL     1       1.046   4.162  20.057  0.00  0.00    +0.000 F 
ENDBRANCH   6  30
TORSDOF 4
ENDMDL
MODEL 4
REMARK VINA RESULT:      -8.7      3.678     10.256
REMARK  Name = 
REMARK  5 active torsions:
REMARK  status: ('A' for Active; 'I' for Inactive)
REMARK    1  A    between atoms: C_1  and  C_2
REMARK    2  A    between atoms: N_7  and  C_8
REMARK    3  A    between atoms: C_11  and  C_12
REMARK    4  A    between atoms: C_14  and  C_15
REMARK    5  A    between atoms: C_28  and  C_29
REMARK                            x       y       z     vdW  Elec       q    Type
REMARK                         _______ _______ _______ _____ _____    ______ ____
ROOT
ATOM      1  C   UNL     1      -2.340  12.566  20.487  0.00  0.00    +0.000 A 
ATOM      2  C   UNL     1      -2.139  12.364  19.092  0.00  0.00    +0.000 A 
ATOM      3  C   UNL     1      -1.112  11.563  18.541  0.00  0.00    +0.000 A 
ATOM      4  C   UNL     1      -0.215  10.918  19.381  0.00  0.00    +0.000 A 
ATOM      5  C   UNL     1      -0.399  11.086  20.747  0.00  0.00    +0.000 A 
ATOM      6  C   UNL     1      -1.442  11.877  21.331  0.00  0.00    +0.000 A 
ENDROOT
BRANCH   1  13
ATOM      7  C   UNL     1      -5.386  12.715  22.132  0.00  0.00    +0.000 C 
ATOM      8  C   UNL     1      -4.790  13.096  20.772  0.00  0.00    +0.000 C 
ATOM      9  C   UNL     1      -5.557  14.268  20.128  0.00  0.00    +0.000 C 
ATOM     10  C   UNL     1      -5.292  15.603  20.816  0.00  0.00    +0.000 C 
ATOM     11  C   UNL     1      -3.797  15.873  20.878  0.00  0.00    +0.000 C 
ATOM     12  C   UNL     1      -3.045  14.724  21.537  0.00  0.00    +0.000 C 
ATOM     13  N   UNL     1      -3.349  13.434  20.901  0.00  0.00    +0.000 N 
ENDBRANCH   1  13
BRANCH   4  14
ATOM     14  C   UNL     1       0.871  10.051  18.937  0.00  0.00    +0.000 A 
ATOM     15  N   UNL     1       1.184   8.879  19.431  0.00  0.00    +0.000 NA
ATOM     16  C   UNL     1       2.161   8.419  18.580  0.00  0.00    +0.000 A 
ATOM     17  N   UNL     1       2.520   9.306  17.638  0.00  0.00    +0.000 NA
ATOM     18  O   UNL     1       1.658  10.401  17.875  0.00  0.00    +0.000 OA
BRANCH  16  19
ATOM     19  C   UNL     1       2.568   7.022  18.686  0.00  0.00    +0.000 A 
ATOM     20  C   UNL     1       3.432   6.396  17.782  0.00  0.00    +0.000 A 
ATOM     21  C   UNL     1       3.581   5.001  17.814  0.00  0.00    +0.000 A 
ATOM     22  C   UNL     1       2.862   4.221  18.739  0.00  0.00    +0.000 A 
ATOM     23  C   UNL     1       2.054   4.847  19.689  0.00  0.00    +0.000 A 
ATOM     24  C   UNL     1       1.939   6.239  19.668  0.00  0.00    +0.000 A 
ATOM     25  C   UNL     1       1.341   4.053  20.747  0.00  0.00    +0.000 C 
ATOM     26  N   UNL     1       0.864   2.758  20.277  0.00  0.00    +0.000 NA
ATOM     27  C   UNL     1       1.870   1.983  19.552  0.00  0.00    +0.000 C 
ATOM     28  C   UNL     1       2.962   2.719  18.740  0.00  0.00    +0.000 C 
ATOM     29  H   UNL     1       0.056   2.913  19.675  0.00  0.00    +0.000 HD
ENDBRANCH  16  19
ENDBRANCH   4  14
BRANCH   6  30
ATOM     30  C   UNL     1      -1.415  11.817  22.846  0.00  0.00    +0.000 C 
ATOM     31  F   UNL     1      -1.045  12.925  23.535  0.00  0.00    +0.000 F 
ATOM     32  F   UNL     1      -2.643  11.495  23.360  0.00  0.00    +0.000 F 
ATOM     33  F   UNL     1      -0.584  10.822  23.285  0.00  0.00    +0.000 F 
ENDBRANCH   6  30
TORSDOF 4
ENDMDL
MODEL 5
REMARK VINA RESULT:      -8.7      2.195      2.897
REMARK  Name = 
REMARK  5 active torsions:
REMARK  status: ('A' for Active; 'I' for Inactive)
REMARK    1  A    between atoms: C_1  and  C_2
REMARK    2  A    between atoms: N_7  and  C_8
REMARK    3  A    between atoms: C_11  and  C_12
REMARK    4  A    between atoms: C_14  and  C_15
REMARK    5  A    between atoms: C_28  and  C_29
REMARK                            x       y       z     vdW  Elec       q    Type
REMARK                         _______ _______ _______ _____ _____    ______ ____
ROOT
ATOM      1  C   UNL     1       3.524   6.782  18.143  0.00  0.00    +0.000 A 
ATOM      2  C   UNL     1       3.516   8.015  17.432  0.00  0.00    +0.000 A 
ATOM      3  C   UNL     1       2.584   9.057  17.650  0.00  0.00    +0.000 A 
ATOM      4  C   UNL     1       1.591   8.904  18.608  0.00  0.00    +0.000 A 
ATOM      5  C   UNL     1       1.587   7.716  19.327  0.00  0.00    +0.000 A 
ATOM      6  C   UNL     1       2.530   6.654  19.139  0.00  0.00    +0.000 A 
ENDROOT
BRANCH   1  13
ATOM      7  C   UNL     1       6.392   5.152  19.201  0.00  0.00    +0.000 C 
ATOM      8  C   UNL     1       5.914   5.986  18.007  0.00  0.00    +0.000 C 
ATOM      9  C   UNL     1       6.693   5.634  16.725  0.00  0.00    +0.000 C 
ATOM     10  C   UNL     1       6.313   4.273  16.150  0.00  0.00    +0.000 C 
ATOM     11  C   UNL     1       4.810   4.195  15.938  0.00  0.00    +0.000 C 
ATOM     12  C   UNL     1       4.043   4.519  17.213  0.00  0.00    +0.000 C 
ATOM     13  N   UNL     1       4.455   5.808  17.788  0.00  0.00    +0.000 N 
ENDBRANCH   1  13
BRANCH   4  14
ATOM     14  C   UNL     1       0.588   9.909  18.939  0.00  0.00    +0.000 A 
ATOM     15  N   UNL     1      -0.106   9.983  20.048  0.00  0.00    +0.000 NA
ATOM     16  C   UNL     1      -0.784  11.172  19.929  0.00  0.00    +0.000 A 
ATOM     17  N   UNL     1      -0.600  11.785  18.747  0.00  0.00    +0.000 NA
ATOM     18  O   UNL     1       0.318  10.940  18.082  0.00  0.00    +0.000 OA
BRANCH  16  19
ATOM     19  C   UNL     1      -1.470  11.699  21.105  0.00  0.00    +0.000 A 
ATOM     20  C   UNL     1      -1.003  11.534  22.412  0.00  0.00    +0.000 A 
ATOM     21  C   UNL     1      -1.837  11.857  23.494  0.00  0.00    +0.000 A 
ATOM     22  C   UNL     1      -3.143  12.334  23.279  0.00  0.00    +0.000 A 
ATOM     23  C   UNL     1      -3.587  12.567  21.977  0.00  0.00    +0.000 A 
ATOM     24  C   UNL     1      -2.737  12.272  20.908  0.00  0.00    +0.000 A 
ATOM     25  C   UNL     1      -4.944  13.158  21.713  0.00  0.00    +0.000 C 
ATOM     26  N   UNL     1      -5.965  12.707  22.649  0.00  0.00    +0.000 NA
ATOM     27  C   UNL     1      -5.562  12.791  24.052  0.00  0.00    +0.000 C 
ATOM     28  C   UNL     1      -4.071  12.620  24.429  0.00  0.00    +0.000 C 
ATOM     29  H   UNL     1      -6.207  11.743  22.423  0.00  0.00    +0.000 HD
ENDBRANCH  16  19
ENDBRANCH   4  14
BRANCH   6  30
ATOM     30  C   UNL     1       2.301   5.515  20.114  0.00  0.00    +0.000 C 
ATOM     31  F   UNL     1       3.378   4.860  20.613  0.00  0.00    +0.000 F 
ATOM     32  F   UNL     1       1.615   5.930  21.223  0.00  0.00    +0.000 F 
ATOM     33  F   UNL     1       1.510   4.544  19.560  0.00  0.00    +0.000 F 
ENDBRANCH   6  30
TORSDOF 4
ENDMDL
MODEL 6
REMARK VINA RESULT:      -8.6      1.406      2.147
REMARK  Name = 
REMARK  5 active torsions:
REMARK  status: ('A' for Active; 'I' for Inactive)
REMARK    1  A    between atoms: C_1  and  C_2
REMARK    2  A    between atoms: N_7  and  C_8
REMARK    3  A    between atoms: C_11  and  C_12
REMARK    4  A    between atoms: C_14  and  C_15
REMARK    5  A    between atoms: C_28  and  C_29
REMARK                            x       y       z     vdW  Elec       q    Type
REMARK                         _______ _______ _______ _____ _____    ______ ____
ROOT
ATOM      1  C   UNL     1       3.740   6.700  17.971  0.00  0.00    +0.000 A 
ATOM      2  C   UNL     1       3.691   7.935  17.265  0.00  0.00    +0.000 A 
ATOM      3  C   UNL     1       2.702   8.928  17.461  0.00  0.00    +0.000 A 
ATOM      4  C   UNL     1       1.692   8.721  18.389  0.00  0.00    +0.000 A 
ATOM      5  C   UNL     1       1.727   7.530  19.103  0.00  0.00    +0.000 A 
ATOM      6  C   UNL     1       2.726   6.517  18.937  0.00  0.00    +0.000 A 
ENDROOT
BRANCH   1  13
ATOM      7  C   UNL     1       6.679   5.240  19.085  0.00  0.00    +0.000 C 
ATOM      8  C   UNL     1       6.172   6.036  17.876  0.00  0.00    +0.000 C 
ATOM      9  C   UNL     1       6.988   5.716  16.608  0.00  0.00    +0.000 C 
ATOM     10  C   UNL     1       6.692   4.331  16.042  0.00  0.00    +0.000 C 
ATOM     11  C   UNL     1       5.199   4.168  15.809  0.00  0.00    +0.000 C 
ATOM     12  C   UNL     1       4.397   4.461  17.070  0.00  0.00    +0.000 C 
ATOM     13  N   UNL     1       4.729   5.776  17.638  0.00  0.00    +0.000 N 
ENDBRANCH   1  13
BRANCH   4  14
ATOM     14  C   UNL     1       0.630   9.673  18.696  0.00  0.00    +0.000 A 
ATOM     15  N   UNL     1      -0.448   9.895  17.986  0.00  0.00    +0.000 NA
ATOM     16  C   UNL     1      -1.182  10.752  18.770  0.00  0.00    +0.000 A 
ATOM     17  N   UNL     1      -0.552  11.133  19.894  0.00  0.00    +0.000 NA
ATOM     18  O   UNL     1       0.663  10.412  19.846  0.00  0.00    +0.000 OA
BRANCH  16  19
ATOM     19  C   UNL     1      -2.568  11.016  18.396  0.00  0.00    +0.000 A 
ATOM     20  C   UNL     1      -3.135  10.606  17.186  0.00  0.00    +0.000 A 
ATOM     21  C   UNL     1      -4.390  11.105  16.802  0.00  0.00    +0.000 A 
ATOM     22  C   UNL     1      -5.080  12.022  17.616  0.00  0.00    +0.000 A 
ATOM     23  C   UNL     1      -4.550  12.379  18.856  0.00  0.00    +0.000 A 
ATOM     24  C   UNL     1      -3.316  11.851  19.242  0.00  0.00    +0.000 A 
ATOM     25  C   UNL     1      -5.301  13.287  19.789  0.00  0.00    +0.000 C 
ATOM     26  N   UNL     1      -6.045  14.336  19.104  0.00  0.00    +0.000 NA
ATOM     27  C   UNL     1      -6.859  13.854  17.988  0.00  0.00    +0.000 C 
ATOM     28  C   UNL     1      -6.394  12.616  17.185  0.00  0.00    +0.000 C 
ATOM     29  H   UNL     1      -5.382  15.031  18.764  0.00  0.00    +0.000 HD
ENDBRANCH  16  19
ENDBRANCH   4  14
BRANCH   6  30
ATOM     30  C   UNL     1       2.527   5.362  19.900  0.00  0.00    +0.000 C 
ATOM     31  F   UNL     1       1.745   5.554  20.992  0.00  0.00    +0.000 F 
ATOM     32  F   UNL     1       1.975   4.276  19.278  0.00  0.00    +0.000 F 
ATOM     33  F   UNL     1       3.725   4.913  20.386  0.00  0.00    +0.000 F 
ENDBRANCH   6  30
TORSDOF 4
ENDMDL
MODEL 7
REMARK VINA RESULT:      -8.6      4.525     10.513
REMARK  Name = 
REMARK  5 active torsions:
REMARK  status: ('A' for Active; 'I' for Inactive)
REMARK    1  A    between atoms: C_1  and  C_2
REMARK    2  A    between atoms: N_7  and  C_8
REMARK    3  A    between atoms: C_11  and  C_12
REMARK    4  A    between atoms: C_14  and  C_15
REMARK    5  A    between atoms: C_28  and  C_29
REMARK                            x       y       z     vdW  Elec       q    Type
REMARK                         _______ _______ _______ _____ _____    ______ ____
ROOT
ATOM      1  C   UNL     1      -1.187  12.417  21.966  0.00  0.00    +0.000 A 
ATOM      2  C   UNL     1      -0.866  11.078  22.327  0.00  0.00    +0.000 A 
ATOM      3  C   UNL     1      -0.133  10.184  21.511  0.00  0.00    +0.000 A 
ATOM      4  C   UNL     1       0.314  10.599  20.264  0.00  0.00    +0.000 A 
ATOM      5  C   UNL     1       0.027  11.907  19.895  0.00  0.00    +0.000 A 
ATOM      6  C   UNL     1      -0.696  12.837  20.710  0.00  0.00    +0.000 A 
ENDROOT
BRANCH   1  13
ATOM      7  C   UNL     1      -3.874  12.264  24.149  0.00  0.00    +0.000 C 
ATOM      8  C   UNL     1      -3.450  13.036  22.894  0.00  0.00    +0.000 C 
ATOM      9  C   UNL     1      -4.119  14.423  22.832  0.00  0.00    +0.000 C 
ATOM     10  C   UNL     1      -3.546  15.408  23.846  0.00  0.00    +0.000 C 
ATOM     11  C   UNL     1      -2.037  15.502  23.690  0.00  0.00    +0.000 C 
ATOM     12  C   UNL     1      -1.376  14.133  23.776  0.00  0.00    +0.000 C 
ATOM     13  N   UNL     1      -1.972  13.176  22.833  0.00  0.00    +0.000 N 
ENDBRANCH   1  13
BRANCH   4  14
ATOM     14  C   UNL     1       1.093   9.781  19.341  0.00  0.00    +0.000 A 
ATOM     15  N   UNL     1       1.777   8.705  19.639  0.00  0.00    +0.000 NA
ATOM     16  C   UNL     1       2.191   8.234  18.416  0.00  0.00    +0.000 A 
ATOM     17  N   UNL     1       1.861   9.033  17.388  0.00  0.00    +0.000 NA
ATOM     18  O   UNL     1       1.126  10.071  18.005  0.00  0.00    +0.000 OA
BRANCH  16  19
ATOM     19  C   UNL     1       2.775   6.898  18.350  0.00  0.00    +0.000 A 
ATOM     20  C   UNL     1       3.922   6.590  17.613  0.00  0.00    +0.000 A 
ATOM     21  C   UNL     1       4.276   5.247  17.408  0.00  0.00    +0.000 A 
ATOM     22  C   UNL     1       3.484   4.206  17.926  0.00  0.00    +0.000 A 
ATOM     23  C   UNL     1       2.379   4.510  18.721  0.00  0.00    +0.000 A 
ATOM     24  C   UNL     1       2.054   5.850  18.946  0.00  0.00    +0.000 A 
ATOM     25  C   UNL     1       1.561   3.424  19.363  0.00  0.00    +0.000 C 
ATOM     26  N   UNL     1       1.424   2.234  18.533  0.00  0.00    +0.000 NA
ATOM     27  C   UNL     1       2.687   1.753  17.974  0.00  0.00    +0.000 C 
ATOM     28  C   UNL     1       3.815   2.763  17.656  0.00  0.00    +0.000 C 
ATOM     29  H   UNL     1       0.775   2.443  17.775  0.00  0.00    +0.000 HD
ENDBRANCH  16  19
ENDBRANCH   4  14
BRANCH   6  30
ATOM     30  C   UNL     1      -0.798  14.202  20.057  0.00  0.00    +0.000 C 
ATOM     31  F   UNL     1      -1.932  14.924  20.232  0.00  0.00    +0.000 F 
ATOM     32  F   UNL     1       0.202  15.037  20.475  0.00  0.00    +0.000 F 
ATOM     33  F   UNL     1      -0.630  14.112  18.701  0.00  0.00    +0.000 F 
ENDBRANCH   6  30
TORSDOF 4
ENDMDL
MODEL 8
REMARK VINA RESULT:      -8.6      1.777      2.688
REMARK  Name = 
REMARK  5 active torsions:
REMARK  status: ('A' for Active; 'I' for Inactive)
REMARK    1  A    between atoms: C_1  and  C_2
REMARK    2  A    between atoms: N_7  and  C_8
REMARK    3  A    between atoms: C_11  and  C_12
REMARK    4  A    between atoms: C_14  and  C_15
REMARK    5  A    between atoms: C_28  and  C_29
REMARK                            x       y       z     vdW  Elec       q    Type
REMARK                         _______ _______ _______ _____ _____    ______ ____
ROOT
ATOM      1  C   UNL     1       3.303   5.809  18.461  0.00  0.00    +0.000 A 
ATOM      2  C   UNL     1       3.743   6.841  17.585  0.00  0.00    +0.000 A 
ATOM      3  C   UNL     1       3.178   8.137  17.530  0.00  0.00    +0.000 A 
ATOM      4  C   UNL     1       2.118   8.462  18.364  0.00  0.00    +0.000 A 
ATOM      5  C   UNL     1       1.680   7.478  19.241  0.00  0.00    +0.000 A 
ATOM      6  C   UNL     1       2.247   6.164  19.329  0.00  0.00    +0.000 A 
ENDROOT
BRANCH   1  13
ATOM      7  C   UNL     1       4.943   3.650  16.304  0.00  0.00    +0.000 C 
ATOM      8  C   UNL     1       3.701   3.660  17.201  0.00  0.00    +0.000 C 
ATOM      9  C   UNL     1       3.333   2.238  17.671  0.00  0.00    +0.000 C 
ATOM     10  C   UNL     1       4.299   1.687  18.715  0.00  0.00    +0.000 C 
ATOM     11  C   UNL     1       4.418   2.654  19.881  0.00  0.00    +0.000 C 
ATOM     12  C   UNL     1       4.805   4.052  19.417  0.00  0.00    +0.000 C 
ATOM     13  N   UNL     1       3.900   4.553  18.372  0.00  0.00    +0.000 N 
ENDBRANCH   1  13
BRANCH   4  14
ATOM     14  C   UNL     1       1.465   9.765  18.417  0.00  0.00    +0.000 A 
ATOM     15  N   UNL     1       0.176   9.990  18.480  0.00  0.00    +0.000 NA
ATOM     16  C   UNL     1       0.092  11.350  18.662  0.00  0.00    +0.000 A 
ATOM     17  N   UNL     1       1.279  11.976  18.622  0.00  0.00    +0.000 NA
ATOM     18  O   UNL     1       2.201  10.917  18.457  0.00  0.00    +0.000 OA
BRANCH  16  19
ATOM     19  C   UNL     1      -1.202  11.921  19.024  0.00  0.00    +0.000 A 
ATOM     20  C   UNL     1      -1.411  12.702  20.165  0.00  0.00    +0.000 A 
ATOM     21  C   UNL     1      -2.721  13.007  20.567  0.00  0.00    +0.000 A 
ATOM     22  C   UNL     1      -3.827  12.527  19.842  0.00  0.00    +0.000 A 
ATOM     23  C   UNL     1      -3.621  11.807  18.665  0.00  0.00    +0.000 A 
ATOM     24  C   UNL     1      -2.314  11.537  18.256  0.00  0.00    +0.000 A 
ATOM     25  C   UNL     1      -4.778  11.354  17.819  0.00  0.00    +0.000 C 
ATOM     26  N   UNL     1      -5.945  10.957  18.597  0.00  0.00    +0.000 NA
ATOM     27  C   UNL     1      -6.326  11.922  19.629  0.00  0.00    +0.000 C 
ATOM     28  C   UNL     1      -5.236  12.791  20.301  0.00  0.00    +0.000 C 
ATOM     29  H   UNL     1      -5.751  10.056  19.031  0.00  0.00    +0.000 HD
ENDBRANCH  16  19
ENDBRANCH   4  14
BRANCH   6  30
ATOM     30  C   UNL     1       1.592   5.339  20.420  0.00  0.00    +0.000 C 
ATOM     31  F   UNL     1       0.541   5.868  21.094  0.00  0.00    +0.000 F 
ATOM     32  F   UNL     1       1.118   4.149  19.937  0.00  0.00    +0.000 F 
ATOM     33  F   UNL     1       2.500   4.986  21.382  0.00  0.00    +0.000 F 
ENDBRANCH   6  30
TORSDOF 4
ENDMDL
MODEL 9
REMARK VINA RESULT:      -8.5      1.932      2.723
REMARK  Name = 
REMARK  5 active torsions:
REMARK  status: ('A' for Active; 'I' for Inactive)
REMARK    1  A    between atoms: C_1  and  C_2
REMARK    2  A    between atoms: N_7  and  C_8
REMARK    3  A    between atoms: C_11  and  C_12
REMARK    4  A    between atoms: C_14  and  C_15
REMARK    5  A    between atoms: C_28  and  C_29
REMARK                            x       y       z     vdW  Elec       q    Type
REMARK                         _______ _______ _______ _____ _____    ______ ____
ROOT
ATOM      1  C   UNL     1       4.330   5.854  17.717  0.00  0.00    +0.000 A 
ATOM      2  C   UNL     1       4.013   7.206  17.404  0.00  0.00    +0.000 A 
ATOM      3  C   UNL     1       3.089   7.997  18.126  0.00  0.00    +0.000 A 
ATOM      4  C   UNL     1       2.421   7.455  19.216  0.00  0.00    +0.000 A 
ATOM      5  C   UNL     1       2.726   6.143  19.552  0.00  0.00    +0.000 A 
ATOM      6  C   UNL     1       3.670   5.326  18.848  0.00  0.00    +0.000 A 
ENDROOT
BRANCH   1  13
ATOM      7  C   UNL     1       7.514   4.499  17.540  0.00  0.00    +0.000 C 
ATOM      8  C   UNL     1       6.649   5.513  16.783  0.00  0.00    +0.000 C 
ATOM      9  C   UNL     1       7.068   5.618  15.303  0.00  0.00    +0.000 C 
ATOM     10  C   UNL     1       6.666   4.398  14.481  0.00  0.00    +0.000 C 
ATOM     11  C   UNL     1       5.177   4.133  14.629  0.00  0.00    +0.000 C 
ATOM     12  C   UNL     1       4.771   4.005  16.092  0.00  0.00    +0.000 C 
ATOM     13  N   UNL     1       5.209   5.161  16.886  0.00  0.00    +0.000 N 
ENDBRANCH   1  13
BRANCH   4  14
ATOM     14  C   UNL     1       1.464   8.172  20.051  0.00  0.00    +0.000 A 
ATOM     15  N   UNL     1       1.121   9.431  19.939  0.00  0.00    +0.000 NA
ATOM     16  C   UNL     1       0.096   9.570  20.845  0.00  0.00    +0.000 A 
ATOM     17  N   UNL     1      -0.139   8.464  21.570  0.00  0.00    +0.000 NA
ATOM     18  O   UNL     1       0.777   7.526  21.041  0.00  0.00    +0.000 OA
BRANCH  16  19
ATOM     19  C   UNL     1      -0.697  10.794  20.809  0.00  0.00    +0.000 A 
ATOM     20  C   UNL     1      -1.244  11.330  19.639  0.00  0.00    +0.000 A 
ATOM     21  C   UNL     1      -1.783  12.625  19.653  0.00  0.00    +0.000 A 
ATOM     22  C   UNL     1      -1.770  13.399  20.829  0.00  0.00    +0.000 A 
ATOM     23  C   UNL     1      -1.290  12.842  22.015  0.00  0.00    +0.000 A 
ATOM     24  C   UNL     1      -0.785  11.540  21.997  0.00  0.00    +0.000 A 
ATOM     25  C   UNL     1      -1.341  13.607  23.308  0.00  0.00    +0.000 C 
ATOM     26  N   UNL     1      -1.100  15.035  23.147  0.00  0.00    +0.000 NA
ATOM     27  C   UNL     1      -1.888  15.652  22.079  0.00  0.00    +0.000 C 
ATOM     28  C   UNL     1      -2.283  14.813  20.841  0.00  0.00    +0.000 C 
ATOM     29  H   UNL     1      -0.109  15.176  22.961  0.00  0.00    +0.000 HD
ENDBRANCH  16  19
ENDBRANCH   4  14
BRANCH   6  30
ATOM     30  C   UNL     1       3.826   3.961  19.490  0.00  0.00    +0.000 C 
ATOM     31  F   UNL     1       5.076   3.481  19.702  0.00  0.00    +0.000 F 
ATOM     32  F   UNL     1       3.233   3.912  20.723  0.00  0.00    +0.000 F 
ATOM     33  F   UNL     1       3.186   2.997  18.759  0.00  0.00    +0.000 F 
ENDBRANCH   6  30
TORSDOF 4
ENDMDL
