MODEL 1
REMARK VINA RESULT:      -7.2      0.000      0.000
REMARK  Name = 
REMARK  5 active torsions:
REMARK  status: ('A' for Active; 'I' for Inactive)
REMARK    1  A    between atoms: C_2  and  O_3
REMARK    2  A    between atoms: C_2  and  C_4
REMARK    3  A    between atoms: C_6  and  C_7
REMARK    4  A    between atoms: C_14  and  N_15
REMARK    5  A    between atoms: C_22  and  O_23
REMARK                            x       y       z     vdW  Elec       q    Type
REMARK                         _______ _______ _______ _____ _____    ______ ____
ROOT
ATOM      1  C   UNL     1       5.881   5.999  17.513  0.00  0.00    +0.000 A 
ATOM      2  C   UNL     1       4.789   6.844  17.785  0.00  0.00    +0.000 A 
ATOM      3  C   UNL     1       3.618   6.410  18.454  0.00  0.00    +0.000 A 
ATOM      4  C   UNL     1       3.562   5.027  18.831  0.00  0.00    +0.000 A 
ATOM      5  C   UNL     1       4.665   4.168  18.549  0.00  0.00    +0.000 A 
ATOM      6  I   UNL     1       4.615   2.023  18.753  0.00  0.00    +0.000 I 
ATOM      7  C   UNL     1       5.823   4.672  17.926  0.00  0.00    +0.000 A 
ENDROOT
BRANCH   3   8
ATOM      8  C   UNL     1       2.576   7.454  18.739  0.00  0.00    +0.000 A 
ATOM      9  C   UNL     1       2.061   7.634  20.043  0.00  0.00    +0.000 A 
ATOM     10  C   UNL     1       1.153   8.656  20.344  0.00  0.00    +0.000 A 
ATOM     11  C   UNL     1       0.772   9.544  19.352  0.00  0.00    +0.000 A 
ATOM     12  F   UNL     1      -0.030  10.572  19.653  0.00  0.00    +0.000 F 
ATOM     13  C   UNL     1       1.218   9.376  18.051  0.00  0.00    +0.000 A 
ATOM     14  C   UNL     1       2.064   8.306  17.740  0.00  0.00    +0.000 A 
ENDBRANCH   3   8
BRANCH   4  15
ATOM     15  N   UNL     1       2.401   4.496  19.485  0.00  0.00    +0.000 N 
ATOM     16  C   UNL     1       1.281   3.981  18.855  0.00  0.00    +0.000 A 
ATOM     17  C   UNL     1       0.420   3.471  19.803  0.00  0.00    +0.000 A 
ATOM     18  C   UNL     1       1.038   3.637  21.057  0.00  0.00    +0.000 A 
ATOM     19  C   UNL     1       2.225   4.306  20.841  0.00  0.00    +0.000 A 
ENDBRANCH   4  15
BRANCH   1  21
ATOM     20  O   UNL     1       7.524   7.645  17.038  0.00  0.00    +0.000 OA
ATOM     21  C   UNL     1       7.013   6.574  16.744  0.00  0.00    +0.000 C 
BRANCH  21  22
ATOM     22  O   UNL     1       7.462   5.804  15.732  0.00  0.00    +0.000 OA
ATOM     23  H   UNL     1       6.814   5.110  15.476  0.00  0.00    +0.000 HD
ENDBRANCH  21  22
ENDBRANCH   1  21
BRANCH   7  24
ATOM     24  O   UNL     1       6.925   3.877  17.698  0.00  0.00    +0.000 OA
ATOM     25  H   UNL     1       7.441   3.841  18.530  0.00  0.00    +0.000 HD
ENDBRANCH   7  24
TORSDOF 5
ENDMDL
MODEL 2
REMARK VINA RESULT:      -7.2      1.156      1.630
REMARK  Name = 
REMARK  5 active torsions:
REMARK  status: ('A' for Active; 'I' for Inactive)
REMARK    1  A    between atoms: C_2  and  O_3
REMARK    2  A    between atoms: C_2  and  C_4
REMARK    3  A    between atoms: C_6  and  C_7
REMARK    4  A    between atoms: C_14  and  N_15
REMARK    5  A    between atoms: C_22  and  O_23
REMARK                            x       y       z     vdW  Elec       q    Type
REMARK                         _______ _______ _______ _____ _____    ______ ____
ROOT
ATOM      1  C   UNL     1       4.985   5.440  16.522  0.00  0.00    +0.000 A 
ATOM      2  C   UNL     1       4.154   6.356  17.195  0.00  0.00    +0.000 A 
ATOM      3  C   UNL     1       3.296   5.988  18.261  0.00  0.00    +0.000 A 
ATOM      4  C   UNL     1       3.274   4.601  18.626  0.00  0.00    +0.000 A 
ATOM      5  C   UNL     1       4.110   3.671  17.940  0.00  0.00    +0.000 A 
ATOM      6  I   UNL     1       3.963   1.531  18.140  0.00  0.00    +0.000 I 
ATOM      7  C   UNL     1       4.979   4.108  16.921  0.00  0.00    +0.000 A 
ENDROOT
BRANCH   3   8
ATOM      8  C   UNL     1       2.534   7.097  18.927  0.00  0.00    +0.000 A 
ATOM      9  C   UNL     1       2.113   8.234  18.199  0.00  0.00    +0.000 A 
ATOM     10  C   UNL     1       1.331   9.236  18.783  0.00  0.00    +0.000 A 
ATOM     11  C   UNL     1       0.920   9.103  20.099  0.00  0.00    +0.000 A 
ATOM     12  F   UNL     1       0.102  10.016  20.635  0.00  0.00    +0.000 F 
ATOM     13  C   UNL     1       1.346   8.028  20.861  0.00  0.00    +0.000 A 
ATOM     14  C   UNL     1       2.192   7.068  20.295  0.00  0.00    +0.000 A 
ENDBRANCH   3   8
BRANCH   4  15
ATOM     15  N   UNL     1       2.411   4.137  19.674  0.00  0.00    +0.000 N 
ATOM     16  C   UNL     1       1.093   3.742  19.522  0.00  0.00    +0.000 A 
ATOM     17  C   UNL     1       0.621   3.262  20.725  0.00  0.00    +0.000 A 
ATOM     18  C   UNL     1       1.687   3.322  21.643  0.00  0.00    +0.000 A 
ATOM     19  C   UNL     1       2.755   3.902  20.990  0.00  0.00    +0.000 A 
ENDBRANCH   4  15
BRANCH   1  21
ATOM     20  O   UNL     1       6.871   5.487  15.081  0.00  0.00    +0.000 OA
ATOM     21  C   UNL     1       5.781   5.954  15.379  0.00  0.00    +0.000 C 
BRANCH  21  22
ATOM     22  O   UNL     1       5.189   6.937  14.671  0.00  0.00    +0.000 OA
ATOM     23  H   UNL     1       5.145   7.782  15.172  0.00  0.00    +0.000 HD
ENDBRANCH  21  22
ENDBRANCH   1  21
BRANCH   7  24
ATOM     24  O   UNL     1       5.839   3.240  16.285  0.00  0.00    +0.000 OA
ATOM     25  H   UNL     1       5.408   2.361  16.261  0.00  0.00    +0.000 HD
ENDBRANCH   7  24
TORSDOF 5
ENDMDL
MODEL 3
REMARK VINA RESULT:      -7.1      1.145      1.273
REMARK  Name = 
REMARK  5 active torsions:
REMARK  status: ('A' for Active; 'I' for Inactive)
REMARK    1  A    between atoms: C_2  and  O_3
REMARK    2  A    between atoms: C_2  and  C_4
REMARK    3  A    between atoms: C_6  and  C_7
REMARK    4  A    between atoms: C_14  and  N_15
REMARK    5  A    between atoms: C_22  and  O_23
REMARK                            x       y       z     vdW  Elec       q    Type
REMARK                         _______ _______ _______ _____ _____    ______ ____
ROOT
ATOM      1  C   UNL     1       4.990   5.432  16.519  0.00  0.00    +0.000 A 
ATOM      2  C   UNL     1       4.117   6.338  17.151  0.00  0.00    +0.000 A 
ATOM      3  C   UNL     1       3.240   5.968  18.200  0.00  0.00    +0.000 A 
ATOM      4  C   UNL     1       3.243   4.588  18.592  0.00  0.00    +0.000 A 
ATOM      5  C   UNL     1       4.121   3.668  17.947  0.00  0.00    +0.000 A 
ATOM      6  I   UNL     1       4.024   1.529  18.187  0.00  0.00    +0.000 I 
ATOM      7  C   UNL     1       5.007   4.107  16.944  0.00  0.00    +0.000 A 
ENDROOT
BRANCH   3   8
ATOM      8  C   UNL     1       2.430   7.070  18.823  0.00  0.00    +0.000 A 
ATOM      9  C   UNL     1       2.124   7.059  20.203  0.00  0.00    +0.000 A 
ATOM     10  C   UNL     1       1.444   8.118  20.817  0.00  0.00    +0.000 A 
ATOM     11  C   UNL     1       1.090   9.227  20.067  0.00  0.00    +0.000 A 
ATOM     12  F   UNL     1       0.515  10.277  20.666  0.00  0.00    +0.000 F 
ATOM     13  C   UNL     1       1.331   9.259  18.704  0.00  0.00    +0.000 A 
ATOM     14  C   UNL     1       1.942   8.164  18.081  0.00  0.00    +0.000 A 
ENDBRANCH   3   8
BRANCH   4  15
ATOM     15  N   UNL     1       2.364   4.122  19.625  0.00  0.00    +0.000 N 
ATOM     16  C   UNL     1       1.065   3.678  19.444  0.00  0.00    +0.000 A 
ATOM     17  C   UNL     1       0.572   3.213  20.644  0.00  0.00    +0.000 A 
ATOM     18  C   UNL     1       1.606   3.334  21.593  0.00  0.00    +0.000 A 
ATOM     19  C   UNL     1       2.673   3.933  20.957  0.00  0.00    +0.000 A 
ENDBRANCH   4  15
BRANCH   1  21
ATOM     20  O   UNL     1       6.897   5.476  15.107  0.00  0.00    +0.000 OA
ATOM     21  C   UNL     1       5.803   5.944  15.388  0.00  0.00    +0.000 C 
BRANCH  21  22
ATOM     22  O   UNL     1       5.223   6.928  14.671  0.00  0.00    +0.000 OA
ATOM     23  H   UNL     1       5.846   7.337  14.030  0.00  0.00    +0.000 HD
ENDBRANCH  21  22
ENDBRANCH   1  21
BRANCH   7  24
ATOM     24  O   UNL     1       5.906   3.251  16.350  0.00  0.00    +0.000 OA
ATOM     25  H   UNL     1       6.688   3.188  16.937  0.00  0.00    +0.000 HD
ENDBRANCH   7  24
TORSDOF 5
ENDMDL
MODEL 4
REMARK VINA RESULT:      -7.0      0.251      1.227
REMARK  Name = 
REMARK  5 active torsions:
REMARK  status: ('A' for Active; 'I' for Inactive)
REMARK    1  A    between atoms: C_2  and  O_3
REMARK    2  A    between atoms: C_2  and  C_4
REMARK    3  A    between atoms: C_6  and  C_7
REMARK    4  A    between atoms: C_14  and  N_15
REMARK    5  A    between atoms: C_22  and  O_23
REMARK                            x       y       z     vdW  Elec       q    Type
REMARK                         _______ _______ _______ _____ _____    ______ ____
ROOT
ATOM      1  C   UNL     1       5.813   5.946  17.273  0.00  0.00    +0.000 A 
ATOM      2  C   UNL     1       4.777   6.822  17.650  0.00  0.00    +0.000 A 
ATOM      3  C   UNL     1       3.619   6.401  18.349  0.00  0.00    +0.000 A 
ATOM      4  C   UNL     1       3.513   5.001  18.644  0.00  0.00    +0.000 A 
ATOM      5  C   UNL     1       4.558   4.112  18.257  0.00  0.00    +0.000 A 
ATOM      6  I   UNL     1       4.412   1.963  18.334  0.00  0.00    +0.000 I 
ATOM      7  C   UNL     1       5.709   4.600  17.608  0.00  0.00    +0.000 A 
ENDROOT
BRANCH   3   8
ATOM      8  C   UNL     1       2.644   7.472  18.748  0.00  0.00    +0.000 A 
ATOM      9  C   UNL     1       2.170   8.414  17.806  0.00  0.00    +0.000 A 
ATOM     10  C   UNL     1       1.199   9.366  18.139  0.00  0.00    +0.000 A 
ATOM     11  C   UNL     1       0.655   9.369  19.413  0.00  0.00    +0.000 A 
ATOM     12  F   UNL     1      -0.333  10.222  19.711  0.00  0.00    +0.000 F 
ATOM     13  C   UNL     1       1.124   8.494  20.378  0.00  0.00    +0.000 A 
ATOM     14  C   UNL     1       2.149   7.596  20.062  0.00  0.00    +0.000 A 
ENDBRANCH   3   8
BRANCH   4  15
ATOM     15  N   UNL     1       2.359   4.485  19.322  0.00  0.00    +0.000 N 
ATOM     16  C   UNL     1       1.218   3.989  18.716  0.00  0.00    +0.000 A 
ATOM     17  C   UNL     1       0.371   3.488  19.681  0.00  0.00    +0.000 A 
ATOM     18  C   UNL     1       1.019   3.640  20.922  0.00  0.00    +0.000 A 
ATOM     19  C   UNL     1       2.211   4.292  20.681  0.00  0.00    +0.000 A 
ENDBRANCH   4  15
BRANCH   1  21
ATOM     20  O   UNL     1       7.392   5.951  15.501  0.00  0.00    +0.000 OA
ATOM     21  C   UNL     1       6.934   6.514  16.484  0.00  0.00    +0.000 C 
BRANCH  21  22
ATOM     22  O   UNL     1       7.374   7.717  16.907  0.00  0.00    +0.000 OA
ATOM     23  H   UNL     1       7.838   7.661  17.771  0.00  0.00    +0.000 HD
ENDBRANCH  21  22
ENDBRANCH   1  21
BRANCH   7  24
ATOM     24  O   UNL     1       6.758   3.770  17.278  0.00  0.00    +0.000 OA
ATOM     25  H   UNL     1       6.630   3.486  16.349  0.00  0.00    +0.000 HD
ENDBRANCH   7  24
TORSDOF 5
ENDMDL
MODEL 5
REMARK VINA RESULT:      -6.5      0.388      1.320
REMARK  Name = 
REMARK  5 active torsions:
REMARK  status: ('A' for Active; 'I' for Inactive)
REMARK    1  A    between atoms: C_2  and  O_3
REMARK    2  A    between atoms: C_2  and  C_4
REMARK    3  A    between atoms: C_6  and  C_7
REMARK    4  A    between atoms: C_14  and  N_15
REMARK    5  A    between atoms: C_22  and  O_23
REMARK                            x       y       z     vdW  Elec       q    Type
REMARK                         _______ _______ _______ _____ _____    ______ ____
ROOT
ATOM      1  C   UNL     1       5.804   5.917  17.211  0.00  0.00    +0.000 A 
ATOM      2  C   UNL     1       4.777   6.766  17.666  0.00  0.00    +0.000 A 
ATOM      3  C   UNL     1       3.646   6.303  18.384  0.00  0.00    +0.000 A 
ATOM      4  C   UNL     1       3.560   4.890  18.614  0.00  0.00    +0.000 A 
ATOM      5  C   UNL     1       4.596   4.028  18.149  0.00  0.00    +0.000 A 
ATOM      6  I   UNL     1       4.466   1.877  18.128  0.00  0.00    +0.000 I 
ATOM      7  C   UNL     1       5.720   4.555  17.484  0.00  0.00    +0.000 A 
ENDROOT
BRANCH   3   8
ATOM      8  C   UNL     1       2.680   7.346  18.867  0.00  0.00    +0.000 A 
ATOM      9  C   UNL     1       2.186   8.344  17.996  0.00  0.00    +0.000 A 
ATOM     10  C   UNL     1       1.222   9.272  18.406  0.00  0.00    +0.000 A 
ATOM     11  C   UNL     1       0.704   9.196  19.688  0.00  0.00    +0.000 A 
ATOM     12  F   UNL     1      -0.278  10.027  20.058  0.00  0.00    +0.000 F 
ATOM     13  C   UNL     1       1.192   8.263  20.588  0.00  0.00    +0.000 A 
ATOM     14  C   UNL     1       2.211   7.388  20.196  0.00  0.00    +0.000 A 
ENDBRANCH   3   8
BRANCH   4  15
ATOM     15  N   UNL     1       2.433   4.333  19.307  0.00  0.00    +0.000 N 
ATOM     16  C   UNL     1       2.347   4.119  20.672  0.00  0.00    +0.000 A 
ATOM     17  C   UNL     1       1.081   3.671  20.983  0.00  0.00    +0.000 A 
ATOM     18  C   UNL     1       0.344   3.642  19.783  0.00  0.00    +0.000 A 
ATOM     19  C   UNL     1       1.205   4.006  18.768  0.00  0.00    +0.000 A 
ENDBRANCH   4  15
BRANCH   1  21
ATOM     20  O   UNL     1       7.461   7.556  16.763  0.00  0.00    +0.000 OA
ATOM     21  C   UNL     1       6.894   6.531  16.412  0.00  0.00    +0.000 C 
BRANCH  21  22
ATOM     22  O   UNL     1       7.239   5.849  15.302  0.00  0.00    +0.000 OA
ATOM     23  H   UNL     1       7.443   4.906  15.494  0.00  0.00    +0.000 HD
ENDBRANCH  21  22
ENDBRANCH   1  21
BRANCH   7  24
ATOM     24  O   UNL     1       6.762   3.751  17.079  0.00  0.00    +0.000 OA
ATOM     25  H   UNL     1       6.595   3.499  16.147  0.00  0.00    +0.000 HD
ENDBRANCH   7  24
TORSDOF 5
ENDMDL
MODEL 6
REMARK VINA RESULT:      -6.1      8.914     11.006
REMARK  Name = 
REMARK  5 active torsions:
REMARK  status: ('A' for Active; 'I' for Inactive)
REMARK    1  A    between atoms: C_2  and  O_3
REMARK    2  A    between atoms: C_2  and  C_4
REMARK    3  A    between atoms: C_6  and  C_7
REMARK    4  A    between atoms: C_14  and  N_15
REMARK    5  A    between atoms: C_22  and  O_23
REMARK                            x       y       z     vdW  Elec       q    Type
REMARK                         _______ _______ _______ _____ _____    ______ ____
ROOT
ATOM      1  C   UNL     1      -5.361  12.452  21.048  0.00  0.00    +0.000 A 
ATOM      2  C   UNL     1      -5.000  11.933  19.789  0.00  0.00    +0.000 A 
ATOM      3  C   UNL     1      -3.670  11.933  19.301  0.00  0.00    +0.000 A 
ATOM      4  C   UNL     1      -2.671  12.526  20.142  0.00  0.00    +0.000 A 
ATOM      5  C   UNL     1      -3.036  13.058  21.414  0.00  0.00    +0.000 A 
ATOM      6  I   UNL     1      -1.736  14.257  22.645  0.00  0.00    +0.000 I 
ATOM      7  C   UNL     1      -4.368  12.983  21.865  0.00  0.00    +0.000 A 
ENDROOT
BRANCH   3   8
ATOM      8  C   UNL     1      -3.438  11.271  17.973  0.00  0.00    +0.000 A 
ATOM      9  C   UNL     1      -4.206  11.622  16.839  0.00  0.00    +0.000 A 
ATOM     10  C   UNL     1      -3.949  11.077  15.576  0.00  0.00    +0.000 A 
ATOM     11  C   UNL     1      -2.891  10.196  15.415  0.00  0.00    +0.000 A 
ATOM     12  F   UNL     1      -2.589   9.737  14.194  0.00  0.00    +0.000 F 
ATOM     13  C   UNL     1      -2.143   9.791  16.508  0.00  0.00    +0.000 A 
ATOM     14  C   UNL     1      -2.454  10.280  17.781  0.00  0.00    +0.000 A 
ENDBRANCH   3   8
BRANCH   4  15
ATOM     15  N   UNL     1      -1.304  12.595  19.712  0.00  0.00    +0.000 N 
ATOM     16  C   UNL     1      -0.300  11.708  20.059  0.00  0.00    +0.000 A 
ATOM     17  C   UNL     1       0.851  12.032  19.374  0.00  0.00    +0.000 A 
ATOM     18  C   UNL     1       0.546  13.129  18.546  0.00  0.00    +0.000 A 
ATOM     19  C   UNL     1      -0.762  13.483  18.804  0.00  0.00    +0.000 A 
ENDBRANCH   4  15
BRANCH   1  21
ATOM     20  O   UNL     1      -7.227  11.897  22.406  0.00  0.00    +0.000 OA
ATOM     21  C   UNL     1      -6.803  12.448  21.400  0.00  0.00    +0.000 C 
BRANCH  21  22
ATOM     22  O   UNL     1      -7.596  13.135  20.554  0.00  0.00    +0.000 OA
ATOM     23  H   UNL     1      -7.104  13.470  19.772  0.00  0.00    +0.000 HD
ENDBRANCH  21  22
ENDBRANCH   1  21
BRANCH   7  24
ATOM     24  O   UNL     1      -4.734  13.435  23.114  0.00  0.00    +0.000 OA
ATOM     25  H   UNL     1      -5.028  12.659  23.634  0.00  0.00    +0.000 HD
ENDBRANCH   7  24
TORSDOF 5
ENDMDL
MODEL 7
REMARK VINA RESULT:      -6.0      8.141     10.715
REMARK  Name = 
REMARK  5 active torsions:
REMARK  status: ('A' for Active; 'I' for Inactive)
REMARK    1  A    between atoms: C_2  and  O_3
REMARK    2  A    between atoms: C_2  and  C_4
REMARK    3  A    between atoms: C_6  and  C_7
REMARK    4  A    between atoms: C_14  and  N_15
REMARK    5  A    between atoms: C_22  and  O_23
REMARK                            x       y       z     vdW  Elec       q    Type
REMARK                         _______ _______ _______ _____ _____    ______ ____
ROOT
ATOM      1  C   UNL     1      -5.614  12.134  19.113  0.00  0.00    +0.000 A 
ATOM      2  C   UNL     1      -4.810  12.564  20.185  0.00  0.00    +0.000 A 
ATOM      3  C   UNL     1      -3.394  12.547  20.150  0.00  0.00    +0.000 A 
ATOM      4  C   UNL     1      -2.781  12.029  18.961  0.00  0.00    +0.000 A 
ATOM      5  C   UNL     1      -3.595  11.586  17.877  0.00  0.00    +0.000 A 
ATOM      6  I   UNL     1      -2.854  10.497  16.171  0.00  0.00    +0.000 I 
ATOM      7  C   UNL     1      -4.998  11.676  17.952  0.00  0.00    +0.000 A 
ENDROOT
BRANCH   3   8
ATOM      8  C   UNL     1      -2.682  13.114  21.345  0.00  0.00    +0.000 A 
ATOM      9  C   UNL     1      -2.553  14.511  21.523  0.00  0.00    +0.000 A 
ATOM     10  C   UNL     1      -1.968  15.058  22.670  0.00  0.00    +0.000 A 
ATOM     11  C   UNL     1      -1.533  14.218  23.682  0.00  0.00    +0.000 A 
ATOM     12  F   UNL     1      -1.050  14.739  24.816  0.00  0.00    +0.000 F 
ATOM     13  C   UNL     1      -1.599  12.843  23.529  0.00  0.00    +0.000 A 
ATOM     14  C   UNL     1      -2.114  12.301  22.347  0.00  0.00    +0.000 A 
ENDBRANCH   3   8
BRANCH   4  15
ATOM     15  N   UNL     1      -1.353  11.947  18.853  0.00  0.00    +0.000 N 
ATOM     16  C   UNL     1      -0.515  12.956  18.410  0.00  0.00    +0.000 A 
ATOM     17  C   UNL     1       0.796  12.552  18.545  0.00  0.00    +0.000 A 
ATOM     18  C   UNL     1       0.776  11.268  19.125  0.00  0.00    +0.000 A 
ATOM     19  C   UNL     1      -0.547  10.903  19.262  0.00  0.00    +0.000 A 
ENDBRANCH   4  15
BRANCH   1  21
ATOM     20  O   UNL     1      -7.735  13.180  19.320  0.00  0.00    +0.000 OA
ATOM     21  C   UNL     1      -7.085  12.144  19.315  0.00  0.00    +0.000 C 
BRANCH  21  22
ATOM     22  O   UNL     1      -7.650  10.927  19.445  0.00  0.00    +0.000 OA
ATOM     23  H   UNL     1      -7.364  10.470  20.267  0.00  0.00    +0.000 HD
ENDBRANCH  21  22
ENDBRANCH   1  21
BRANCH   7  24
ATOM     24  O   UNL     1      -5.803  11.312  16.896  0.00  0.00    +0.000 OA
ATOM     25  H   UNL     1      -6.604  11.875  16.926  0.00  0.00    +0.000 HD
ENDBRANCH   7  24
TORSDOF 5
ENDMDL
MODEL 8
REMARK VINA RESULT:      -5.8      8.185     10.707
REMARK  Name = 
REMARK  5 active torsions:
REMARK  status: ('A' for Active; 'I' for Inactive)
REMARK    1  A    between atoms: C_2  and  O_3
REMARK    2  A    between atoms: C_2  and  C_4
REMARK    3  A    between atoms: C_6  and  C_7
REMARK    4  A    between atoms: C_14  and  N_15
REMARK    5  A    between atoms: C_22  and  O_23
REMARK                            x       y       z     vdW  Elec       q    Type
REMARK                         _______ _______ _______ _____ _____    ______ ____
ROOT
ATOM      1  C   UNL     1      -5.644  12.100  19.084  0.00  0.00    +0.000 A 
ATOM      2  C   UNL     1      -4.900  12.617  20.163  0.00  0.00    +0.000 A 
ATOM      3  C   UNL     1      -3.484  12.632  20.194  0.00  0.00    +0.000 A 
ATOM      4  C   UNL     1      -2.805  12.056  19.069  0.00  0.00    +0.000 A 
ATOM      5  C   UNL     1      -3.556  11.526  17.980  0.00  0.00    +0.000 A 
ATOM      6  I   UNL     1      -2.713  10.350  16.383  0.00  0.00    +0.000 I 
ATOM      7  C   UNL     1      -4.964  11.586  17.985  0.00  0.00    +0.000 A 
ENDROOT
BRANCH   3   8
ATOM      8  C   UNL     1      -2.842  13.292  21.381  0.00  0.00    +0.000 A 
ATOM      9  C   UNL     1      -2.452  12.538  22.512  0.00  0.00    +0.000 A 
ATOM     10  C   UNL     1      -1.777  13.121  23.591  0.00  0.00    +0.000 A 
ATOM     11  C   UNL     1      -1.445  14.465  23.542  0.00  0.00    +0.000 A 
ATOM     12  F   UNL     1      -0.726  15.007  24.533  0.00  0.00    +0.000 F 
ATOM     13  C   UNL     1      -1.847  15.249  22.474  0.00  0.00    +0.000 A 
ATOM     14  C   UNL     1      -2.588  14.678  21.434  0.00  0.00    +0.000 A 
ENDBRANCH   3   8
BRANCH   4  15
ATOM     15  N   UNL     1      -1.372  12.003  19.033  0.00  0.00    +0.000 N 
ATOM     16  C   UNL     1      -0.540  12.958  18.475  0.00  0.00    +0.000 A 
ATOM     17  C   UNL     1       0.773  12.619  18.722  0.00  0.00    +0.000 A 
ATOM     18  C   UNL     1       0.759  11.438  19.490  0.00  0.00    +0.000 A 
ATOM     19  C   UNL     1      -0.560  11.058  19.628  0.00  0.00    +0.000 A 
ENDBRANCH   4  15
BRANCH   1  21
ATOM     20  O   UNL     1      -7.796  13.100  19.099  0.00  0.00    +0.000 OA
ATOM     21  C   UNL     1      -7.122  12.087  19.218  0.00  0.00    +0.000 C 
BRANCH  21  22
ATOM     22  O   UNL     1      -7.663  10.871  19.433  0.00  0.00    +0.000 OA
ATOM     23  H   UNL     1      -8.117  10.814  20.303  0.00  0.00    +0.000 HD
ENDBRANCH  21  22
ENDBRANCH   1  21
BRANCH   7  24
ATOM     24  O   UNL     1      -5.710  11.135  16.918  0.00  0.00    +0.000 OA
ATOM     25  H   UNL     1      -6.522  10.724  17.278  0.00  0.00    +0.000 HD
ENDBRANCH   7  24
TORSDOF 5
ENDMDL
MODEL 9
REMARK VINA RESULT:      -5.8      8.821     11.429
REMARK  Name = 
REMARK  5 active torsions:
REMARK  status: ('A' for Active; 'I' for Inactive)
REMARK    1  A    between atoms: C_2  and  O_3
REMARK    2  A    between atoms: C_2  and  C_4
REMARK    3  A    between atoms: C_6  and  C_7
REMARK    4  A    between atoms: C_14  and  N_15
REMARK    5  A    between atoms: C_22  and  O_23
REMARK                            x       y       z     vdW  Elec       q    Type
REMARK                         _______ _______ _______ _____ _____    ______ ____
ROOT
ATOM      1  C   UNL     1      -3.595  13.075  23.813  0.00  0.00    +0.000 A 
ATOM      2  C   UNL     1      -3.108  12.366  22.698  0.00  0.00    +0.000 A 
ATOM      3  C   UNL     1      -2.026  12.818  21.902  0.00  0.00    +0.000 A 
ATOM      4  C   UNL     1      -1.441  14.078  22.260  0.00  0.00    +0.000 A 
ATOM      5  C   UNL     1      -1.937  14.799  23.385  0.00  0.00    +0.000 A 
ATOM      6  I   UNL     1      -1.394  16.830  23.859  0.00  0.00    +0.000 I 
ATOM      7  C   UNL     1      -2.983  14.273  24.167  0.00  0.00    +0.000 A 
ENDROOT
BRANCH   3   8
ATOM      8  C   UNL     1      -1.576  11.908  20.795  0.00  0.00    +0.000 A 
ATOM      9  C   UNL     1      -2.112  12.024  19.492  0.00  0.00    +0.000 A 
ATOM     10  C   UNL     1      -1.645  11.242  18.430  0.00  0.00    +0.000 A 
ATOM     11  C   UNL     1      -0.604  10.353  18.642  0.00  0.00    +0.000 A 
ATOM     12  F   UNL     1      -0.098   9.664  17.612  0.00  0.00    +0.000 F 
ATOM     13  C   UNL     1      -0.081  10.176  19.912  0.00  0.00    +0.000 A 
ATOM     14  C   UNL     1      -0.604  10.904  20.986  0.00  0.00    +0.000 A 
ENDBRANCH   3   8
BRANCH   4  15
ATOM     15  N   UNL     1      -0.361  14.624  21.489  0.00  0.00    +0.000 N 
ATOM     16  C   UNL     1       0.988  14.430  21.735  0.00  0.00    +0.000 A 
ATOM     17  C   UNL     1       1.723  15.018  20.728  0.00  0.00    +0.000 A 
ATOM     18  C   UNL     1       0.806  15.561  19.808  0.00  0.00    +0.000 A 
ATOM     19  C   UNL     1      -0.458  15.347  20.317  0.00  0.00    +0.000 A 
ENDBRANCH   4  15
BRANCH   1  21
ATOM     20  O   UNL     1      -5.803  12.210  23.919  0.00  0.00    +0.000 OA
ATOM     21  C   UNL     1      -4.779  12.516  24.513  0.00  0.00    +0.000 C 
BRANCH  21  22
ATOM     22  O   UNL     1      -4.619  12.327  25.838  0.00  0.00    +0.000 OA
ATOM     23  H   UNL     1      -5.401  11.895  26.249  0.00  0.00    +0.000 HD
ENDBRANCH  21  22
ENDBRANCH   1  21
BRANCH   7  24
ATOM     24  O   UNL     1      -3.439  14.921  25.294  0.00  0.00    +0.000 OA
ATOM     25  H   UNL     1      -3.695  15.829  25.029  0.00  0.00    +0.000 HD
ENDBRANCH   7  24
TORSDOF 5
ENDMDL
