MODEL 1
REMARK VINA RESULT:      -5.1      0.000      0.000
REMARK  Name = 
REMARK  6 active torsions:
REMARK  status: ('A' for Active; 'I' for Inactive)
REMARK    1  A    between atoms: C_1  and  N_2
REMARK    2  A    between atoms: N_2  and  C_3
REMARK    3  A    between atoms: C_3  and  C_4
REMARK    4  A    between atoms: C_4  and  C_5
REMARK    5  A    between atoms: C_10  and  O_11
REMARK    6  A    between atoms: O_11  and  C_12
REMARK                            x       y       z     vdW  Elec       q    Type
REMARK                         _______ _______ _______ _____ _____    ______ ____
ROOT
ATOM      1  C   UNL     1       4.646   4.897  16.869  0.00  0.00    +0.000 A 
ATOM      2  C   UNL     1       4.666   6.308  16.854  0.00  0.00    +0.000 A 
ATOM      3  C   UNL     1       3.712   7.063  17.539  0.00  0.00    +0.000 A 
ATOM      4  C   UNL     1       2.707   6.418  18.243  0.00  0.00    +0.000 A 
ATOM      5  C   UNL     1       2.665   5.024  18.265  0.00  0.00    +0.000 A 
ATOM      6  C   UNL     1       3.620   4.251  17.580  0.00  0.00    +0.000 A 
ENDROOT
BRANCH   6   7
ATOM      7  O   UNL     1       3.481   2.910  17.815  0.00  0.00    +0.000 OA
ATOM      8  C   UNL     1       2.169   2.389  17.983  0.00  0.00    +0.000 C 
ENDBRANCH   6   7
BRANCH   1   9
ATOM      9  C   UNL     1       5.778   4.204  16.146  0.00  0.00    +0.000 C 
BRANCH   9  10
ATOM     10  C   UNL     1       7.156   4.643  16.668  0.00  0.00    +0.000 C 
BRANCH  10  12
ATOM     11  C   UNL     1       7.737   5.515  18.836  0.00  0.00    +0.000 C 
ATOM     12  N   UNL     1       7.282   4.341  18.097  0.00  0.00    +0.000 NA
ATOM     13  H   UNL     1       6.376   4.050  18.462  0.00  0.00    +0.000 HD
ENDBRANCH  10  12
ENDBRANCH   9  10
ENDBRANCH   1   9
TORSDOF 4
ENDMDL
MODEL 2
REMARK VINA RESULT:      -5.1      1.298      1.789
REMARK  Name = 
REMARK  6 active torsions:
REMARK  status: ('A' for Active; 'I' for Inactive)
REMARK    1  A    between atoms: C_1  and  N_2
REMARK    2  A    between atoms: N_2  and  C_3
REMARK    3  A    between atoms: C_3  and  C_4
REMARK    4  A    between atoms: C_4  and  C_5
REMARK    5  A    between atoms: C_10  and  O_11
REMARK    6  A    between atoms: O_11  and  C_12
REMARK                            x       y       z     vdW  Elec       q    Type
REMARK                         _______ _______ _______ _____ _____    ______ ____
ROOT
ATOM      1  C   UNL     1       4.460   4.713  16.976  0.00  0.00    +0.000 A 
ATOM      2  C   UNL     1       4.560   6.110  17.151  0.00  0.00    +0.000 A 
ATOM      3  C   UNL     1       3.575   6.840  17.818  0.00  0.00    +0.000 A 
ATOM      4  C   UNL     1       2.458   6.184  18.314  0.00  0.00    +0.000 A 
ATOM      5  C   UNL     1       2.335   4.806  18.147  0.00  0.00    +0.000 A 
ATOM      6  C   UNL     1       3.321   4.058  17.477  0.00  0.00    +0.000 A 
ENDROOT
BRANCH   6   7
ATOM      7  O   UNL     1       3.080   2.712  17.515  0.00  0.00    +0.000 OA
ATOM      8  C   UNL     1       3.291   2.025  18.741  0.00  0.00    +0.000 C 
ENDBRANCH   6   7
BRANCH   1   9
ATOM      9  C   UNL     1       5.629   4.037  16.300  0.00  0.00    +0.000 C 
BRANCH   9  10
ATOM     10  C   UNL     1       6.920   4.866  16.404  0.00  0.00    +0.000 C 
BRANCH  10  12
ATOM     11  C   UNL     1       6.650   4.507  14.038  0.00  0.00    +0.000 C 
ATOM     12  N   UNL     1       7.436   5.180  15.068  0.00  0.00    +0.000 NA
ATOM     13  H   UNL     1       7.388   6.188  14.917  0.00  0.00    +0.000 HD
ENDBRANCH  10  12
ENDBRANCH   9  10
ENDBRANCH   1   9
TORSDOF 4
ENDMDL
MODEL 3
REMARK VINA RESULT:      -5.0      2.601      3.945
REMARK  Name = 
REMARK  6 active torsions:
REMARK  status: ('A' for Active; 'I' for Inactive)
REMARK    1  A    between atoms: C_1  and  N_2
REMARK    2  A    between atoms: N_2  and  C_3
REMARK    3  A    between atoms: C_3  and  C_4
REMARK    4  A    between atoms: C_4  and  C_5
REMARK    5  A    between atoms: C_10  and  O_11
REMARK    6  A    between atoms: O_11  and  C_12
REMARK                            x       y       z     vdW  Elec       q    Type
REMARK                         _______ _______ _______ _____ _____    ______ ____
ROOT
ATOM      1  C   UNL     1       5.433   4.871  16.587  0.00  0.00    +0.000 A 
ATOM      2  C   UNL     1       4.304   4.088  16.911  0.00  0.00    +0.000 A 
ATOM      3  C   UNL     1       3.186   4.635  17.542  0.00  0.00    +0.000 A 
ATOM      4  C   UNL     1       3.181   5.981  17.876  0.00  0.00    +0.000 A 
ATOM      5  C   UNL     1       4.289   6.772  17.572  0.00  0.00    +0.000 A 
ATOM      6  C   UNL     1       5.422   6.233  16.936  0.00  0.00    +0.000 A 
ENDROOT
BRANCH   6   7
ATOM      7  O   UNL     1       6.352   7.185  16.618  0.00  0.00    +0.000 OA
ATOM      8  C   UNL     1       7.445   7.379  17.507  0.00  0.00    +0.000 C 
ENDBRANCH   6   7
BRANCH   1   9
ATOM      9  C   UNL     1       6.544   4.170  15.842  0.00  0.00    +0.000 C 
BRANCH   9  10
ATOM     10  C   UNL     1       6.538   4.503  14.341  0.00  0.00    +0.000 C 
BRANCH  10  12
ATOM     11  C   UNL     1       6.520   3.527  12.139  0.00  0.00    +0.000 C 
ATOM     12  N   UNL     1       6.224   3.308  13.552  0.00  0.00    +0.000 NA
ATOM     13  H   UNL     1       6.782   2.524  13.891  0.00  0.00    +0.000 HD
ENDBRANCH  10  12
ENDBRANCH   9  10
ENDBRANCH   1   9
TORSDOF 4
ENDMDL
MODEL 4
REMARK VINA RESULT:      -5.0      1.631      2.539
REMARK  Name = 
REMARK  6 active torsions:
REMARK  status: ('A' for Active; 'I' for Inactive)
REMARK    1  A    between atoms: C_1  and  N_2
REMARK    2  A    between atoms: N_2  and  C_3
REMARK    3  A    between atoms: C_3  and  C_4
REMARK    4  A    between atoms: C_4  and  C_5
REMARK    5  A    between atoms: C_10  and  O_11
REMARK    6  A    between atoms: O_11  and  C_12
REMARK                            x       y       z     vdW  Elec       q    Type
REMARK                         _______ _______ _______ _____ _____    ______ ____
ROOT
ATOM      1  C   UNL     1       3.084   5.006  18.650  0.00  0.00    +0.000 A 
ATOM      2  C   UNL     1       2.706   5.853  19.714  0.00  0.00    +0.000 A 
ATOM      3  C   UNL     1       1.715   5.488  20.626  0.00  0.00    +0.000 A 
ATOM      4  C   UNL     1       1.070   4.268  20.483  0.00  0.00    +0.000 A 
ATOM      5  C   UNL     1       1.424   3.419  19.435  0.00  0.00    +0.000 A 
ATOM      6  C   UNL     1       2.421   3.775  18.508  0.00  0.00    +0.000 A 
ENDROOT
BRANCH   6   7
ATOM      7  O   UNL     1       2.706   2.768  17.626  0.00  0.00    +0.000 OA
ATOM      8  C   UNL     1       3.507   1.684  18.079  0.00  0.00    +0.000 C 
ENDBRANCH   6   7
BRANCH   1   9
ATOM      9  C   UNL     1       4.219   5.492  17.779  0.00  0.00    +0.000 C 
BRANCH   9  10
ATOM     10  C   UNL     1       5.590   5.298  18.448  0.00  0.00    +0.000 C 
BRANCH  10  12
ATOM     11  C   UNL     1       6.988   4.543  16.639  0.00  0.00    +0.000 C 
ATOM     12  N   UNL     1       6.289   4.151  17.859  0.00  0.00    +0.000 NA
ATOM     13  H   UNL     1       6.967   3.790  18.529  0.00  0.00    +0.000 HD
ENDBRANCH  10  12
ENDBRANCH   9  10
ENDBRANCH   1   9
TORSDOF 4
ENDMDL
MODEL 5
REMARK VINA RESULT:      -5.0      2.909      3.423
REMARK  Name = 
REMARK  6 active torsions:
REMARK  status: ('A' for Active; 'I' for Inactive)
REMARK    1  A    between atoms: C_1  and  N_2
REMARK    2  A    between atoms: N_2  and  C_3
REMARK    3  A    between atoms: C_3  and  C_4
REMARK    4  A    between atoms: C_4  and  C_5
REMARK    5  A    between atoms: C_10  and  O_11
REMARK    6  A    between atoms: O_11  and  C_12
REMARK                            x       y       z     vdW  Elec       q    Type
REMARK                         _______ _______ _______ _____ _____    ______ ____
ROOT
ATOM      1  C   UNL     1       2.139   4.200  18.447  0.00  0.00    +0.000 A 
ATOM      2  C   UNL     1       2.753   5.401  18.030  0.00  0.00    +0.000 A 
ATOM      3  C   UNL     1       2.748   6.545  18.829  0.00  0.00    +0.000 A 
ATOM      4  C   UNL     1       2.114   6.514  20.062  0.00  0.00    +0.000 A 
ATOM      5  C   UNL     1       1.495   5.341  20.491  0.00  0.00    +0.000 A 
ATOM      6  C   UNL     1       1.492   4.180  19.696  0.00  0.00    +0.000 A 
ENDROOT
BRANCH   6   7
ATOM      7  O   UNL     1       0.939   3.104  20.333  0.00  0.00    +0.000 OA
ATOM      8  C   UNL     1       1.454   2.738  21.607  0.00  0.00    +0.000 C 
ENDBRANCH   6   7
BRANCH   1   9
ATOM      9  C   UNL     1       2.279   3.018  17.518  0.00  0.00    +0.000 C 
BRANCH   9  10
ATOM     10  C   UNL     1       3.122   1.890  18.134  0.00  0.00    +0.000 C 
BRANCH  10  12
ATOM     11  C   UNL     1       4.593   2.085  20.031  0.00  0.00    +0.000 C 
ATOM     12  N   UNL     1       4.402   2.416  18.622  0.00  0.00    +0.000 NA
ATOM     13  H   UNL     1       5.162   2.008  18.079  0.00  0.00    +0.000 HD
ENDBRANCH  10  12
ENDBRANCH   9  10
ENDBRANCH   1   9
TORSDOF 4
ENDMDL
MODEL 6
REMARK VINA RESULT:      -5.0      2.398      4.641
REMARK  Name = 
REMARK  6 active torsions:
REMARK  status: ('A' for Active; 'I' for Inactive)
REMARK    1  A    between atoms: C_1  and  N_2
REMARK    2  A    between atoms: N_2  and  C_3
REMARK    3  A    between atoms: C_3  and  C_4
REMARK    4  A    between atoms: C_4  and  C_5
REMARK    5  A    between atoms: C_10  and  O_11
REMARK    6  A    between atoms: O_11  and  C_12
REMARK                            x       y       z     vdW  Elec       q    Type
REMARK                         _______ _______ _______ _____ _____    ______ ____
ROOT
ATOM      1  C   UNL     1       4.921   4.291  17.621  0.00  0.00    +0.000 A 
ATOM      2  C   UNL     1       4.755   4.035  16.243  0.00  0.00    +0.000 A 
ATOM      3  C   UNL     1       5.823   4.109  15.348  0.00  0.00    +0.000 A 
ATOM      4  C   UNL     1       7.082   4.456  15.814  0.00  0.00    +0.000 A 
ATOM      5  C   UNL     1       7.267   4.720  17.170  0.00  0.00    +0.000 A 
ATOM      6  C   UNL     1       6.200   4.648  18.084  0.00  0.00    +0.000 A 
ENDROOT
BRANCH   6   7
ATOM      7  O   UNL     1       6.600   4.826  19.380  0.00  0.00    +0.000 OA
ATOM      8  C   UNL     1       7.675   5.720  19.635  0.00  0.00    +0.000 C 
ENDBRANCH   6   7
BRANCH   1   9
ATOM      9  C   UNL     1       3.699   4.106  18.489  0.00  0.00    +0.000 C 
BRANCH   9  10
ATOM     10  C   UNL     1       2.490   4.900  17.967  0.00  0.00    +0.000 C 
BRANCH  10  12
ATOM     11  C   UNL     1       1.461   2.778  18.455  0.00  0.00    +0.000 C 
ATOM     12  N   UNL     1       1.380   3.995  17.651  0.00  0.00    +0.000 NA
ATOM     13  H   UNL     1       0.496   4.464  17.846  0.00  0.00    +0.000 HD
ENDBRANCH  10  12
ENDBRANCH   9  10
ENDBRANCH   1   9
TORSDOF 4
ENDMDL
MODEL 7
REMARK VINA RESULT:      -5.0      1.359      1.359
REMARK  Name = 
REMARK  6 active torsions:
REMARK  status: ('A' for Active; 'I' for Inactive)
REMARK    1  A    between atoms: C_1  and  N_2
REMARK    2  A    between atoms: N_2  and  C_3
REMARK    3  A    between atoms: C_3  and  C_4
REMARK    4  A    between atoms: C_4  and  C_5
REMARK    5  A    between atoms: C_10  and  O_11
REMARK    6  A    between atoms: O_11  and  C_12
REMARK                            x       y       z     vdW  Elec       q    Type
REMARK                         _______ _______ _______ _____ _____    ______ ____
ROOT
ATOM      1  C   UNL     1       4.766   4.842  17.602  0.00  0.00    +0.000 A 
ATOM      2  C   UNL     1       4.165   6.051  17.191  0.00  0.00    +0.000 A 
ATOM      3  C   UNL     1       3.285   6.751  18.018  0.00  0.00    +0.000 A 
ATOM      4  C   UNL     1       2.978   6.246  19.273  0.00  0.00    +0.000 A 
ATOM      5  C   UNL     1       3.555   5.050  19.695  0.00  0.00    +0.000 A 
ATOM      6  C   UNL     1       4.444   4.334  18.873  0.00  0.00    +0.000 A 
ENDROOT
BRANCH   6   7
ATOM      7  O   UNL     1       4.993   3.251  19.504  0.00  0.00    +0.000 OA
ATOM      8  C   UNL     1       4.120   2.338  20.155  0.00  0.00    +0.000 C 
ENDBRANCH   6   7
BRANCH   1   9
ATOM      9  C   UNL     1       5.753   4.224  16.639  0.00  0.00    +0.000 C 
BRANCH   9  10
ATOM     10  C   UNL     1       7.174   4.779  16.828  0.00  0.00    +0.000 C 
BRANCH  10  12
ATOM     11  C   UNL     1       7.945   5.575  18.966  0.00  0.00    +0.000 C 
ATOM     12  N   UNL     1       7.704   4.395  18.140  0.00  0.00    +0.000 NA
ATOM     13  H   UNL     1       7.031   3.792  18.612  0.00  0.00    +0.000 HD
ENDBRANCH  10  12
ENDBRANCH   9  10
ENDBRANCH   1   9
TORSDOF 4
ENDMDL
MODEL 8
REMARK VINA RESULT:      -5.0      2.667      4.216
REMARK  Name = 
REMARK  6 active torsions:
REMARK  status: ('A' for Active; 'I' for Inactive)
REMARK    1  A    between atoms: C_1  and  N_2
REMARK    2  A    between atoms: N_2  and  C_3
REMARK    3  A    between atoms: C_3  and  C_4
REMARK    4  A    between atoms: C_4  and  C_5
REMARK    5  A    between atoms: C_10  and  O_11
REMARK    6  A    between atoms: O_11  and  C_12
REMARK                            x       y       z     vdW  Elec       q    Type
REMARK                         _______ _______ _______ _____ _____    ______ ____
ROOT
ATOM      1  C   UNL     1       3.280   4.850  19.143  0.00  0.00    +0.000 A 
ATOM      2  C   UNL     1       3.868   6.094  18.829  0.00  0.00    +0.000 A 
ATOM      3  C   UNL     1       4.512   6.316  17.611  0.00  0.00    +0.000 A 
ATOM      4  C   UNL     1       4.591   5.287  16.683  0.00  0.00    +0.000 A 
ATOM      5  C   UNL     1       4.023   4.048  16.976  0.00  0.00    +0.000 A 
ATOM      6  C   UNL     1       3.371   3.811  18.200  0.00  0.00    +0.000 A 
ENDROOT
BRANCH   6   7
ATOM      7  O   UNL     1       2.781   2.578  18.255  0.00  0.00    +0.000 OA
ATOM      8  C   UNL     1       3.592   1.458  18.580  0.00  0.00    +0.000 C 
ENDBRANCH   6   7
BRANCH   1   9
ATOM      9  C   UNL     1       2.554   4.767  20.465  0.00  0.00    +0.000 C 
BRANCH   9  10
ATOM     10  C   UNL     1       1.050   4.503  20.288  0.00  0.00    +0.000 C 
BRANCH  10  12
ATOM     11  C   UNL     1       1.638   2.600  21.641  0.00  0.00    +0.000 C 
ATOM     12  N   UNL     1       0.733   3.109  20.615  0.00  0.00    +0.000 NA
ATOM     13  H   UNL     1      -0.225   3.053  20.960  0.00  0.00    +0.000 HD
ENDBRANCH  10  12
ENDBRANCH   9  10
ENDBRANCH   1   9
TORSDOF 4
ENDMDL
MODEL 9
REMARK VINA RESULT:      -5.0      2.189      3.531
REMARK  Name = 
REMARK  6 active torsions:
REMARK  status: ('A' for Active; 'I' for Inactive)
REMARK    1  A    between atoms: C_1  and  N_2
REMARK    2  A    between atoms: N_2  and  C_3
REMARK    3  A    between atoms: C_3  and  C_4
REMARK    4  A    between atoms: C_4  and  C_5
REMARK    5  A    between atoms: C_10  and  O_11
REMARK    6  A    between atoms: O_11  and  C_12
REMARK                            x       y       z     vdW  Elec       q    Type
REMARK                         _______ _______ _______ _____ _____    ______ ____
ROOT
ATOM      1  C   UNL     1       3.421   3.585  19.372  0.00  0.00    +0.000 A 
ATOM      2  C   UNL     1       3.444   2.649  20.429  0.00  0.00    +0.000 A 
ATOM      3  C   UNL     1       2.382   2.530  21.327  0.00  0.00    +0.000 A 
ATOM      4  C   UNL     1       1.277   3.357  21.193  0.00  0.00    +0.000 A 
ATOM      5  C   UNL     1       1.236   4.292  20.160  0.00  0.00    +0.000 A 
ATOM      6  C   UNL     1       2.299   4.424  19.247  0.00  0.00    +0.000 A 
ENDROOT
BRANCH   6   7
ATOM      7  O   UNL     1       2.026   5.310  18.242  0.00  0.00    +0.000 OA
ATOM      8  C   UNL     1       2.500   6.644  18.374  0.00  0.00    +0.000 C 
ENDBRANCH   6   7
BRANCH   1   9
ATOM      9  C   UNL     1       4.602   3.561  18.432  0.00  0.00    +0.000 C 
BRANCH   9  10
ATOM     10  C   UNL     1       5.635   4.648  18.768  0.00  0.00    +0.000 C 
BRANCH  10  12
ATOM     11  C   UNL     1       7.216   4.605  16.951  0.00  0.00    +0.000 C 
ATOM     12  N   UNL     1       6.975   4.231  18.342  0.00  0.00    +0.000 NA
ATOM     13  H   UNL     1       7.673   4.683  18.933  0.00  0.00    +0.000 HD
ENDBRANCH  10  12
ENDBRANCH   9  10
ENDBRANCH   1   9
TORSDOF 4
ENDMDL
