MODEL 1
REMARK VINA RESULT:      -9.1      0.000      0.000
REMARK  Name = 
REMARK  9 active torsions:
REMARK  status: ('A' for Active; 'I' for Inactive)
REMARK    1  A    between atoms: C_1  and  N_2
REMARK    2  A    between atoms: N_2  and  C_15
REMARK    3  A    between atoms: C_3  and  C_5
REMARK    4  A    between atoms: C_6  and  C_7
REMARK    5  A    between atoms: C_10  and  O_11
REMARK    6  A    between atoms: C_12  and  O_13
REMARK    7  A    between atoms: C_18  and  S_19
REMARK    8  A    between atoms: S_19  and  N_22
REMARK    9  A    between atoms: N_22  and  C_23
REMARK                            x       y       z     vdW  Elec       q    Type
REMARK                         _______ _______ _______ _____ _____    ______ ____
ROOT
ATOM      1  C   UNL     1       2.017   5.645  19.568  0.00  0.00    +0.000 A 
ATOM      2  C   UNL     1       1.755   6.532  20.617  0.00  0.00    +0.000 A 
ATOM      3  C   UNL     1       1.591   7.895  20.369  0.00  0.00    +0.000 A 
ATOM      4  C   UNL     1       1.722   8.380  19.067  0.00  0.00    +0.000 A 
ATOM      5  C   UNL     1       2.034   7.515  18.014  0.00  0.00    +0.000 A 
ATOM      6  C   UNL     1       2.183   6.148  18.266  0.00  0.00    +0.000 A 
ENDROOT
BRANCH   1   8
ATOM      7  C   UNL     1       0.930   3.701  20.587  0.00  0.00    +0.000 C 
ATOM      8  N   UNL     1       2.055   4.247  19.834  0.00  0.00    +0.000 N 
ATOM      9  C   UNL     1       3.133   3.407  19.536  0.00  0.00    +0.000 C 
ATOM     10  O   UNL     1       3.216   2.246  19.928  0.00  0.00    +0.000 OA
BRANCH   9  11
ATOM     11  C   UNL     1       4.184   3.967  18.638  0.00  0.00    +0.000 C 
ATOM     12  C   UNL     1       4.164   3.719  17.320  0.00  0.00    +0.000 C 
BRANCH  12  13
ATOM     13  C   UNL     1       5.223   4.156  16.396  0.00  0.00    +0.000 A 
ATOM     14  C   UNL     1       5.357   3.610  15.108  0.00  0.00    +0.000 A 
ATOM     15  C   UNL     1       6.337   4.071  14.223  0.00  0.00    +0.000 A 
ATOM     16  C   UNL     1       7.179   5.095  14.626  0.00  0.00    +0.000 A 
ATOM     17  C   UNL     1       7.044   5.659  15.894  0.00  0.00    +0.000 A 
ATOM     18  C   UNL     1       6.073   5.204  16.778  0.00  0.00    +0.000 A 
BRANCH  16  19
ATOM     19  O   UNL     1       8.157   5.593  13.806  0.00  0.00    +0.000 OA
ATOM     20  H   UNL     1       7.751   5.795  12.946  0.00  0.00    +0.000 HD
ENDBRANCH  16  19
BRANCH  17  21
ATOM     21  O   UNL     1       7.871   6.676  16.272  0.00  0.00    +0.000 OA
ATOM     22  H   UNL     1       7.289   7.306  16.743  0.00  0.00    +0.000 HD
ENDBRANCH  17  21
ENDBRANCH  12  13
ENDBRANCH   9  11
ENDBRANCH   1   8
BRANCH   4  23
ATOM     23  S   UNL     1       1.372  10.086  18.738  0.00  0.00    +0.000 S 
ATOM     24  O   UNL     1       0.941  10.674  19.988  0.00  0.00    +0.000 OA
ATOM     25  O   UNL     1       2.449  10.651  17.959  0.00  0.00    +0.000 OA
BRANCH  23  26
ATOM     26  N   UNL     1      -0.003  10.021  17.768  0.00  0.00    +0.000 NA
ATOM     27  H   UNL     1       0.062   9.199  17.163  0.00  0.00    +0.000 HD
BRANCH  26  28
ATOM     28  C   UNL     1      -1.329  10.241  18.380  0.00  0.00    +0.000 C 
ATOM     29  C   UNL     1      -2.434  10.002  17.325  0.00  0.00    +0.000 C 
ATOM     30  C   UNL     1      -3.563  10.781  17.919  0.00  0.00    +0.000 A 
ATOM     31  C   UNL     1      -4.915  10.657  17.658  0.00  0.00    +0.000 A 
ATOM     32  C   UNL     1      -5.797  11.485  18.351  0.00  0.00    +0.000 A 
ATOM     33  C   UNL     1      -5.316  12.431  19.273  0.00  0.00    +0.000 A 
ATOM     34  C   UNL     1      -3.945  12.567  19.509  0.00  0.00    +0.000 A 
ATOM     35  C   UNL     1      -3.078  11.731  18.828  0.00  0.00    +0.000 A 
ATOM     36  C   UNL     1      -1.578  11.673  18.896  0.00  0.00    +0.000 C 
ENDBRANCH  26  28
ENDBRANCH  23  26
ENDBRANCH   4  23
TORSDOF 8
ENDMDL
MODEL 2
REMARK VINA RESULT:      -8.9      2.421      2.793
REMARK  Name = 
REMARK  9 active torsions:
REMARK  status: ('A' for Active; 'I' for Inactive)
REMARK    1  A    between atoms: C_1  and  N_2
REMARK    2  A    between atoms: N_2  and  C_15
REMARK    3  A    between atoms: C_3  and  C_5
REMARK    4  A    between atoms: C_6  and  C_7
REMARK    5  A    between atoms: C_10  and  O_11
REMARK    6  A    between atoms: C_12  and  O_13
REMARK    7  A    between atoms: C_18  and  S_19
REMARK    8  A    between atoms: S_19  and  N_22
REMARK    9  A    between atoms: N_22  and  C_23
REMARK                            x       y       z     vdW  Elec       q    Type
REMARK                         _______ _______ _______ _____ _____    ______ ____
ROOT
ATOM      1  C   UNL     1       2.105   5.659  19.715  0.00  0.00    +0.000 A 
ATOM      2  C   UNL     1       1.839   6.589  20.725  0.00  0.00    +0.000 A 
ATOM      3  C   UNL     1       1.616   7.931  20.411  0.00  0.00    +0.000 A 
ATOM      4  C   UNL     1       1.692   8.351  19.082  0.00  0.00    +0.000 A 
ATOM      5  C   UNL     1       2.006   7.443  18.066  0.00  0.00    +0.000 A 
ATOM      6  C   UNL     1       2.214   6.098  18.384  0.00  0.00    +0.000 A 
ENDROOT
BRANCH   1   8
ATOM      7  C   UNL     1       1.108   3.726  20.843  0.00  0.00    +0.000 C 
ATOM      8  N   UNL     1       2.204   4.279  20.052  0.00  0.00    +0.000 N 
ATOM      9  C   UNL     1       3.314   3.471  19.786  0.00  0.00    +0.000 C 
ATOM     10  O   UNL     1       3.448   2.335  20.236  0.00  0.00    +0.000 OA
BRANCH   9  11
ATOM     11  C   UNL     1       4.333   4.026  18.851  0.00  0.00    +0.000 C 
ATOM     12  C   UNL     1       4.295   3.735  17.542  0.00  0.00    +0.000 C 
BRANCH  12  13
ATOM     13  C   UNL     1       5.326   4.167  16.584  0.00  0.00    +0.000 A 
ATOM     14  C   UNL     1       5.456   3.576  15.316  0.00  0.00    +0.000 A 
ATOM     15  C   UNL     1       6.407   4.031  14.397  0.00  0.00    +0.000 A 
ATOM     16  C   UNL     1       7.223   5.096  14.745  0.00  0.00    +0.000 A 
ATOM     17  C   UNL     1       7.090   5.705  15.993  0.00  0.00    +0.000 A 
ATOM     18  C   UNL     1       6.148   5.255  16.910  0.00  0.00    +0.000 A 
BRANCH  16  19
ATOM     19  O   UNL     1       8.171   5.592  13.891  0.00  0.00    +0.000 OA
ATOM     20  H   UNL     1       8.967   5.038  13.974  0.00  0.00    +0.000 HD
ENDBRANCH  16  19
BRANCH  17  21
ATOM     21  O   UNL     1       7.891   6.761  16.317  0.00  0.00    +0.000 OA
ATOM     22  H   UNL     1       8.578   6.380  16.900  0.00  0.00    +0.000 HD
ENDBRANCH  17  21
ENDBRANCH  12  13
ENDBRANCH   9  11
ENDBRANCH   1   8
BRANCH   4  23
ATOM     23  S   UNL     1       1.268  10.023  18.676  0.00  0.00    +0.000 S 
ATOM     24  O   UNL     1       2.385  10.571  17.939  0.00  0.00    +0.000 OA
ATOM     25  O   UNL     1      -0.081  10.061  18.160  0.00  0.00    +0.000 OA
BRANCH  23  26
ATOM     26  N   UNL     1       1.282  10.802  20.170  0.00  0.00    +0.000 NA
ATOM     27  H   UNL     1       2.110  11.399  20.219  0.00  0.00    +0.000 HD
BRANCH  26  28
ATOM     28  C   UNL     1       0.038  11.418  20.674  0.00  0.00    +0.000 C 
ATOM     29  C   UNL     1       0.337  12.846  21.188  0.00  0.00    +0.000 C 
ATOM     30  C   UNL     1      -0.816  13.057  22.116  0.00  0.00    +0.000 A 
ATOM     31  C   UNL     1      -1.322  14.255  22.586  0.00  0.00    +0.000 A 
ATOM     32  C   UNL     1      -2.427  14.213  23.436  0.00  0.00    +0.000 A 
ATOM     33  C   UNL     1      -2.992  12.983  23.815  0.00  0.00    +0.000 A 
ATOM     34  C   UNL     1      -2.454  11.776  23.355  0.00  0.00    +0.000 A 
ATOM     35  C   UNL     1      -1.367  11.828  22.500  0.00  0.00    +0.000 A 
ATOM     36  C   UNL     1      -0.608  10.694  21.872  0.00  0.00    +0.000 C 
ENDBRANCH  26  28
ENDBRANCH  23  26
ENDBRANCH   4  23
TORSDOF 8
ENDMDL
MODEL 3
REMARK VINA RESULT:      -8.9      1.951      2.563
REMARK  Name = 
REMARK  9 active torsions:
REMARK  status: ('A' for Active; 'I' for Inactive)
REMARK    1  A    between atoms: C_1  and  N_2
REMARK    2  A    between atoms: N_2  and  C_15
REMARK    3  A    between atoms: C_3  and  C_5
REMARK    4  A    between atoms: C_6  and  C_7
REMARK    5  A    between atoms: C_10  and  O_11
REMARK    6  A    between atoms: C_12  and  O_13
REMARK    7  A    between atoms: C_18  and  S_19
REMARK    8  A    between atoms: S_19  and  N_22
REMARK    9  A    between atoms: N_22  and  C_23
REMARK                            x       y       z     vdW  Elec       q    Type
REMARK                         _______ _______ _______ _____ _____    ______ ____
ROOT
ATOM      1  C   UNL     1       2.279   5.795  19.788  0.00  0.00    +0.000 A 
ATOM      2  C   UNL     1       1.835   6.687  20.770  0.00  0.00    +0.000 A 
ATOM      3  C   UNL     1       1.513   8.003  20.437  0.00  0.00    +0.000 A 
ATOM      4  C   UNL     1       1.667   8.441  19.121  0.00  0.00    +0.000 A 
ATOM      5  C   UNL     1       2.158   7.576  18.138  0.00  0.00    +0.000 A 
ATOM      6  C   UNL     1       2.465   6.254  18.473  0.00  0.00    +0.000 A 
ENDROOT
BRANCH   1   8
ATOM      7  C   UNL     1       1.487   3.833  21.023  0.00  0.00    +0.000 C 
ATOM      8  N   UNL     1       2.479   4.428  20.132  0.00  0.00    +0.000 N 
ATOM      9  C   UNL     1       3.604   3.674  19.781  0.00  0.00    +0.000 C 
ATOM     10  O   UNL     1       3.836   2.554  20.232  0.00  0.00    +0.000 OA
BRANCH   9  11
ATOM     11  C   UNL     1       4.507   4.265  18.754  0.00  0.00    +0.000 C 
ATOM     12  C   UNL     1       4.488   3.825  17.487  0.00  0.00    +0.000 C 
BRANCH  12  13
ATOM     13  C   UNL     1       5.420   4.295  16.449  0.00  0.00    +0.000 A 
ATOM     14  C   UNL     1       6.338   5.332  16.691  0.00  0.00    +0.000 A 
ATOM     15  C   UNL     1       7.252   5.734  15.711  0.00  0.00    +0.000 A 
ATOM     16  C   UNL     1       7.257   5.083  14.488  0.00  0.00    +0.000 A 
ATOM     17  C   UNL     1       6.366   4.039  14.243  0.00  0.00    +0.000 A 
ATOM     18  C   UNL     1       5.454   3.636  15.212  0.00  0.00    +0.000 A 
BRANCH  16  19
ATOM     19  O   UNL     1       8.129   5.425  13.489  0.00  0.00    +0.000 OA
ATOM     20  H   UNL     1       8.993   5.608  13.896  0.00  0.00    +0.000 HD
ENDBRANCH  16  19
BRANCH  17  21
ATOM     21  O   UNL     1       6.392   3.397  13.039  0.00  0.00    +0.000 OA
ATOM     22  H   UNL     1       6.808   2.532  13.230  0.00  0.00    +0.000 HD
ENDBRANCH  17  21
ENDBRANCH  12  13
ENDBRANCH   9  11
ENDBRANCH   1   8
BRANCH   4  23
ATOM     23  S   UNL     1       1.123  10.068  18.678  0.00  0.00    +0.000 S 
ATOM     24  O   UNL     1       2.250  10.734  18.063  0.00  0.00    +0.000 OA
ATOM     25  O   UNL     1      -0.162   9.979  18.026  0.00  0.00    +0.000 OA
BRANCH  23  26
ATOM     26  N   UNL     1       0.906  10.824  20.168  0.00  0.00    +0.000 NA
ATOM     27  H   UNL     1       1.502  11.654  20.203  0.00  0.00    +0.000 HD
BRANCH  26  28
ATOM     28  C   UNL     1      -0.464  11.019  20.686  0.00  0.00    +0.000 C 
ATOM     29  C   UNL     1      -1.017  12.376  20.195  0.00  0.00    +0.000 C 
ATOM     30  C   UNL     1      -2.078  12.633  21.216  0.00  0.00    +0.000 A 
ATOM     31  C   UNL     1      -3.167  13.480  21.119  0.00  0.00    +0.000 A 
ATOM     32  C   UNL     1      -4.046  13.546  22.199  0.00  0.00    +0.000 A 
ATOM     33  C   UNL     1      -3.814  12.785  23.358  0.00  0.00    +0.000 A 
ATOM     34  C   UNL     1      -2.694  11.953  23.456  0.00  0.00    +0.000 A 
ATOM     35  C   UNL     1      -1.835  11.882  22.374  0.00  0.00    +0.000 A 
ATOM     36  C   UNL     1      -0.576  11.078  22.223  0.00  0.00    +0.000 C 
ENDBRANCH  26  28
ENDBRANCH  23  26
ENDBRANCH   4  23
TORSDOF 8
ENDMDL
MODEL 4
REMARK VINA RESULT:      -8.6      0.783      1.322
REMARK  Name = 
REMARK  9 active torsions:
REMARK  status: ('A' for Active; 'I' for Inactive)
REMARK    1  A    between atoms: C_1  and  N_2
REMARK    2  A    between atoms: N_2  and  C_15
REMARK    3  A    between atoms: C_3  and  C_5
REMARK    4  A    between atoms: C_6  and  C_7
REMARK    5  A    between atoms: C_10  and  O_11
REMARK    6  A    between atoms: C_12  and  O_13
REMARK    7  A    between atoms: C_18  and  S_19
REMARK    8  A    between atoms: S_19  and  N_22
REMARK    9  A    between atoms: N_22  and  C_23
REMARK                            x       y       z     vdW  Elec       q    Type
REMARK                         _______ _______ _______ _____ _____    ______ ____
ROOT
ATOM      1  C   UNL     1       2.104   6.120  19.489  0.00  0.00    +0.000 A 
ATOM      2  C   UNL     1       1.714   6.950  20.545  0.00  0.00    +0.000 A 
ATOM      3  C   UNL     1       1.516   8.316  20.336  0.00  0.00    +0.000 A 
ATOM      4  C   UNL     1       1.741   8.861  19.072  0.00  0.00    +0.000 A 
ATOM      5  C   UNL     1       2.179   8.054  18.017  0.00  0.00    +0.000 A 
ATOM      6  C   UNL     1       2.361   6.684  18.228  0.00  0.00    +0.000 A 
ENDROOT
BRANCH   1   8
ATOM      7  C   UNL     1       1.311   4.173  20.747  0.00  0.00    +0.000 C 
ATOM      8  N   UNL     1       2.176   4.715  19.702  0.00  0.00    +0.000 N 
ATOM      9  C   UNL     1       3.088   3.858  19.076  0.00  0.00    +0.000 C 
ATOM     10  O   UNL     1       3.248   2.684  19.401  0.00  0.00    +0.000 OA
BRANCH   9  11
ATOM     11  C   UNL     1       3.838   4.419  17.916  0.00  0.00    +0.000 C 
ATOM     12  C   UNL     1       4.699   3.659  17.223  0.00  0.00    +0.000 C 
BRANCH  12  13
ATOM     13  C   UNL     1       5.544   4.177  16.134  0.00  0.00    +0.000 A 
ATOM     14  C   UNL     1       6.403   5.273  16.317  0.00  0.00    +0.000 A 
ATOM     15  C   UNL     1       7.236   5.723  15.288  0.00  0.00    +0.000 A 
ATOM     16  C   UNL     1       7.219   5.059  14.071  0.00  0.00    +0.000 A 
ATOM     17  C   UNL     1       6.386   3.957  13.883  0.00  0.00    +0.000 A 
ATOM     18  C   UNL     1       5.555   3.507  14.902  0.00  0.00    +0.000 A 
BRANCH  16  19
ATOM     19  O   UNL     1       8.012   5.446  13.024  0.00  0.00    +0.000 OA
ATOM     20  H   UNL     1       8.877   5.014  13.129  0.00  0.00    +0.000 HD
ENDBRANCH  16  19
BRANCH  17  21
ATOM     21  O   UNL     1       6.390   3.305  12.684  0.00  0.00    +0.000 OA
ATOM     22  H   UNL     1       7.334   3.120  12.507  0.00  0.00    +0.000 HD
ENDBRANCH  17  21
ENDBRANCH  12  13
ENDBRANCH   9  11
ENDBRANCH   1   8
BRANCH   4  23
ATOM     23  S   UNL     1       1.351  10.565  18.781  0.00  0.00    +0.000 S 
ATOM     24  O   UNL     1       0.915  11.117  20.044  0.00  0.00    +0.000 OA
ATOM     25  O   UNL     1       2.410  11.171  18.007  0.00  0.00    +0.000 OA
BRANCH  23  26
ATOM     26  N   UNL     1      -0.028  10.489  17.816  0.00  0.00    +0.000 NA
ATOM     27  H   UNL     1       0.092   9.739  17.132  0.00  0.00    +0.000 HD
BRANCH  26  28
ATOM     28  C   UNL     1      -1.359  10.543  18.455  0.00  0.00    +0.000 C 
ATOM     29  C   UNL     1      -2.435  10.060  17.455  0.00  0.00    +0.000 C 
ATOM     30  C   UNL     1      -3.659  10.694  18.032  0.00  0.00    +0.000 A 
ATOM     31  C   UNL     1      -4.980  10.342  17.824  0.00  0.00    +0.000 A 
ATOM     32  C   UNL     1      -5.967  11.069  18.488  0.00  0.00    +0.000 A 
ATOM     33  C   UNL     1      -5.622  12.141  19.330  0.00  0.00    +0.000 A 
ATOM     34  C   UNL     1      -4.284  12.506  19.512  0.00  0.00    +0.000 A 
ATOM     35  C   UNL     1      -3.311  11.769  18.860  0.00  0.00    +0.000 A 
ATOM     36  C   UNL     1      -1.819  11.951  18.883  0.00  0.00    +0.000 C 
ENDBRANCH  26  28
ENDBRANCH  23  26
ENDBRANCH   4  23
TORSDOF 8
ENDMDL
MODEL 5
REMARK VINA RESULT:      -8.5      3.428      4.659
REMARK  Name = 
REMARK  9 active torsions:
REMARK  status: ('A' for Active; 'I' for Inactive)
REMARK    1  A    between atoms: C_1  and  N_2
REMARK    2  A    between atoms: N_2  and  C_15
REMARK    3  A    between atoms: C_3  and  C_5
REMARK    4  A    between atoms: C_6  and  C_7
REMARK    5  A    between atoms: C_10  and  O_11
REMARK    6  A    between atoms: C_12  and  O_13
REMARK    7  A    between atoms: C_18  and  S_19
REMARK    8  A    between atoms: S_19  and  N_22
REMARK    9  A    between atoms: N_22  and  C_23
REMARK                            x       y       z     vdW  Elec       q    Type
REMARK                         _______ _______ _______ _____ _____    ______ ____
ROOT
ATOM      1  C   UNL     1       4.045   6.260  18.033  0.00  0.00    +0.000 A 
ATOM      2  C   UNL     1       3.439   7.429  17.560  0.00  0.00    +0.000 A 
ATOM      3  C   UNL     1       2.543   8.136  18.363  0.00  0.00    +0.000 A 
ATOM      4  C   UNL     1       2.226   7.655  19.634  0.00  0.00    +0.000 A 
ATOM      5  C   UNL     1       2.785   6.462  20.102  0.00  0.00    +0.000 A 
ATOM      6  C   UNL     1       3.693   5.765  19.300  0.00  0.00    +0.000 A 
ENDROOT
BRANCH   1   8
ATOM      7  C   UNL     1       4.656   4.402  16.558  0.00  0.00    +0.000 C 
ATOM      8  N   UNL     1       5.048   5.631  17.243  0.00  0.00    +0.000 N 
ATOM      9  C   UNL     1       6.386   6.035  17.182  0.00  0.00    +0.000 C 
ATOM     10  O   UNL     1       7.268   5.378  16.633  0.00  0.00    +0.000 OA
BRANCH   9  11
ATOM     11  C   UNL     1       6.705   7.369  17.765  0.00  0.00    +0.000 C 
ATOM     12  C   UNL     1       7.812   8.032  17.398  0.00  0.00    +0.000 C 
BRANCH  12  13
ATOM     13  C   UNL     1       8.237   9.303  18.008  0.00  0.00    +0.000 A 
ATOM     14  C   UNL     1       8.968   9.343  19.207  0.00  0.00    +0.000 A 
ATOM     15  C   UNL     1       9.407  10.556  19.748  0.00  0.00    +0.000 A 
ATOM     16  C   UNL     1       9.125  11.734  19.076  0.00  0.00    +0.000 A 
ATOM     17  C   UNL     1       8.418  11.706  17.874  0.00  0.00    +0.000 A 
ATOM     18  C   UNL     1       7.977  10.504  17.333  0.00  0.00    +0.000 A 
BRANCH  16  19
ATOM     19  O   UNL     1       9.530  12.954  19.550  0.00  0.00    +0.000 OA
ATOM     20  H   UNL     1       8.766  13.554  19.519  0.00  0.00    +0.000 HD
ENDBRANCH  16  19
BRANCH  17  21
ATOM     21  O   UNL     1       8.160  12.873  17.215  0.00  0.00    +0.000 OA
ATOM     22  H   UNL     1       8.866  12.937  16.541  0.00  0.00    +0.000 HD
ENDBRANCH  17  21
ENDBRANCH  12  13
ENDBRANCH   9  11
ENDBRANCH   1   8
BRANCH   4  23
ATOM     23  S   UNL     1       1.200   8.631  20.699  0.00  0.00    +0.000 S 
ATOM     24  O   UNL     1       0.011   7.852  20.964  0.00  0.00    +0.000 OA
ATOM     25  O   UNL     1       2.007   9.182  21.763  0.00  0.00    +0.000 OA
BRANCH  23  26
ATOM     26  N   UNL     1       0.703   9.898  19.707  0.00  0.00    +0.000 NA
ATOM     27  H   UNL     1       1.421  10.059  18.996  0.00  0.00    +0.000 HD
BRANCH  26  28
ATOM     28  C   UNL     1      -0.686   9.918  19.204  0.00  0.00    +0.000 C 
ATOM     29  C   UNL     1      -0.682   9.836  17.660  0.00  0.00    +0.000 C 
ATOM     30  C   UNL     1      -2.022  10.417  17.344  0.00  0.00    +0.000 A 
ATOM     31  C   UNL     1      -2.761  10.274  16.184  0.00  0.00    +0.000 A 
ATOM     32  C   UNL     1      -4.006  10.898  16.117  0.00  0.00    +0.000 A 
ATOM     33  C   UNL     1      -4.482  11.663  17.195  0.00  0.00    +0.000 A 
ATOM     34  C   UNL     1      -3.714  11.824  18.353  0.00  0.00    +0.000 A 
ATOM     35  C   UNL     1      -2.486  11.191  18.416  0.00  0.00    +0.000 A 
ATOM     36  C   UNL     1      -1.477  11.202  19.529  0.00  0.00    +0.000 C 
ENDBRANCH  26  28
ENDBRANCH  23  26
ENDBRANCH   4  23
TORSDOF 8
ENDMDL
MODEL 6
REMARK VINA RESULT:      -8.4      1.995      2.560
REMARK  Name = 
REMARK  9 active torsions:
REMARK  status: ('A' for Active; 'I' for Inactive)
REMARK    1  A    between atoms: C_1  and  N_2
REMARK    2  A    between atoms: N_2  and  C_15
REMARK    3  A    between atoms: C_3  and  C_5
REMARK    4  A    between atoms: C_6  and  C_7
REMARK    5  A    between atoms: C_10  and  O_11
REMARK    6  A    between atoms: C_12  and  O_13
REMARK    7  A    between atoms: C_18  and  S_19
REMARK    8  A    between atoms: S_19  and  N_22
REMARK    9  A    between atoms: N_22  and  C_23
REMARK                            x       y       z     vdW  Elec       q    Type
REMARK                         _______ _______ _______ _____ _____    ______ ____
ROOT
ATOM      1  C   UNL     1       2.244   4.825  19.795  0.00  0.00    +0.000 A 
ATOM      2  C   UNL     1       1.862   5.000  18.461  0.00  0.00    +0.000 A 
ATOM      3  C   UNL     1       1.643   6.279  17.949  0.00  0.00    +0.000 A 
ATOM      4  C   UNL     1       1.774   7.389  18.783  0.00  0.00    +0.000 A 
ATOM      5  C   UNL     1       2.107   7.229  20.132  0.00  0.00    +0.000 A 
ATOM      6  C   UNL     1       2.340   5.947  20.637  0.00  0.00    +0.000 A 
ENDROOT
BRANCH   1   8
ATOM      7  C   UNL     1       1.596   2.857  21.102  0.00  0.00    +0.000 C 
ATOM      8  N   UNL     1       2.582   3.521  20.255  0.00  0.00    +0.000 N 
ATOM      9  C   UNL     1       3.821   2.902  20.056  0.00  0.00    +0.000 C 
ATOM     10  O   UNL     1       4.151   1.854  20.606  0.00  0.00    +0.000 OA
BRANCH   9  11
ATOM     11  C   UNL     1       4.733   3.542  19.066  0.00  0.00    +0.000 C 
ATOM     12  C   UNL     1       4.505   3.431  17.749  0.00  0.00    +0.000 C 
BRANCH  12  13
ATOM     13  C   UNL     1       5.418   3.952  16.719  0.00  0.00    +0.000 A 
ATOM     14  C   UNL     1       5.471   3.403  15.426  0.00  0.00    +0.000 A 
ATOM     15  C   UNL     1       6.309   3.941  14.444  0.00  0.00    +0.000 A 
ATOM     16  C   UNL     1       7.087   5.045  14.754  0.00  0.00    +0.000 A 
ATOM     17  C   UNL     1       7.029   5.611  16.027  0.00  0.00    +0.000 A 
ATOM     18  C   UNL     1       6.200   5.080  17.008  0.00  0.00    +0.000 A 
BRANCH  16  19
ATOM     19  O   UNL     1       7.925   5.621  13.836  0.00  0.00    +0.000 OA
ATOM     20  H   UNL     1       7.396   5.852  13.053  0.00  0.00    +0.000 HD
ENDBRANCH  16  19
BRANCH  17  21
ATOM     21  O   UNL     1       7.790   6.707  16.313  0.00  0.00    +0.000 OA
ATOM     22  H   UNL     1       7.152   7.449  16.345  0.00  0.00    +0.000 HD
ENDBRANCH  17  21
ENDBRANCH  12  13
ENDBRANCH   9  11
ENDBRANCH   1   8
BRANCH   4  23
ATOM     23  S   UNL     1       1.634   9.015  18.093  0.00  0.00    +0.000 S 
ATOM     24  O   UNL     1       2.892   9.303  17.440  0.00  0.00    +0.000 OA
ATOM     25  O   UNL     1       0.371   9.132  17.402  0.00  0.00    +0.000 OA
BRANCH  23  26
ATOM     26  N   UNL     1       1.587  10.012  19.449  0.00  0.00    +0.000 NA
ATOM     27  H   UNL     1       2.105  10.869  19.243  0.00  0.00    +0.000 HD
BRANCH  26  28
ATOM     28  C   UNL     1       0.304  10.213  20.153  0.00  0.00    +0.000 C 
ATOM     29  C   UNL     1      -0.291  11.586  19.768  0.00  0.00    +0.000 C 
ATOM     30  C   UNL     1      -1.199  11.835  20.928  0.00  0.00    +0.000 A 
ATOM     31  C   UNL     1      -2.278  12.697  20.997  0.00  0.00    +0.000 A 
ATOM     32  C   UNL     1      -3.000  12.753  22.189  0.00  0.00    +0.000 A 
ATOM     33  C   UNL     1      -2.624  11.966  23.291  0.00  0.00    +0.000 A 
ATOM     34  C   UNL     1      -1.513  11.119  23.220  0.00  0.00    +0.000 A 
ATOM     35  C   UNL     1      -0.811  11.059  22.029  0.00  0.00    +0.000 A 
ATOM     36  C   UNL     1       0.404  10.243  21.692  0.00  0.00    +0.000 C 
ENDBRANCH  26  28
ENDBRANCH  23  26
ENDBRANCH   4  23
TORSDOF 8
ENDMDL
MODEL 7
REMARK VINA RESULT:      -8.4      3.438      9.362
REMARK  Name = 
REMARK  9 active torsions:
REMARK  status: ('A' for Active; 'I' for Inactive)
REMARK    1  A    between atoms: C_1  and  N_2
REMARK    2  A    between atoms: N_2  and  C_15
REMARK    3  A    between atoms: C_3  and  C_5
REMARK    4  A    between atoms: C_6  and  C_7
REMARK    5  A    between atoms: C_10  and  O_11
REMARK    6  A    between atoms: C_12  and  O_13
REMARK    7  A    between atoms: C_18  and  S_19
REMARK    8  A    between atoms: S_19  and  N_22
REMARK    9  A    between atoms: N_22  and  C_23
REMARK                            x       y       z     vdW  Elec       q    Type
REMARK                         _______ _______ _______ _____ _____    ______ ____
ROOT
ATOM      1  C   UNL     1       3.950   3.743  19.327  0.00  0.00    +0.000 A 
ATOM      2  C   UNL     1       5.179   4.314  19.672  0.00  0.00    +0.000 A 
ATOM      3  C   UNL     1       5.921   5.022  18.727  0.00  0.00    +0.000 A 
ATOM      4  C   UNL     1       5.448   5.133  17.419  0.00  0.00    +0.000 A 
ATOM      5  C   UNL     1       4.245   4.526  17.044  0.00  0.00    +0.000 A 
ATOM      6  C   UNL     1       3.498   3.830  17.999  0.00  0.00    +0.000 A 
ENDROOT
BRANCH   1   8
ATOM      7  C   UNL     1       3.672   1.892  20.907  0.00  0.00    +0.000 C 
ATOM      8  N   UNL     1       3.157   3.136  20.341  0.00  0.00    +0.000 N 
ATOM      9  C   UNL     1       1.888   3.576  20.733  0.00  0.00    +0.000 C 
ATOM     10  O   UNL     1       1.152   2.941  21.483  0.00  0.00    +0.000 OA
BRANCH   9  11
ATOM     11  C   UNL     1       1.472   4.923  20.246  0.00  0.00    +0.000 C 
ATOM     12  C   UNL     1       2.246   5.998  20.456  0.00  0.00    +0.000 C 
BRANCH  12  13
ATOM     13  C   UNL     1       1.849   7.368  20.091  0.00  0.00    +0.000 A 
ATOM     14  C   UNL     1       2.123   7.908  18.823  0.00  0.00    +0.000 A 
ATOM     15  C   UNL     1       1.696   9.193  18.474  0.00  0.00    +0.000 A 
ATOM     16  C   UNL     1       0.975   9.936  19.396  0.00  0.00    +0.000 A 
ATOM     17  C   UNL     1       0.679   9.404  20.650  0.00  0.00    +0.000 A 
ATOM     18  C   UNL     1       1.103   8.128  21.003  0.00  0.00    +0.000 A 
BRANCH  16  19
ATOM     19  O   UNL     1       0.525  11.198  19.115  0.00  0.00    +0.000 OA
ATOM     20  H   UNL     1       0.828  11.788  19.826  0.00  0.00    +0.000 HD
ENDBRANCH  16  19
BRANCH  17  21
ATOM     21  O   UNL     1      -0.043  10.141  21.542  0.00  0.00    +0.000 OA
ATOM     22  H   UNL     1      -0.881   9.647  21.650  0.00  0.00    +0.000 HD
ENDBRANCH  17  21
ENDBRANCH  12  13
ENDBRANCH   9  11
ENDBRANCH   1   8
BRANCH   4  23
ATOM     23  S   UNL     1       6.324   6.152  16.263  0.00  0.00    +0.000 S 
ATOM     24  O   UNL     1       5.930   7.518  16.527  0.00  0.00    +0.000 OA
ATOM     25  O   UNL     1       7.710   5.749  16.228  0.00  0.00    +0.000 OA
BRANCH  23  26
ATOM     26  N   UNL     1       5.623   5.754  14.784  0.00  0.00    +0.000 NA
ATOM     27  H   UNL     1       5.669   6.571  14.170  0.00  0.00    +0.000 HD
BRANCH  26  28
ATOM     28  C   UNL     1       5.972   4.471  14.142  0.00  0.00    +0.000 C 
ATOM     29  C   UNL     1       7.156   4.682  13.170  0.00  0.00    +0.000 C 
ATOM     30  C   UNL     1       6.986   3.507  12.262  0.00  0.00    +0.000 A 
ATOM     31  C   UNL     1       7.930   2.927  11.433  0.00  0.00    +0.000 A 
ATOM     32  C   UNL     1       7.550   1.816  10.681  0.00  0.00    +0.000 A 
ATOM     33  C   UNL     1       6.238   1.317  10.754  0.00  0.00    +0.000 A 
ATOM     34  C   UNL     1       5.284   1.929  11.574  0.00  0.00    +0.000 A 
ATOM     35  C   UNL     1       5.674   3.022  12.328  0.00  0.00    +0.000 A 
ATOM     36  C   UNL     1       4.856   3.852  13.276  0.00  0.00    +0.000 C 
ENDBRANCH  26  28
ENDBRANCH  23  26
ENDBRANCH   4  23
TORSDOF 8
ENDMDL
MODEL 8
REMARK VINA RESULT:      -8.4      3.418      9.610
REMARK  Name = 
REMARK  9 active torsions:
REMARK  status: ('A' for Active; 'I' for Inactive)
REMARK    1  A    between atoms: C_1  and  N_2
REMARK    2  A    between atoms: N_2  and  C_15
REMARK    3  A    between atoms: C_3  and  C_5
REMARK    4  A    between atoms: C_6  and  C_7
REMARK    5  A    between atoms: C_10  and  O_11
REMARK    6  A    between atoms: C_12  and  O_13
REMARK    7  A    between atoms: C_18  and  S_19
REMARK    8  A    between atoms: S_19  and  N_22
REMARK    9  A    between atoms: N_22  and  C_23
REMARK                            x       y       z     vdW  Elec       q    Type
REMARK                         _______ _______ _______ _____ _____    ______ ____
ROOT
ATOM      1  C   UNL     1       3.781   4.221  19.208  0.00  0.00    +0.000 A 
ATOM      2  C   UNL     1       3.740   3.885  17.851  0.00  0.00    +0.000 A 
ATOM      3  C   UNL     1       4.710   4.369  16.972  0.00  0.00    +0.000 A 
ATOM      4  C   UNL     1       5.709   5.220  17.446  0.00  0.00    +0.000 A 
ATOM      5  C   UNL     1       5.736   5.605  18.790  0.00  0.00    +0.000 A 
ATOM      6  C   UNL     1       4.770   5.106  19.669  0.00  0.00    +0.000 A 
ENDROOT
BRANCH   1   8
ATOM      7  C   UNL     1       3.196   2.276  20.577  0.00  0.00    +0.000 C 
ATOM      8  N   UNL     1       2.854   3.613  20.101  0.00  0.00    +0.000 N 
ATOM      9  C   UNL     1       1.609   4.150  20.446  0.00  0.00    +0.000 C 
ATOM     10  O   UNL     1       0.756   3.532  21.078  0.00  0.00    +0.000 OA
BRANCH   9  11
ATOM     11  C   UNL     1       1.369   5.571  20.066  0.00  0.00    +0.000 C 
ATOM     12  C   UNL     1       1.635   6.566  20.926  0.00  0.00    +0.000 C 
BRANCH  12  13
ATOM     13  C   UNL     1       1.329   7.979  20.652  0.00  0.00    +0.000 A 
ATOM     14  C   UNL     1       0.963   8.872  21.674  0.00  0.00    +0.000 A 
ATOM     15  C   UNL     1       0.724  10.223  21.406  0.00  0.00    +0.000 A 
ATOM     16  C   UNL     1       0.865  10.687  20.107  0.00  0.00    +0.000 A 
ATOM     17  C   UNL     1       1.247   9.816  19.088  0.00  0.00    +0.000 A 
ATOM     18  C   UNL     1       1.485   8.472  19.348  0.00  0.00    +0.000 A 
BRANCH  16  19
ATOM     19  O   UNL     1       0.648  11.999  19.779  0.00  0.00    +0.000 OA
ATOM     20  H   UNL     1       0.290  12.448  20.564  0.00  0.00    +0.000 HD
ENDBRANCH  16  19
BRANCH  17  21
ATOM     21  O   UNL     1       1.396  10.289  17.817  0.00  0.00    +0.000 OA
ATOM     22  H   UNL     1       2.347  10.171  17.619  0.00  0.00    +0.000 HD
ENDBRANCH  17  21
ENDBRANCH  12  13
ENDBRANCH   9  11
ENDBRANCH   1   8
BRANCH   4  23
ATOM     23  S   UNL     1       7.017   5.714  16.357  0.00  0.00    +0.000 S 
ATOM     24  O   UNL     1       7.237   7.126  16.580  0.00  0.00    +0.000 OA
ATOM     25  O   UNL     1       8.091   4.751  16.435  0.00  0.00    +0.000 OA
BRANCH  23  26
ATOM     26  N   UNL     1       6.316   5.597  14.830  0.00  0.00    +0.000 NA
ATOM     27  H   UNL     1       6.599   6.410  14.278  0.00  0.00    +0.000 HD
BRANCH  26  28
ATOM     28  C   UNL     1       6.362   4.308  14.111  0.00  0.00    +0.000 C 
ATOM     29  C   UNL     1       7.493   4.341  13.057  0.00  0.00    +0.000 C 
ATOM     30  C   UNL     1       7.035   3.273  12.119  0.00  0.00    +0.000 A 
ATOM     31  C   UNL     1       7.787   2.570  11.195  0.00  0.00    +0.000 A 
ATOM     32  C   UNL     1       7.146   1.595  10.431  0.00  0.00    +0.000 A 
ATOM     33  C   UNL     1       5.770   1.352  10.589  0.00  0.00    +0.000 A 
ATOM     34  C   UNL     1       5.014   2.088  11.507  0.00  0.00    +0.000 A 
ATOM     35  C   UNL     1       5.661   3.044  12.270  0.00  0.00    +0.000 A 
ATOM     36  C   UNL     1       5.089   3.962  13.312  0.00  0.00    +0.000 C 
ENDBRANCH  26  28
ENDBRANCH  23  26
ENDBRANCH   4  23
TORSDOF 8
ENDMDL
MODEL 9
REMARK VINA RESULT:      -8.3      2.118      2.781
REMARK  Name = 
REMARK  9 active torsions:
REMARK  status: ('A' for Active; 'I' for Inactive)
REMARK    1  A    between atoms: C_1  and  N_2
REMARK    2  A    between atoms: N_2  and  C_15
REMARK    3  A    between atoms: C_3  and  C_5
REMARK    4  A    between atoms: C_6  and  C_7
REMARK    5  A    between atoms: C_10  and  O_11
REMARK    6  A    between atoms: C_12  and  O_13
REMARK    7  A    between atoms: C_18  and  S_19
REMARK    8  A    between atoms: S_19  and  N_22
REMARK    9  A    between atoms: N_22  and  C_23
REMARK                            x       y       z     vdW  Elec       q    Type
REMARK                         _______ _______ _______ _____ _____    ______ ____
ROOT
ATOM      1  C   UNL     1       2.178   5.197  19.862  0.00  0.00    +0.000 A 
ATOM      2  C   UNL     1       2.113   5.497  18.498  0.00  0.00    +0.000 A 
ATOM      3  C   UNL     1       1.852   6.800  18.071  0.00  0.00    +0.000 A 
ATOM      4  C   UNL     1       1.623   7.803  19.014  0.00  0.00    +0.000 A 
ATOM      5  C   UNL     1       1.635   7.509  20.381  0.00  0.00    +0.000 A 
ATOM      6  C   UNL     1       1.911   6.206  20.804  0.00  0.00    +0.000 A 
ENDROOT
BRANCH   1   8
ATOM      7  C   UNL     1       1.655   3.188  21.163  0.00  0.00    +0.000 C 
ATOM      8  N   UNL     1       2.569   3.889  20.267  0.00  0.00    +0.000 N 
ATOM      9  C   UNL     1       3.802   3.297  19.969  0.00  0.00    +0.000 C 
ATOM     10  O   UNL     1       4.186   2.244  20.470  0.00  0.00    +0.000 OA
BRANCH   9  11
ATOM     11  C   UNL     1       4.633   3.977  18.934  0.00  0.00    +0.000 C 
ATOM     12  C   UNL     1       4.592   3.581  17.653  0.00  0.00    +0.000 C 
BRANCH  12  13
ATOM     13  C   UNL     1       5.459   4.141  16.603  0.00  0.00    +0.000 A 
ATOM     14  C   UNL     1       6.303   5.239  16.844  0.00  0.00    +0.000 A 
ATOM     15  C   UNL     1       7.158   5.729  15.851  0.00  0.00    +0.000 A 
ATOM     16  C   UNL     1       7.179   5.105  14.614  0.00  0.00    +0.000 A 
ATOM     17  C   UNL     1       6.361   4.002  14.369  0.00  0.00    +0.000 A 
ATOM     18  C   UNL     1       5.509   3.512  15.351  0.00  0.00    +0.000 A 
BRANCH  16  19
ATOM     19  O   UNL     1       7.995   5.533  13.601  0.00  0.00    +0.000 OA
ATOM     20  H   UNL     1       7.892   4.918  12.855  0.00  0.00    +0.000 HD
ENDBRANCH  16  19
BRANCH  17  21
ATOM     21  O   UNL     1       6.403   3.389  13.150  0.00  0.00    +0.000 OA
ATOM     22  H   UNL     1       5.548   2.918  13.082  0.00  0.00    +0.000 HD
ENDBRANCH  17  21
ENDBRANCH  12  13
ENDBRANCH   9  11
ENDBRANCH   1   8
BRANCH   4  23
ATOM     23  S   UNL     1       1.434   9.478  18.470  0.00  0.00    +0.000 S 
ATOM     24  O   UNL     1       2.696   9.872  17.882  0.00  0.00    +0.000 OA
ATOM     25  O   UNL     1       0.185   9.610  17.757  0.00  0.00    +0.000 OA
BRANCH  23  26
ATOM     26  N   UNL     1       1.313  10.344  19.909  0.00  0.00    +0.000 NA
ATOM     27  H   UNL     1       1.970  11.127  19.876  0.00  0.00    +0.000 HD
BRANCH  26  28
ATOM     28  C   UNL     1      -0.025  10.676  20.442  0.00  0.00    +0.000 C 
ATOM     29  C   UNL     1      -0.376  12.140  20.090  0.00  0.00    +0.000 C 
ATOM     30  C   UNL     1      -1.407  12.439  21.129  0.00  0.00    +0.000 A 
ATOM     31  C   UNL     1      -2.366  13.435  21.116  0.00  0.00    +0.000 A 
ATOM     32  C   UNL     1      -3.244  13.516  22.196  0.00  0.00    +0.000 A 
ATOM     33  C   UNL     1      -3.139  12.618  23.273  0.00  0.00    +0.000 A 
ATOM     34  C   UNL     1      -2.148  11.632  23.288  0.00  0.00    +0.000 A 
ATOM     35  C   UNL     1      -1.290  11.550  22.206  0.00  0.00    +0.000 A 
ATOM     36  C   UNL     1      -0.152  10.597  21.977  0.00  0.00    +0.000 C 
ENDBRANCH  26  28
ENDBRANCH  23  26
ENDBRANCH   4  23
TORSDOF 8
ENDMDL
