MODEL 1
REMARK VINA RESULT:      -7.8      0.000      0.000
REMARK  Name = 
REMARK  10 active torsions:
REMARK  status: ('A' for Active; 'I' for Inactive)
REMARK    1  A    between atoms: C_1  and  O_2
REMARK    2  A    between atoms: O_2  and  C_3
REMARK    3  A    between atoms: C_6  and  O_7
REMARK    4  A    between atoms: O_7  and  C_8
REMARK    5  A    between atoms: C_9  and  S_10
REMARK    6  A    between atoms: S_10  and  N_13
REMARK    7  A    between atoms: N_13  and  C_14
REMARK    8  A    between atoms: C_14  and  C_15
REMARK    9  A    between atoms: C_15  and  C_16
REMARK   10  A    between atoms: C_19  and  C_20
REMARK                            x       y       z     vdW  Elec       q    Type
REMARK                         _______ _______ _______ _____ _____    ______ ____
ROOT
ATOM      1  N   UNL     1       7.256   6.753  17.859  0.00  0.00    +0.000 NA
ATOM      2  H   UNL     1       6.296   7.102  17.791  0.00  0.00    +0.000 HD
ENDROOT
BRANCH   1   3
ATOM      3  S   UNL     1       7.240   5.264  18.660  0.00  0.00    +0.000 S 
ATOM      4  O   UNL     1       7.335   5.547  20.078  0.00  0.00    +0.000 OA
ATOM      5  O   UNL     1       8.197   4.399  18.008  0.00  0.00    +0.000 OA
BRANCH   3  10
ATOM      6  C   UNL     1       3.491   3.874  19.243  0.00  0.00    +0.000 A 
ATOM      7  C   UNL     1       3.106   3.479  17.964  0.00  0.00    +0.000 A 
ATOM      8  C   UNL     1       3.962   3.657  16.873  0.00  0.00    +0.000 A 
ATOM      9  C   UNL     1       5.234   4.215  17.048  0.00  0.00    +0.000 A 
ATOM     10  C   UNL     1       5.609   4.626  18.334  0.00  0.00    +0.000 A 
ATOM     11  C   UNL     1       4.740   4.460  19.427  0.00  0.00    +0.000 A 
BRANCH   6  13
ATOM     12  C   UNL     1       1.609   4.642  20.474  0.00  0.00    +0.000 C 
ATOM     13  O   UNL     1       2.568   3.622  20.219  0.00  0.00    +0.000 OA
ENDBRANCH   6  13
BRANCH   9  14
ATOM     14  O   UNL     1       6.101   4.417  16.008  0.00  0.00    +0.000 OA
ATOM     15  C   UNL     1       5.488   4.722  14.753  0.00  0.00    +0.000 C 
ENDBRANCH   9  14
ENDBRANCH   3  10
ENDBRANCH   1   3
BRANCH   1  16
ATOM     16  C   UNL     1       8.235   7.753  18.339  0.00  0.00    +0.000 C 
BRANCH  16  17
ATOM     17  C   UNL     1       7.993   9.114  17.683  0.00  0.00    +0.000 C 
BRANCH  17  18
ATOM     18  C   UNL     1       8.712  10.229  18.372  0.00  0.00    +0.000 A 
ATOM     19  C   UNL     1       9.300  10.168  19.619  0.00  0.00    +0.000 A 
ATOM     20  S   UNL     1      10.049  11.657  19.987  0.00  0.00    +0.000 S 
ATOM     21  C   UNL     1       9.546  12.290  18.462  0.00  0.00    +0.000 A 
ATOM     22  N   UNL     1       8.844  11.449  17.726  0.00  0.00    +0.000 NA
BRANCH  21  23
ATOM     23  C   UNL     1       9.842  13.684  18.089  0.00  0.00    +0.000 A 
ATOM     24  C   UNL     1      11.129  14.101  17.698  0.00  0.00    +0.000 A 
ATOM     25  C   UNL     1      11.399  15.445  17.418  0.00  0.00    +0.000 A 
ATOM     26  C   UNL     1      10.381  16.388  17.512  0.00  0.00    +0.000 A 
ATOM     27  C   UNL     1       9.099  15.978  17.860  0.00  0.00    +0.000 A 
ATOM     28  F   UNL     1       8.120  16.888  17.942  0.00  0.00    +0.000 F 
ATOM     29  C   UNL     1       8.820  14.642  18.138  0.00  0.00    +0.000 A 
ENDBRANCH  21  23
ENDBRANCH  17  18
ENDBRANCH  16  17
ENDBRANCH   1  16
TORSDOF 8
ENDMDL
MODEL 2
REMARK VINA RESULT:      -7.6      8.029     11.425
REMARK  Name = 
REMARK  10 active torsions:
REMARK  status: ('A' for Active; 'I' for Inactive)
REMARK    1  A    between atoms: C_1  and  O_2
REMARK    2  A    between atoms: O_2  and  C_3
REMARK    3  A    between atoms: C_6  and  O_7
REMARK    4  A    between atoms: O_7  and  C_8
REMARK    5  A    between atoms: C_9  and  S_10
REMARK    6  A    between atoms: S_10  and  N_13
REMARK    7  A    between atoms: N_13  and  C_14
REMARK    8  A    between atoms: C_14  and  C_15
REMARK    9  A    between atoms: C_15  and  C_16
REMARK   10  A    between atoms: C_19  and  C_20
REMARK                            x       y       z     vdW  Elec       q    Type
REMARK                         _______ _______ _______ _____ _____    ______ ____
ROOT
ATOM      1  N   UNL     1      -0.203  10.776  17.827  0.00  0.00    +0.000 NA
ATOM      2  H   UNL     1       0.216  11.099  16.951  0.00  0.00    +0.000 HD
ENDROOT
BRANCH   1   3
ATOM      3  S   UNL     1      -0.848  12.105  18.648  0.00  0.00    +0.000 S 
ATOM      4  O   UNL     1      -0.436  13.289  17.923  0.00  0.00    +0.000 OA
ATOM      5  O   UNL     1      -0.543  11.948  20.053  0.00  0.00    +0.000 OA
BRANCH   3  10
ATOM      6  C   UNL     1      -4.802  11.982  19.470  0.00  0.00    +0.000 A 
ATOM      7  C   UNL     1      -5.348  11.493  18.285  0.00  0.00    +0.000 A 
ATOM      8  C   UNL     1      -4.534  11.219  17.182  0.00  0.00    +0.000 A 
ATOM      9  C   UNL     1      -3.149  11.408  17.254  0.00  0.00    +0.000 A 
ATOM     10  C   UNL     1      -2.607  11.916  18.442  0.00  0.00    +0.000 A 
ATOM     11  C   UNL     1      -3.430  12.206  19.545  0.00  0.00    +0.000 A 
BRANCH   6  13
ATOM     12  C   UNL     1      -6.547  13.328  20.358  0.00  0.00    +0.000 C 
ATOM     13  O   UNL     1      -5.707  12.185  20.473  0.00  0.00    +0.000 OA
ENDBRANCH   6  13
BRANCH   9  14
ATOM     14  O   UNL     1      -2.314  11.163  16.196  0.00  0.00    +0.000 OA
ATOM     15  C   UNL     1      -2.814  10.240  15.227  0.00  0.00    +0.000 C 
ENDBRANCH   9  14
ENDBRANCH   3  10
ENDBRANCH   1   3
BRANCH   1  16
ATOM     16  C   UNL     1       0.660   9.866  18.613  0.00  0.00    +0.000 C 
BRANCH  16  17
ATOM     17  C   UNL     1       2.037   9.719  17.962  0.00  0.00    +0.000 C 
BRANCH  17  18
ATOM     18  C   UNL     1       2.565   8.322  18.026  0.00  0.00    +0.000 A 
ATOM     19  C   UNL     1       3.693   7.850  17.388  0.00  0.00    +0.000 A 
ATOM     20  S   UNL     1       3.945   6.208  17.782  0.00  0.00    +0.000 S 
ATOM     21  C   UNL     1       2.537   6.228  18.779  0.00  0.00    +0.000 A 
ATOM     22  N   UNL     1       1.902   7.385  18.804  0.00  0.00    +0.000 NA
BRANCH  21  23
ATOM     23  C   UNL     1       2.083   5.008  19.469  0.00  0.00    +0.000 A 
ATOM     24  C   UNL     1       2.335   4.779  20.835  0.00  0.00    +0.000 A 
ATOM     25  C   UNL     1       1.956   3.580  21.448  0.00  0.00    +0.000 A 
ATOM     26  C   UNL     1       1.307   2.598  20.705  0.00  0.00    +0.000 A 
ATOM     27  C   UNL     1       1.022   2.833  19.365  0.00  0.00    +0.000 A 
ATOM     28  F   UNL     1       0.391   1.889  18.655  0.00  0.00    +0.000 F 
ATOM     29  C   UNL     1       1.393   4.024  18.747  0.00  0.00    +0.000 A 
ENDBRANCH  21  23
ENDBRANCH  17  18
ENDBRANCH  16  17
ENDBRANCH   1  16
TORSDOF 8
ENDMDL
MODEL 3
REMARK VINA RESULT:      -7.5      7.052      9.782
REMARK  Name = 
REMARK  10 active torsions:
REMARK  status: ('A' for Active; 'I' for Inactive)
REMARK    1  A    between atoms: C_1  and  O_2
REMARK    2  A    between atoms: O_2  and  C_3
REMARK    3  A    between atoms: C_6  and  O_7
REMARK    4  A    between atoms: O_7  and  C_8
REMARK    5  A    between atoms: C_9  and  S_10
REMARK    6  A    between atoms: S_10  and  N_13
REMARK    7  A    between atoms: N_13  and  C_14
REMARK    8  A    between atoms: C_14  and  C_15
REMARK    9  A    between atoms: C_15  and  C_16
REMARK   10  A    between atoms: C_19  and  C_20
REMARK                            x       y       z     vdW  Elec       q    Type
REMARK                         _______ _______ _______ _____ _____    ______ ____
ROOT
ATOM      1  N   UNL     1       0.620   9.712  20.475  0.00  0.00    +0.000 NA
ATOM      2  H   UNL     1      -0.351   9.457  20.674  0.00  0.00    +0.000 HD
ENDROOT
BRANCH   1   3
ATOM      3  S   UNL     1       0.723  10.275  18.885  0.00  0.00    +0.000 S 
ATOM      4  O   UNL     1       1.222   9.178  18.081  0.00  0.00    +0.000 OA
ATOM      5  O   UNL     1       1.403  11.550  18.909  0.00  0.00    +0.000 OA
BRANCH   3  10
ATOM      6  C   UNL     1      -2.761  10.150  16.842  0.00  0.00    +0.000 A 
ATOM      7  C   UNL     1      -3.553  11.071  17.526  0.00  0.00    +0.000 A 
ATOM      8  C   UNL     1      -3.064  11.734  18.655  0.00  0.00    +0.000 A 
ATOM      9  C   UNL     1      -1.760  11.503  19.109  0.00  0.00    +0.000 A 
ATOM     10  C   UNL     1      -0.975  10.564  18.428  0.00  0.00    +0.000 A 
ATOM     11  C   UNL     1      -1.474   9.887  17.301  0.00  0.00    +0.000 A 
BRANCH   6  13
ATOM     12  C   UNL     1      -3.172  10.266  14.504  0.00  0.00    +0.000 C 
ATOM     13  O   UNL     1      -3.355   9.592  15.744  0.00  0.00    +0.000 OA
ENDBRANCH   6  13
BRANCH   9  14
ATOM     14  O   UNL     1      -1.243  12.122  20.215  0.00  0.00    +0.000 OA
ATOM     15  C   UNL     1      -2.167  12.329  21.286  0.00  0.00    +0.000 C 
ENDBRANCH   9  14
ENDBRANCH   3  10
ENDBRANCH   1   3
BRANCH   1  16
ATOM     16  C   UNL     1       1.612   8.693  20.884  0.00  0.00    +0.000 C 
BRANCH  16  17
ATOM     17  C   UNL     1       0.991   7.294  20.885  0.00  0.00    +0.000 C 
BRANCH  17  18
ATOM     18  C   UNL     1       1.934   6.239  20.403  0.00  0.00    +0.000 A 
ATOM     19  C   UNL     1       1.958   4.923  20.815  0.00  0.00    +0.000 A 
ATOM     20  S   UNL     1       3.166   4.066  19.966  0.00  0.00    +0.000 S 
ATOM     21  C   UNL     1       3.581   5.501  19.101  0.00  0.00    +0.000 A 
ATOM     22  N   UNL     1       2.874   6.564  19.437  0.00  0.00    +0.000 NA
BRANCH  21  23
ATOM     23  C   UNL     1       4.687   5.502  18.128  0.00  0.00    +0.000 A 
ATOM     24  C   UNL     1       4.551   6.045  16.836  0.00  0.00    +0.000 A 
ATOM     25  C   UNL     1       5.595   5.968  15.908  0.00  0.00    +0.000 A 
ATOM     26  C   UNL     1       6.795   5.361  16.265  0.00  0.00    +0.000 A 
ATOM     27  C   UNL     1       6.949   4.857  17.551  0.00  0.00    +0.000 A 
ATOM     28  F   UNL     1       8.107   4.279  17.893  0.00  0.00    +0.000 F 
ATOM     29  C   UNL     1       5.917   4.930  18.483  0.00  0.00    +0.000 A 
ENDBRANCH  21  23
ENDBRANCH  17  18
ENDBRANCH  16  17
ENDBRANCH   1  16
TORSDOF 8
ENDMDL
MODEL 4
REMARK VINA RESULT:      -7.4      6.516      9.071
REMARK  Name = 
REMARK  10 active torsions:
REMARK  status: ('A' for Active; 'I' for Inactive)
REMARK    1  A    between atoms: C_1  and  O_2
REMARK    2  A    between atoms: O_2  and  C_3
REMARK    3  A    between atoms: C_6  and  O_7
REMARK    4  A    between atoms: O_7  and  C_8
REMARK    5  A    between atoms: C_9  and  S_10
REMARK    6  A    between atoms: S_10  and  N_13
REMARK    7  A    between atoms: N_13  and  C_14
REMARK    8  A    between atoms: C_14  and  C_15
REMARK    9  A    between atoms: C_15  and  C_16
REMARK   10  A    between atoms: C_19  and  C_20
REMARK                            x       y       z     vdW  Elec       q    Type
REMARK                         _______ _______ _______ _____ _____    ______ ____
ROOT
ATOM      1  N   UNL     1       2.557   6.989  20.013  0.00  0.00    +0.000 NA
ATOM      2  H   UNL     1       3.370   7.504  20.362  0.00  0.00    +0.000 HD
ENDROOT
BRANCH   1   3
ATOM      3  S   UNL     1       2.718   6.782  18.343  0.00  0.00    +0.000 S 
ATOM      4  O   UNL     1       2.835   8.104  17.763  0.00  0.00    +0.000 OA
ATOM      5  O   UNL     1       1.687   5.867  17.908  0.00  0.00    +0.000 OA
BRANCH   3  10
ATOM      6  C   UNL     1       6.307   5.673  16.853  0.00  0.00    +0.000 A 
ATOM      7  C   UNL     1       6.685   4.634  17.701  0.00  0.00    +0.000 A 
ATOM      8  C   UNL     1       5.876   4.260  18.778  0.00  0.00    +0.000 A 
ATOM      9  C   UNL     1       4.658   4.907  19.013  0.00  0.00    +0.000 A 
ATOM     10  C   UNL     1       4.291   5.962  18.168  0.00  0.00    +0.000 A 
ATOM     11  C   UNL     1       5.114   6.347  17.094  0.00  0.00    +0.000 A 
BRANCH   6  13
ATOM     12  C   UNL     1       7.057   5.101  14.672  0.00  0.00    +0.000 C 
ATOM     13  O   UNL     1       7.179   5.919  15.830  0.00  0.00    +0.000 OA
ENDBRANCH   6  13
BRANCH   9  14
ATOM     14  O   UNL     1       3.838   4.581  20.061  0.00  0.00    +0.000 OA
ATOM     15  C   UNL     1       3.316   3.251  20.035  0.00  0.00    +0.000 C 
ENDBRANCH   9  14
ENDBRANCH   3  10
ENDBRANCH   1   3
BRANCH   1  16
ATOM     16  C   UNL     1       1.257   7.507  20.494  0.00  0.00    +0.000 C 
BRANCH  16  17
ATOM     17  C   UNL     1       1.438   8.825  21.249  0.00  0.00    +0.000 C 
BRANCH  17  18
ATOM     18  C   UNL     1       0.449   9.869  20.842  0.00  0.00    +0.000 A 
ATOM     19  C   UNL     1       0.230  11.073  21.480  0.00  0.00    +0.000 A 
ATOM     20  S   UNL     1      -0.955  11.972  20.643  0.00  0.00    +0.000 S 
ATOM     21  C   UNL     1      -1.103  10.703  19.483  0.00  0.00    +0.000 A 
ATOM     22  N   UNL     1      -0.328   9.659  19.713  0.00  0.00    +0.000 NA
BRANCH  21  23
ATOM     23  C   UNL     1      -2.078  10.796  18.383  0.00  0.00    +0.000 A 
ATOM     24  C   UNL     1      -3.238  11.589  18.471  0.00  0.00    +0.000 A 
ATOM     25  C   UNL     1      -4.184  11.602  17.440  0.00  0.00    +0.000 A 
ATOM     26  C   UNL     1      -3.974  10.833  16.299  0.00  0.00    +0.000 A 
ATOM     27  C   UNL     1      -2.813  10.077  16.189  0.00  0.00    +0.000 A 
ATOM     28  F   UNL     1      -2.612   9.343  15.088  0.00  0.00    +0.000 F 
ATOM     29  C   UNL     1      -1.865  10.059  17.209  0.00  0.00    +0.000 A 
ENDBRANCH  21  23
ENDBRANCH  17  18
ENDBRANCH  16  17
ENDBRANCH   1  16
TORSDOF 8
ENDMDL
MODEL 5
REMARK VINA RESULT:      -7.4      5.958      8.891
REMARK  Name = 
REMARK  10 active torsions:
REMARK  status: ('A' for Active; 'I' for Inactive)
REMARK    1  A    between atoms: C_1  and  O_2
REMARK    2  A    between atoms: O_2  and  C_3
REMARK    3  A    between atoms: C_6  and  O_7
REMARK    4  A    between atoms: O_7  and  C_8
REMARK    5  A    between atoms: C_9  and  S_10
REMARK    6  A    between atoms: S_10  and  N_13
REMARK    7  A    between atoms: N_13  and  C_14
REMARK    8  A    between atoms: C_14  and  C_15
REMARK    9  A    between atoms: C_15  and  C_16
REMARK   10  A    between atoms: C_19  and  C_20
REMARK                            x       y       z     vdW  Elec       q    Type
REMARK                         _______ _______ _______ _____ _____    ______ ____
ROOT
ATOM      1  N   UNL     1       3.931   6.566  18.278  0.00  0.00    +0.000 NA
ATOM      2  H   UNL     1       4.549   7.101  17.662  0.00  0.00    +0.000 HD
ENDROOT
BRANCH   1   3
ATOM      3  S   UNL     1       4.112   4.920  17.938  0.00  0.00    +0.000 S 
ATOM      4  O   UNL     1       2.827   4.442  17.469  0.00  0.00    +0.000 OA
ATOM      5  O   UNL     1       4.768   4.303  19.069  0.00  0.00    +0.000 OA
BRANCH   3  10
ATOM      6  C   UNL     1       5.658   4.223  14.271  0.00  0.00    +0.000 A 
ATOM      7  C   UNL     1       6.978   4.649  14.406  0.00  0.00    +0.000 A 
ATOM      8  C   UNL     1       7.432   5.197  15.609  0.00  0.00    +0.000 A 
ATOM      9  C   UNL     1       6.575   5.309  16.710  0.00  0.00    +0.000 A 
ATOM     10  C   UNL     1       5.245   4.895  16.563  0.00  0.00    +0.000 A 
ATOM     11  C   UNL     1       4.786   4.357  15.347  0.00  0.00    +0.000 A 
BRANCH   6  13
ATOM     12  C   UNL     1       6.448   3.401  12.186  0.00  0.00    +0.000 C 
ATOM     13  O   UNL     1       5.355   3.687  13.050  0.00  0.00    +0.000 OA
ENDBRANCH   6  13
BRANCH   9  14
ATOM     14  O   UNL     1       6.973   5.848  17.904  0.00  0.00    +0.000 OA
ATOM     15  C   UNL     1       7.531   7.162  17.824  0.00  0.00    +0.000 C 
ENDBRANCH   9  14
ENDBRANCH   3  10
ENDBRANCH   1   3
BRANCH   1  16
ATOM     16  C   UNL     1       2.544   7.080  18.345  0.00  0.00    +0.000 C 
BRANCH  16  17
ATOM     17  C   UNL     1       2.498   8.573  18.010  0.00  0.00    +0.000 C 
BRANCH  17  18
ATOM     18  C   UNL     1       1.273   9.249  18.535  0.00  0.00    +0.000 A 
ATOM     19  C   UNL     1       1.086   9.702  19.825  0.00  0.00    +0.000 A 
ATOM     20  S   UNL     1      -0.441  10.452  19.966  0.00  0.00    +0.000 S 
ATOM     21  C   UNL     1      -0.757  10.130  18.300  0.00  0.00    +0.000 A 
ATOM     22  N   UNL     1       0.210   9.483  17.676  0.00  0.00    +0.000 NA
BRANCH  21  23
ATOM     23  C   UNL     1      -2.044  10.504  17.690  0.00  0.00    +0.000 A 
ATOM     24  C   UNL     1      -2.389  10.136  16.375  0.00  0.00    +0.000 A 
ATOM     25  C   UNL     1      -3.588  10.566  15.796  0.00  0.00    +0.000 A 
ATOM     26  C   UNL     1      -4.464  11.359  16.529  0.00  0.00    +0.000 A 
ATOM     27  C   UNL     1      -4.148  11.695  17.840  0.00  0.00    +0.000 A 
ATOM     28  F   UNL     1      -4.997  12.454  18.545  0.00  0.00    +0.000 F 
ATOM     29  C   UNL     1      -2.959  11.270  18.426  0.00  0.00    +0.000 A 
ENDBRANCH  21  23
ENDBRANCH  17  18
ENDBRANCH  16  17
ENDBRANCH   1  16
TORSDOF 8
ENDMDL
MODEL 6
REMARK VINA RESULT:      -7.3      5.839      7.686
REMARK  Name = 
REMARK  10 active torsions:
REMARK  status: ('A' for Active; 'I' for Inactive)
REMARK    1  A    between atoms: C_1  and  O_2
REMARK    2  A    between atoms: O_2  and  C_3
REMARK    3  A    between atoms: C_6  and  O_7
REMARK    4  A    between atoms: O_7  and  C_8
REMARK    5  A    between atoms: C_9  and  S_10
REMARK    6  A    between atoms: S_10  and  N_13
REMARK    7  A    between atoms: N_13  and  C_14
REMARK    8  A    between atoms: C_14  and  C_15
REMARK    9  A    between atoms: C_15  and  C_16
REMARK   10  A    between atoms: C_19  and  C_20
REMARK                            x       y       z     vdW  Elec       q    Type
REMARK                         _______ _______ _______ _____ _____    ______ ____
ROOT
ATOM      1  N   UNL     1       3.422   4.965  19.134  0.00  0.00    +0.000 NA
ATOM      2  H   UNL     1       4.132   5.533  19.606  0.00  0.00    +0.000 HD
ENDROOT
BRANCH   1   3
ATOM      3  S   UNL     1       4.156   3.570  18.522  0.00  0.00    +0.000 S 
ATOM      4  O   UNL     1       3.108   2.774  17.918  0.00  0.00    +0.000 OA
ATOM      5  O   UNL     1       5.003   3.024  19.558  0.00  0.00    +0.000 OA
BRANCH   3  10
ATOM      6  C   UNL     1       5.719   4.195  14.849  0.00  0.00    +0.000 A 
ATOM      7  C   UNL     1       6.867   4.937  15.124  0.00  0.00    +0.000 A 
ATOM      8  C   UNL     1       7.183   5.303  16.435  0.00  0.00    +0.000 A 
ATOM      9  C   UNL     1       6.366   4.913  17.502  0.00  0.00    +0.000 A 
ATOM     10  C   UNL     1       5.205   4.182  17.218  0.00  0.00    +0.000 A 
ATOM     11  C   UNL     1       4.880   3.827  15.897  0.00  0.00    +0.000 A 
BRANCH   6  13
ATOM     12  C   UNL     1       6.706   3.886  12.710  0.00  0.00    +0.000 C 
ATOM     13  O   UNL     1       5.543   3.887  13.529  0.00  0.00    +0.000 OA
ENDBRANCH   6  13
BRANCH   9  14
ATOM     14  O   UNL     1       6.631   5.257  18.801  0.00  0.00    +0.000 OA
ATOM     15  C   UNL     1       7.817   6.030  18.996  0.00  0.00    +0.000 C 
ENDBRANCH   9  14
ENDBRANCH   3  10
ENDBRANCH   1   3
BRANCH   1  16
ATOM     16  C   UNL     1       2.558   5.724  18.202  0.00  0.00    +0.000 C 
BRANCH  16  17
ATOM     17  C   UNL     1       2.860   7.222  18.272  0.00  0.00    +0.000 C 
BRANCH  17  18
ATOM     18  C   UNL     1       2.043   7.932  19.303  0.00  0.00    +0.000 A 
ATOM     19  C   UNL     1       1.843   7.523  20.605  0.00  0.00    +0.000 A 
ATOM     20  S   UNL     1       0.883   8.663  21.436  0.00  0.00    +0.000 S 
ATOM     21  C   UNL     1       0.794   9.632  20.011  0.00  0.00    +0.000 A 
ATOM     22  N   UNL     1       1.426   9.128  18.968  0.00  0.00    +0.000 NA
BRANCH  21  23
ATOM     23  C   UNL     1       0.005  10.876  19.993  0.00  0.00    +0.000 A 
ATOM     24  C   UNL     1      -0.863  11.233  21.043  0.00  0.00    +0.000 A 
ATOM     25  C   UNL     1      -1.653  12.384  20.966  0.00  0.00    +0.000 A 
ATOM     26  C   UNL     1      -1.575  13.203  19.844  0.00  0.00    +0.000 A 
ATOM     27  C   UNL     1      -0.693  12.878  18.822  0.00  0.00    +0.000 A 
ATOM     28  F   UNL     1      -0.615  13.673  17.746  0.00  0.00    +0.000 F 
ATOM     29  C   UNL     1       0.100  11.736  18.889  0.00  0.00    +0.000 A 
ENDBRANCH  21  23
ENDBRANCH  17  18
ENDBRANCH  16  17
ENDBRANCH   1  16
TORSDOF 8
ENDMDL
MODEL 7
REMARK VINA RESULT:      -7.3      7.927     11.305
REMARK  Name = 
REMARK  10 active torsions:
REMARK  status: ('A' for Active; 'I' for Inactive)
REMARK    1  A    between atoms: C_1  and  O_2
REMARK    2  A    between atoms: O_2  and  C_3
REMARK    3  A    between atoms: C_6  and  O_7
REMARK    4  A    between atoms: O_7  and  C_8
REMARK    5  A    between atoms: C_9  and  S_10
REMARK    6  A    between atoms: S_10  and  N_13
REMARK    7  A    between atoms: N_13  and  C_14
REMARK    8  A    between atoms: C_14  and  C_15
REMARK    9  A    between atoms: C_15  and  C_16
REMARK   10  A    between atoms: C_19  and  C_20
REMARK                            x       y       z     vdW  Elec       q    Type
REMARK                         _______ _______ _______ _____ _____    ______ ____
ROOT
ATOM      1  N   UNL     1      -0.569  10.229  18.311  0.00  0.00    +0.000 NA
ATOM      2  H   UNL     1      -0.451  10.302  17.297  0.00  0.00    +0.000 HD
ENDROOT
BRANCH   1   3
ATOM      3  S   UNL     1      -1.125  11.711  18.904  0.00  0.00    +0.000 S 
ATOM      4  O   UNL     1      -0.454  12.748  18.147  0.00  0.00    +0.000 OA
ATOM      5  O   UNL     1      -1.042  11.670  20.347  0.00  0.00    +0.000 OA
BRANCH   3  10
ATOM      6  C   UNL     1      -5.144  12.043  19.167  0.00  0.00    +0.000 A 
ATOM      7  C   UNL     1      -5.571  11.623  17.908  0.00  0.00    +0.000 A 
ATOM      8  C   UNL     1      -4.647  11.260  16.925  0.00  0.00    +0.000 A 
ATOM      9  C   UNL     1      -3.273  11.288  17.191  0.00  0.00    +0.000 A 
ATOM     10  C   UNL     1      -2.849  11.727  18.452  0.00  0.00    +0.000 A 
ATOM     11  C   UNL     1      -3.780  12.107  19.435  0.00  0.00    +0.000 A 
BRANCH   6  13
ATOM     12  C   UNL     1      -5.942  13.460  20.899  0.00  0.00    +0.000 C 
ATOM     13  O   UNL     1      -6.152  12.347  20.039  0.00  0.00    +0.000 OA
ENDBRANCH   6  13
BRANCH   9  14
ATOM     14  O   UNL     1      -2.332  10.951  16.255  0.00  0.00    +0.000 OA
ATOM     15  C   UNL     1      -2.841  10.313  15.082  0.00  0.00    +0.000 C 
ENDBRANCH   9  14
ENDBRANCH   3  10
ENDBRANCH   1   3
BRANCH   1  16
ATOM     16  C   UNL     1       0.584   9.624  19.015  0.00  0.00    +0.000 C 
BRANCH  16  17
ATOM     17  C   UNL     1       1.822   9.597  18.116  0.00  0.00    +0.000 C 
BRANCH  17  18
ATOM     18  C   UNL     1       2.502   8.267  18.102  0.00  0.00    +0.000 A 
ATOM     19  C   UNL     1       3.548   7.898  17.281  0.00  0.00    +0.000 A 
ATOM     20  S   UNL     1       4.042   6.305  17.642  0.00  0.00    +0.000 S 
ATOM     21  C   UNL     1       2.833   6.205  18.871  0.00  0.00    +0.000 A 
ATOM     22  N   UNL     1       2.090   7.288  18.994  0.00  0.00    +0.000 NA
BRANCH  21  23
ATOM     23  C   UNL     1       2.642   4.965  19.642  0.00  0.00    +0.000 A 
ATOM     24  C   UNL     1       1.489   4.730  20.415  0.00  0.00    +0.000 A 
ATOM     25  C   UNL     1       1.366   3.575  21.195  0.00  0.00    +0.000 A 
ATOM     26  C   UNL     1       2.389   2.632  21.202  0.00  0.00    +0.000 A 
ATOM     27  C   UNL     1       3.513   2.840  20.412  0.00  0.00    +0.000 A 
ATOM     28  F   UNL     1       4.494   1.927  20.415  0.00  0.00    +0.000 F 
ATOM     29  C   UNL     1       3.645   3.984  19.630  0.00  0.00    +0.000 A 
ENDBRANCH  21  23
ENDBRANCH  17  18
ENDBRANCH  16  17
ENDBRANCH   1  16
TORSDOF 8
ENDMDL
MODEL 8
REMARK VINA RESULT:      -7.2      6.112      7.729
REMARK  Name = 
REMARK  10 active torsions:
REMARK  status: ('A' for Active; 'I' for Inactive)
REMARK    1  A    between atoms: C_1  and  O_2
REMARK    2  A    between atoms: O_2  and  C_3
REMARK    3  A    between atoms: C_6  and  O_7
REMARK    4  A    between atoms: O_7  and  C_8
REMARK    5  A    between atoms: C_9  and  S_10
REMARK    6  A    between atoms: S_10  and  N_13
REMARK    7  A    between atoms: N_13  and  C_14
REMARK    8  A    between atoms: C_14  and  C_15
REMARK    9  A    between atoms: C_15  and  C_16
REMARK   10  A    between atoms: C_19  and  C_20
REMARK                            x       y       z     vdW  Elec       q    Type
REMARK                         _______ _______ _______ _____ _____    ______ ____
ROOT
ATOM      1  N   UNL     1       3.904   5.141  19.950  0.00  0.00    +0.000 NA
ATOM      2  H   UNL     1       4.609   5.195  20.690  0.00  0.00    +0.000 HD
ENDROOT
BRANCH   1   3
ATOM      3  S   UNL     1       4.125   3.703  19.089  0.00  0.00    +0.000 S 
ATOM      4  O   UNL     1       2.867   3.404  18.436  0.00  0.00    +0.000 OA
ATOM      5  O   UNL     1       4.750   2.747  19.975  0.00  0.00    +0.000 OA
BRANCH   3  10
ATOM      6  C   UNL     1       5.961   3.990  15.500  0.00  0.00    +0.000 A 
ATOM      7  C   UNL     1       7.162   4.622  15.818  0.00  0.00    +0.000 A 
ATOM      8  C   UNL     1       7.437   5.015  17.130  0.00  0.00    +0.000 A 
ATOM      9  C   UNL     1       6.521   4.761  18.158  0.00  0.00    +0.000 A 
ATOM     10  C   UNL     1       5.308   4.141  17.830  0.00  0.00    +0.000 A 
ATOM     11  C   UNL     1       5.027   3.760  16.506  0.00  0.00    +0.000 A 
BRANCH   6  13
ATOM     12  C   UNL     1       6.673   4.313  13.257  0.00  0.00    +0.000 C 
ATOM     13  O   UNL     1       5.831   3.640  14.186  0.00  0.00    +0.000 OA
ENDBRANCH   6  13
BRANCH   9  14
ATOM     14  O   UNL     1       6.744   5.138  19.456  0.00  0.00    +0.000 OA
ATOM     15  C   UNL     1       8.035   5.693  19.717  0.00  0.00    +0.000 C 
ENDBRANCH   9  14
ENDBRANCH   3  10
ENDBRANCH   1   3
BRANCH   1  16
ATOM     16  C   UNL     1       3.767   6.378  19.149  0.00  0.00    +0.000 C 
BRANCH  16  17
ATOM     17  C   UNL     1       2.297   6.669  18.839  0.00  0.00    +0.000 C 
BRANCH  17  18
ATOM     18  C   UNL     1       1.985   8.130  18.816  0.00  0.00    +0.000 A 
ATOM     19  C   UNL     1       2.279   9.007  17.792  0.00  0.00    +0.000 A 
ATOM     20  S   UNL     1       1.697  10.566  18.171  0.00  0.00    +0.000 S 
ATOM     21  C   UNL     1       1.089   9.977  19.675  0.00  0.00    +0.000 A 
ATOM     22  N   UNL     1       1.321   8.696  19.894  0.00  0.00    +0.000 NA
BRANCH  21  23
ATOM     23  C   UNL     1       0.434  10.885  20.632  0.00  0.00    +0.000 A 
ATOM     24  C   UNL     1       0.629  12.279  20.602  0.00  0.00    +0.000 A 
ATOM     25  C   UNL     1       0.051  13.110  21.567  0.00  0.00    +0.000 A 
ATOM     26  C   UNL     1      -0.743  12.560  22.568  0.00  0.00    +0.000 A 
ATOM     27  C   UNL     1      -0.971  11.189  22.582  0.00  0.00    +0.000 A 
ATOM     28  F   UNL     1      -1.742  10.664  23.543  0.00  0.00    +0.000 F 
ATOM     29  C   UNL     1      -0.403  10.353  21.624  0.00  0.00    +0.000 A 
ENDBRANCH  21  23
ENDBRANCH  17  18
ENDBRANCH  16  17
ENDBRANCH   1  16
TORSDOF 8
ENDMDL
MODEL 9
REMARK VINA RESULT:      -7.2      7.407     11.085
REMARK  Name = 
REMARK  10 active torsions:
REMARK  status: ('A' for Active; 'I' for Inactive)
REMARK    1  A    between atoms: C_1  and  O_2
REMARK    2  A    between atoms: O_2  and  C_3
REMARK    3  A    between atoms: C_6  and  O_7
REMARK    4  A    between atoms: O_7  and  C_8
REMARK    5  A    between atoms: C_9  and  S_10
REMARK    6  A    between atoms: S_10  and  N_13
REMARK    7  A    between atoms: N_13  and  C_14
REMARK    8  A    between atoms: C_14  and  C_15
REMARK    9  A    between atoms: C_15  and  C_16
REMARK   10  A    between atoms: C_19  and  C_20
REMARK                            x       y       z     vdW  Elec       q    Type
REMARK                         _______ _______ _______ _____ _____    ______ ____
ROOT
ATOM      1  N   UNL     1       0.499   9.956  19.600  0.00  0.00    +0.000 NA
ATOM      2  H   UNL     1      -0.196   9.481  20.181  0.00  0.00    +0.000 HD
ENDROOT
BRANCH   1   3
ATOM      3  S   UNL     1       0.216  11.621  19.660  0.00  0.00    +0.000 S 
ATOM      4  O   UNL     1      -0.398  11.991  18.401  0.00  0.00    +0.000 OA
ATOM      5  O   UNL     1       1.431  12.261  20.113  0.00  0.00    +0.000 OA
BRANCH   3  10
ATOM      6  C   UNL     1      -3.110  12.785  21.638  0.00  0.00    +0.000 A 
ATOM      7  C   UNL     1      -2.902  12.275  22.918  0.00  0.00    +0.000 A 
ATOM      8  C   UNL     1      -1.759  11.528  23.212  0.00  0.00    +0.000 A 
ATOM      9  C   UNL     1      -0.786  11.296  22.232  0.00  0.00    +0.000 A 
ATOM     10  C   UNL     1      -1.009  11.796  20.943  0.00  0.00    +0.000 A 
ATOM     11  C   UNL     1      -2.168  12.534  20.644  0.00  0.00    +0.000 A 
BRANCH   6  13
ATOM     12  C   UNL     1      -4.384  14.676  22.305  0.00  0.00    +0.000 C 
ATOM     13  O   UNL     1      -4.257  13.514  21.494  0.00  0.00    +0.000 OA
ENDBRANCH   6  13
BRANCH   9  14
ATOM     14  O   UNL     1       0.344  10.561  22.473  0.00  0.00    +0.000 OA
ATOM     15  C   UNL     1       0.140   9.345  23.195  0.00  0.00    +0.000 C 
ENDBRANCH   9  14
ENDBRANCH   3  10
ENDBRANCH   1   3
BRANCH   1  16
ATOM     16  C   UNL     1       0.675   9.362  18.255  0.00  0.00    +0.000 C 
BRANCH  16  17
ATOM     17  C   UNL     1       2.143   9.409  17.825  0.00  0.00    +0.000 C 
BRANCH  17  18
ATOM     18  C   UNL     1       2.823   8.082  17.932  0.00  0.00    +0.000 A 
ATOM     19  C   UNL     1       3.925   7.674  17.210  0.00  0.00    +0.000 A 
ATOM     20  S   UNL     1       4.393   6.105  17.692  0.00  0.00    +0.000 S 
ATOM     21  C   UNL     1       3.100   6.067  18.834  0.00  0.00    +0.000 A 
ATOM     22  N   UNL     1       2.349   7.152  18.845  0.00  0.00    +0.000 NA
BRANCH  21  23
ATOM     23  C   UNL     1       2.854   4.870  19.657  0.00  0.00    +0.000 A 
ATOM     24  C   UNL     1       1.745   4.763  20.517  0.00  0.00    +0.000 A 
ATOM     25  C   UNL     1       1.575   3.644  21.340  0.00  0.00    +0.000 A 
ATOM     26  C   UNL     1       2.506   2.611  21.304  0.00  0.00    +0.000 A 
ATOM     27  C   UNL     1       3.584   2.693  20.430  0.00  0.00    +0.000 A 
ATOM     28  F   UNL     1       4.474   1.694  20.393  0.00  0.00    +0.000 F 
ATOM     29  C   UNL     1       3.760   3.801  19.605  0.00  0.00    +0.000 A 
ENDBRANCH  21  23
ENDBRANCH  17  18
ENDBRANCH  16  17
ENDBRANCH   1  16
TORSDOF 8
ENDMDL
