MODEL 1
REMARK VINA RESULT:      -7.5      0.000      0.000
REMARK  Name = 
REMARK  10 active torsions:
REMARK  status: ('A' for Active; 'I' for Inactive)
REMARK    1  A    between atoms: C_1  and  C_2
REMARK    2  A    between atoms: C_3  and  C_4
REMARK    3  A    between atoms: C_3  and  C_5
REMARK    4  A    between atoms: C_6  and  C_7
REMARK    5  A    between atoms: C_8  and  C_9
REMARK    6  A    between atoms: C_8  and  C_10
REMARK    7  A    between atoms: C_11  and  C_12
REMARK    8  A    between atoms: C_13  and  C_14
REMARK    9  A    between atoms: C_18  and  C_19
REMARK   10  A    between atoms: C_18  and  C_20
REMARK                            x       y       z     vdW  Elec       q    Type
REMARK                         _______ _______ _______ _____ _____    ______ ____
ROOT
ATOM      1  C   UNL     1       6.057   6.186  17.708  0.00  0.00    +0.000 C 
ATOM      2  C   UNL     1       4.942   6.061  18.454  0.00  0.00    +0.000 C 
ENDROOT
BRANCH   2   3
ATOM      3  C   UNL     1       3.787   5.220  18.130  0.00  0.00    +0.000 C 
ATOM      4  C   UNL     1       2.533   5.733  18.050  0.00  0.00    +0.000 C 
ATOM      5  C   UNL     1       2.174   7.198  18.159  0.00  0.00    +0.000 C 
ATOM      6  C   UNL     1       1.312   4.873  17.793  0.00  0.00    +0.000 C 
ATOM      7  C   UNL     1       1.562   3.377  17.912  0.00  0.00    +0.000 C 
ATOM      8  C   UNL     1       2.851   3.013  17.198  0.00  0.00    +0.000 C 
ATOM      9  C   UNL     1       4.088   3.729  17.813  0.00  0.00    +0.000 C 
ATOM     10  C   UNL     1       5.227   3.553  16.778  0.00  0.00    +0.000 C 
ATOM     11  C   UNL     1       4.500   2.995  19.107  0.00  0.00    +0.000 C 
ENDBRANCH   2   3
BRANCH   1  13
ATOM     12  C   UNL     1       7.426   8.209  17.510  0.00  0.00    +0.000 C 
ATOM     13  C   UNL     1       7.241   6.984  18.064  0.00  0.00    +0.000 C 
ATOM     14  C   UNL     1       8.207   6.337  19.035  0.00  0.00    +0.000 C 
BRANCH  12  16
ATOM     15  C   UNL     1       8.579  10.148  18.596  0.00  0.00    +0.000 C 
ATOM     16  C   UNL     1       8.553   9.080  17.777  0.00  0.00    +0.000 C 
BRANCH  15  19
ATOM     17  C   UNL     1      11.412  12.028  20.428  0.00  0.00    +0.000 C 
ATOM     18  C   UNL     1      10.195  11.227  20.081  0.00  0.00    +0.000 C 
ATOM     19  C   UNL     1       9.780  10.963  18.823  0.00  0.00    +0.000 C 
ATOM     20  C   UNL     1      10.533  11.477  17.616  0.00  0.00    +0.000 C 
ENDBRANCH  15  19
ENDBRANCH  12  16
ENDBRANCH   1  13
TORSDOF 4
ENDMDL
MODEL 2
REMARK VINA RESULT:      -7.3      0.812      2.383
REMARK  Name = 
REMARK  10 active torsions:
REMARK  status: ('A' for Active; 'I' for Inactive)
REMARK    1  A    between atoms: C_1  and  C_2
REMARK    2  A    between atoms: C_3  and  C_4
REMARK    3  A    between atoms: C_3  and  C_5
REMARK    4  A    between atoms: C_6  and  C_7
REMARK    5  A    between atoms: C_8  and  C_9
REMARK    6  A    between atoms: C_8  and  C_10
REMARK    7  A    between atoms: C_11  and  C_12
REMARK    8  A    between atoms: C_13  and  C_14
REMARK    9  A    between atoms: C_18  and  C_19
REMARK   10  A    between atoms: C_18  and  C_20
REMARK                            x       y       z     vdW  Elec       q    Type
REMARK                         _______ _______ _______ _____ _____    ______ ____
ROOT
ATOM      1  C   UNL     1       5.919   6.445  17.706  0.00  0.00    +0.000 C 
ATOM      2  C   UNL     1       5.155   5.739  18.563  0.00  0.00    +0.000 C 
ENDROOT
BRANCH   2   3
ATOM      3  C   UNL     1       3.943   4.996  18.212  0.00  0.00    +0.000 C 
ATOM      4  C   UNL     1       3.967   3.970  17.322  0.00  0.00    +0.000 C 
ATOM      5  C   UNL     1       5.210   3.392  16.682  0.00  0.00    +0.000 C 
ATOM      6  C   UNL     1       2.717   3.237  16.884  0.00  0.00    +0.000 C 
ATOM      7  C   UNL     1       1.416   3.911  17.295  0.00  0.00    +0.000 C 
ATOM      8  C   UNL     1       1.507   4.361  18.742  0.00  0.00    +0.000 C 
ATOM      9  C   UNL     1       2.645   5.398  18.968  0.00  0.00    +0.000 C 
ATOM     10  C   UNL     1       2.842   5.471  20.502  0.00  0.00    +0.000 C 
ATOM     11  C   UNL     1       2.167   6.782  18.480  0.00  0.00    +0.000 C 
ENDBRANCH   2   3
BRANCH   1  13
ATOM     12  C   UNL     1       7.379   8.410  17.618  0.00  0.00    +0.000 C 
ATOM     13  C   UNL     1       7.170   7.141  18.049  0.00  0.00    +0.000 C 
ATOM     14  C   UNL     1       8.170   6.345  18.861  0.00  0.00    +0.000 C 
BRANCH  12  16
ATOM     15  C   UNL     1       8.635  10.400  18.476  0.00  0.00    +0.000 C 
ATOM     16  C   UNL     1       8.571   9.193  17.885  0.00  0.00    +0.000 C 
BRANCH  15  19
ATOM     17  C   UNL     1      11.908  12.348  17.835  0.00  0.00    +0.000 C 
ATOM     18  C   UNL     1      10.621  11.594  17.695  0.00  0.00    +0.000 C 
ATOM     19  C   UNL     1       9.896  11.111  18.727  0.00  0.00    +0.000 C 
ATOM     20  C   UNL     1      10.341  11.291  20.162  0.00  0.00    +0.000 C 
ENDBRANCH  15  19
ENDBRANCH  12  16
ENDBRANCH   1  13
TORSDOF 4
ENDMDL
MODEL 3
REMARK VINA RESULT:      -7.3      4.764      7.109
REMARK  Name = 
REMARK  10 active torsions:
REMARK  status: ('A' for Active; 'I' for Inactive)
REMARK    1  A    between atoms: C_1  and  C_2
REMARK    2  A    between atoms: C_3  and  C_4
REMARK    3  A    between atoms: C_3  and  C_5
REMARK    4  A    between atoms: C_6  and  C_7
REMARK    5  A    between atoms: C_8  and  C_9
REMARK    6  A    between atoms: C_8  and  C_10
REMARK    7  A    between atoms: C_11  and  C_12
REMARK    8  A    between atoms: C_13  and  C_14
REMARK    9  A    between atoms: C_18  and  C_19
REMARK   10  A    between atoms: C_18  and  C_20
REMARK                            x       y       z     vdW  Elec       q    Type
REMARK                         _______ _______ _______ _____ _____    ______ ____
ROOT
ATOM      1  C   UNL     1       2.513   7.025  19.185  0.00  0.00    +0.000 C 
ATOM      2  C   UNL     1       1.990   5.921  18.616  0.00  0.00    +0.000 C 
ENDROOT
BRANCH   2   3
ATOM      3  C   UNL     1       2.666   4.630  18.476  0.00  0.00    +0.000 C 
ATOM      4  C   UNL     1       3.725   4.466  17.643  0.00  0.00    +0.000 C 
ATOM      5  C   UNL     1       4.408   5.568  16.864  0.00  0.00    +0.000 C 
ATOM      6  C   UNL     1       4.393   3.125  17.422  0.00  0.00    +0.000 C 
ATOM      7  C   UNL     1       3.619   1.939  17.979  0.00  0.00    +0.000 C 
ATOM      8  C   UNL     1       3.118   2.262  19.375  0.00  0.00    +0.000 C 
ATOM      9  C   UNL     1       2.150   3.481  19.387  0.00  0.00    +0.000 C 
ATOM     10  C   UNL     1       2.029   3.900  20.873  0.00  0.00    +0.000 C 
ATOM     11  C   UNL     1       0.759   3.020  18.904  0.00  0.00    +0.000 C 
ENDBRANCH   2   3
BRANCH   1  13
ATOM     12  C   UNL     1       1.213   8.577  20.565  0.00  0.00    +0.000 C 
ATOM     13  C   UNL     1       1.812   8.304  19.379  0.00  0.00    +0.000 C 
ATOM     14  C   UNL     1       1.791   9.235  18.184  0.00  0.00    +0.000 C 
BRANCH  12  16
ATOM     15  C   UNL     1       0.046  10.199  22.075  0.00  0.00    +0.000 C 
ATOM     16  C   UNL     1       0.489   9.796  20.869  0.00  0.00    +0.000 C 
BRANCH  15  19
ATOM     17  C   UNL     1      -2.568  12.738  23.355  0.00  0.00    +0.000 C 
ATOM     18  C   UNL     1      -1.779  11.501  23.052  0.00  0.00    +0.000 C 
ATOM     19  C   UNL     1      -0.663  11.467  22.293  0.00  0.00    +0.000 C 
ATOM     20  C   UNL     1      -0.099  12.719  21.656  0.00  0.00    +0.000 C 
ENDBRANCH  15  19
ENDBRANCH  12  16
ENDBRANCH   1  13
TORSDOF 4
ENDMDL
MODEL 4
REMARK VINA RESULT:      -7.1      4.321      7.490
REMARK  Name = 
REMARK  10 active torsions:
REMARK  status: ('A' for Active; 'I' for Inactive)
REMARK    1  A    between atoms: C_1  and  C_2
REMARK    2  A    between atoms: C_3  and  C_4
REMARK    3  A    between atoms: C_3  and  C_5
REMARK    4  A    between atoms: C_6  and  C_7
REMARK    5  A    between atoms: C_8  and  C_9
REMARK    6  A    between atoms: C_8  and  C_10
REMARK    7  A    between atoms: C_11  and  C_12
REMARK    8  A    between atoms: C_13  and  C_14
REMARK    9  A    between atoms: C_18  and  C_19
REMARK   10  A    between atoms: C_18  and  C_20
REMARK                            x       y       z     vdW  Elec       q    Type
REMARK                         _______ _______ _______ _____ _____    ______ ____
ROOT
ATOM      1  C   UNL     1       2.204   7.604  19.466  0.00  0.00    +0.000 C 
ATOM      2  C   UNL     1       2.466   7.046  18.268  0.00  0.00    +0.000 C 
ENDROOT
BRANCH   2   3
ATOM      3  C   UNL     1       3.195   5.795  18.049  0.00  0.00    +0.000 C 
ATOM      4  C   UNL     1       4.434   5.779  17.495  0.00  0.00    +0.000 C 
ATOM      5  C   UNL     1       5.257   7.001  17.150  0.00  0.00    +0.000 C 
ATOM      6  C   UNL     1       5.177   4.496  17.187  0.00  0.00    +0.000 C 
ATOM      7  C   UNL     1       4.325   3.239  17.282  0.00  0.00    +0.000 C 
ATOM      8  C   UNL     1       3.479   3.286  18.542  0.00  0.00    +0.000 C 
ATOM      9  C   UNL     1       2.502   4.497  18.551  0.00  0.00    +0.000 C 
ATOM     10  C   UNL     1       1.998   4.612  20.011  0.00  0.00    +0.000 C 
ATOM     11  C   UNL     1       1.292   4.172  17.651  0.00  0.00    +0.000 C 
ENDBRANCH   2   3
BRANCH   1  13
ATOM     12  C   UNL     1       0.887   9.082  20.910  0.00  0.00    +0.000 C 
ATOM     13  C   UNL     1       1.420   8.829  19.688  0.00  0.00    +0.000 C 
ATOM     14  C   UNL     1       1.242   9.728  18.482  0.00  0.00    +0.000 C 
BRANCH  12  16
ATOM     15  C   UNL     1      -0.397  10.578  22.455  0.00  0.00    +0.000 C 
ATOM     16  C   UNL     1       0.093  10.248  21.245  0.00  0.00    +0.000 C 
BRANCH  15  19
ATOM     17  C   UNL     1      -3.244  12.901  23.641  0.00  0.00    +0.000 C 
ATOM     18  C   UNL     1      -2.376  11.724  23.319  0.00  0.00    +0.000 C 
ATOM     19  C   UNL     1      -1.176  11.798  22.705  0.00  0.00    +0.000 C 
ATOM     20  C   UNL     1      -0.588  13.123  22.269  0.00  0.00    +0.000 C 
ENDBRANCH  15  19
ENDBRANCH  12  16
ENDBRANCH   1  13
TORSDOF 4
ENDMDL
MODEL 5
REMARK VINA RESULT:      -7.1      4.884      6.673
REMARK  Name = 
REMARK  10 active torsions:
REMARK  status: ('A' for Active; 'I' for Inactive)
REMARK    1  A    between atoms: C_1  and  C_2
REMARK    2  A    between atoms: C_3  and  C_4
REMARK    3  A    between atoms: C_3  and  C_5
REMARK    4  A    between atoms: C_6  and  C_7
REMARK    5  A    between atoms: C_8  and  C_9
REMARK    6  A    between atoms: C_8  and  C_10
REMARK    7  A    between atoms: C_11  and  C_12
REMARK    8  A    between atoms: C_13  and  C_14
REMARK    9  A    between atoms: C_18  and  C_19
REMARK   10  A    between atoms: C_18  and  C_20
REMARK                            x       y       z     vdW  Elec       q    Type
REMARK                         _______ _______ _______ _____ _____    ______ ____
ROOT
ATOM      1  C   UNL     1       2.566   6.729  19.299  0.00  0.00    +0.000 C 
ATOM      2  C   UNL     1       2.117   5.699  18.555  0.00  0.00    +0.000 C 
ENDROOT
BRANCH   2   3
ATOM      3  C   UNL     1       2.745   4.380  18.455  0.00  0.00    +0.000 C 
ATOM      4  C   UNL     1       3.791   4.149  17.622  0.00  0.00    +0.000 C 
ATOM      5  C   UNL     1       4.508   5.199  16.801  0.00  0.00    +0.000 C 
ATOM      6  C   UNL     1       4.409   2.778  17.443  0.00  0.00    +0.000 C 
ATOM      7  C   UNL     1       3.597   1.641  18.044  0.00  0.00    +0.000 C 
ATOM      8  C   UNL     1       3.118   2.029  19.431  0.00  0.00    +0.000 C 
ATOM      9  C   UNL     1       2.195   3.281  19.408  0.00  0.00    +0.000 C 
ATOM     10  C   UNL     1       2.100   3.755  20.879  0.00  0.00    +0.000 C 
ATOM     11  C   UNL     1       0.784   2.855  18.950  0.00  0.00    +0.000 C 
ENDBRANCH   2   3
BRANCH   1  13
ATOM     12  C   UNL     1       1.772   8.854  18.372  0.00  0.00    +0.000 C 
ATOM     13  C   UNL     1       1.901   8.034  19.445  0.00  0.00    +0.000 C 
ATOM     14  C   UNL     1       1.423   8.380  20.840  0.00  0.00    +0.000 C 
BRANCH  12  16
ATOM     15  C   UNL     1      -0.167  10.431  18.521  0.00  0.00    +0.000 C 
ATOM     16  C   UNL     1       1.145  10.161  18.396  0.00  0.00    +0.000 C 
BRANCH  15  19
ATOM     17  C   UNL     1      -0.380  14.255  19.017  0.00  0.00    +0.000 C 
ATOM     18  C   UNL     1       0.064  12.826  18.959  0.00  0.00    +0.000 C 
ATOM     19  C   UNL     1      -0.711  11.795  18.558  0.00  0.00    +0.000 C 
ATOM     20  C   UNL     1      -2.146  12.004  18.125  0.00  0.00    +0.000 C 
ENDBRANCH  15  19
ENDBRANCH  12  16
ENDBRANCH   1  13
TORSDOF 4
ENDMDL
MODEL 6
REMARK VINA RESULT:      -7.0      4.857      6.966
REMARK  Name = 
REMARK  10 active torsions:
REMARK  status: ('A' for Active; 'I' for Inactive)
REMARK    1  A    between atoms: C_1  and  C_2
REMARK    2  A    between atoms: C_3  and  C_4
REMARK    3  A    between atoms: C_3  and  C_5
REMARK    4  A    between atoms: C_6  and  C_7
REMARK    5  A    between atoms: C_8  and  C_9
REMARK    6  A    between atoms: C_8  and  C_10
REMARK    7  A    between atoms: C_11  and  C_12
REMARK    8  A    between atoms: C_13  and  C_14
REMARK    9  A    between atoms: C_18  and  C_19
REMARK   10  A    between atoms: C_18  and  C_20
REMARK                            x       y       z     vdW  Elec       q    Type
REMARK                         _______ _______ _______ _____ _____    ______ ____
ROOT
ATOM      1  C   UNL     1       2.538   6.954  19.071  0.00  0.00    +0.000 C 
ATOM      2  C   UNL     1       2.131   5.888  18.356  0.00  0.00    +0.000 C 
ENDROOT
BRANCH   2   3
ATOM      3  C   UNL     1       2.696   4.539  18.435  0.00  0.00    +0.000 C 
ATOM      4  C   UNL     1       3.733   4.152  17.649  0.00  0.00    +0.000 C 
ATOM      5  C   UNL     1       4.501   5.050  16.704  0.00  0.00    +0.000 C 
ATOM      6  C   UNL     1       4.285   2.742  17.657  0.00  0.00    +0.000 C 
ATOM      7  C   UNL     1       3.418   1.733  18.395  0.00  0.00    +0.000 C 
ATOM      8  C   UNL     1       2.954   2.322  19.715  0.00  0.00    +0.000 C 
ATOM      9  C   UNL     1       2.091   3.602  19.519  0.00  0.00    +0.000 C 
ATOM     10  C   UNL     1       2.014   4.269  20.914  0.00  0.00    +0.000 C 
ATOM     11  C   UNL     1       0.663   3.186  19.108  0.00  0.00    +0.000 C 
ENDBRANCH   2   3
BRANCH   1  13
ATOM     12  C   UNL     1       1.237   8.755  20.105  0.00  0.00    +0.000 C 
ATOM     13  C   UNL     1       1.931   8.294  19.034  0.00  0.00    +0.000 C 
ATOM     14  C   UNL     1       2.113   9.067  17.744  0.00  0.00    +0.000 C 
BRANCH  12  16
ATOM     15  C   UNL     1      -0.636  10.374  19.731  0.00  0.00    +0.000 C 
ATOM     16  C   UNL     1       0.590  10.050  20.181  0.00  0.00    +0.000 C 
BRANCH  15  19
ATOM     17  C   UNL     1      -1.048  14.080  20.738  0.00  0.00    +0.000 C 
ATOM     18  C   UNL     1      -0.557  12.678  20.548  0.00  0.00    +0.000 C 
ATOM     19  C   UNL     1      -1.221  11.715  19.873  0.00  0.00    +0.000 C 
ATOM     20  C   UNL     1      -2.567  11.978  19.235  0.00  0.00    +0.000 C 
ENDBRANCH  15  19
ENDBRANCH  12  16
ENDBRANCH   1  13
TORSDOF 4
ENDMDL
MODEL 7
REMARK VINA RESULT:      -6.9      1.554      9.043
REMARK  Name = 
REMARK  10 active torsions:
REMARK  status: ('A' for Active; 'I' for Inactive)
REMARK    1  A    between atoms: C_1  and  C_2
REMARK    2  A    between atoms: C_3  and  C_4
REMARK    3  A    between atoms: C_3  and  C_5
REMARK    4  A    between atoms: C_6  and  C_7
REMARK    5  A    between atoms: C_8  and  C_9
REMARK    6  A    between atoms: C_8  and  C_10
REMARK    7  A    between atoms: C_11  and  C_12
REMARK    8  A    between atoms: C_13  and  C_14
REMARK    9  A    between atoms: C_18  and  C_19
REMARK   10  A    between atoms: C_18  and  C_20
REMARK                            x       y       z     vdW  Elec       q    Type
REMARK                         _______ _______ _______ _____ _____    ______ ____
ROOT
ATOM      1  C   UNL     1       8.507   9.711  17.800  0.00  0.00    +0.000 C 
ATOM      2  C   UNL     1       8.913  10.478  18.832  0.00  0.00    +0.000 C 
ENDROOT
BRANCH   2   3
ATOM      3  C   UNL     1       9.449  11.836  18.727  0.00  0.00    +0.000 C 
ATOM      4  C   UNL     1       8.890  12.762  17.907  0.00  0.00    +0.000 C 
ATOM      5  C   UNL     1       7.619  12.574  17.107  0.00  0.00    +0.000 C 
ATOM      6  C   UNL     1       9.470  14.149  17.722  0.00  0.00    +0.000 C 
ATOM      7  C   UNL     1      10.866  14.328  18.300  0.00  0.00    +0.000 C 
ATOM      8  C   UNL     1      10.932  13.708  19.684  0.00  0.00    +0.000 C 
ATOM      9  C   UNL     1      10.644  12.179  19.660  0.00  0.00    +0.000 C 
ATOM     10  C   UNL     1      10.388  11.782  21.135  0.00  0.00    +0.000 C 
ATOM     11  C   UNL     1      11.909  11.438  19.178  0.00  0.00    +0.000 C 
ENDBRANCH   2   3
BRANCH   1  13
ATOM     12  C   UNL     1       6.879   8.016  17.108  0.00  0.00    +0.000 C 
ATOM     13  C   UNL     1       7.913   8.369  17.912  0.00  0.00    +0.000 C 
ATOM     14  C   UNL     1       8.509   7.468  18.973  0.00  0.00    +0.000 C 
BRANCH  12  16
ATOM     15  C   UNL     1       4.883   6.504  17.134  0.00  0.00    +0.000 C 
ATOM     16  C   UNL     1       6.210   6.730  17.131  0.00  0.00    +0.000 C 
BRANCH  15  19
ATOM     17  C   UNL     1       2.366   3.631  17.707  0.00  0.00    +0.000 C 
ATOM     18  C   UNL     1       3.070   4.953  17.669  0.00  0.00    +0.000 C 
ATOM     19  C   UNL     1       4.293   5.158  17.135  0.00  0.00    +0.000 C 
ATOM     20  C   UNL     1       5.087   4.030  16.515  0.00  0.00    +0.000 C 
ENDBRANCH  15  19
ENDBRANCH  12  16
ENDBRANCH   1  13
TORSDOF 4
ENDMDL
MODEL 8
REMARK VINA RESULT:      -6.9      3.937      7.227
REMARK  Name = 
REMARK  10 active torsions:
REMARK  status: ('A' for Active; 'I' for Inactive)
REMARK    1  A    between atoms: C_1  and  C_2
REMARK    2  A    between atoms: C_3  and  C_4
REMARK    3  A    between atoms: C_3  and  C_5
REMARK    4  A    between atoms: C_6  and  C_7
REMARK    5  A    between atoms: C_8  and  C_9
REMARK    6  A    between atoms: C_8  and  C_10
REMARK    7  A    between atoms: C_11  and  C_12
REMARK    8  A    between atoms: C_13  and  C_14
REMARK    9  A    between atoms: C_18  and  C_19
REMARK   10  A    between atoms: C_18  and  C_20
REMARK                            x       y       z     vdW  Elec       q    Type
REMARK                         _______ _______ _______ _____ _____    ______ ____
ROOT
ATOM      1  C   UNL     1       2.199   7.857  18.116  0.00  0.00    +0.000 C 
ATOM      2  C   UNL     1       2.997   6.968  18.740  0.00  0.00    +0.000 C 
ENDROOT
BRANCH   2   3
ATOM      3  C   UNL     1       3.566   5.761  18.138  0.00  0.00    +0.000 C 
ATOM      4  C   UNL     1       4.691   5.806  17.379  0.00  0.00    +0.000 C 
ATOM      5  C   UNL     1       5.550   7.030  17.152  0.00  0.00    +0.000 C 
ATOM      6  C   UNL     1       5.257   4.586  16.681  0.00  0.00    +0.000 C 
ATOM      7  C   UNL     1       4.325   3.383  16.665  0.00  0.00    +0.000 C 
ATOM      8  C   UNL     1       3.707   3.194  18.038  0.00  0.00    +0.000 C 
ATOM      9  C   UNL     1       2.855   4.421  18.476  0.00  0.00    +0.000 C 
ATOM     10  C   UNL     1       2.611   4.237  19.994  0.00  0.00    +0.000 C 
ATOM     11  C   UNL     1       1.489   4.363  17.761  0.00  0.00    +0.000 C 
ENDBRANCH   2   3
BRANCH   1  13
ATOM     12  C   UNL     1       0.996   9.062  19.877  0.00  0.00    +0.000 C 
ATOM     13  C   UNL     1       1.676   9.100  18.704  0.00  0.00    +0.000 C 
ATOM     14  C   UNL     1       1.926  10.365  17.908  0.00  0.00    +0.000 C 
BRANCH  12  16
ATOM     15  C   UNL     1      -0.776  10.773  20.328  0.00  0.00    +0.000 C 
ATOM     16  C   UNL     1       0.429  10.217  20.547  0.00  0.00    +0.000 C 
BRANCH  15  19
ATOM     17  C   UNL     1      -2.576  14.100  21.112  0.00  0.00    +0.000 C 
ATOM     18  C   UNL     1      -2.001  12.887  20.447  0.00  0.00    +0.000 C 
ATOM     19  C   UNL     1      -1.278  11.934  21.075  0.00  0.00    +0.000 C 
ATOM     20  C   UNL     1      -0.972  12.018  22.555  0.00  0.00    +0.000 C 
ENDBRANCH  15  19
ENDBRANCH  12  16
ENDBRANCH   1  13
TORSDOF 4
ENDMDL
MODEL 9
REMARK VINA RESULT:      -6.9      4.779      6.713
REMARK  Name = 
REMARK  10 active torsions:
REMARK  status: ('A' for Active; 'I' for Inactive)
REMARK    1  A    between atoms: C_1  and  C_2
REMARK    2  A    between atoms: C_3  and  C_4
REMARK    3  A    between atoms: C_3  and  C_5
REMARK    4  A    between atoms: C_6  and  C_7
REMARK    5  A    between atoms: C_8  and  C_9
REMARK    6  A    between atoms: C_8  and  C_10
REMARK    7  A    between atoms: C_11  and  C_12
REMARK    8  A    between atoms: C_13  and  C_14
REMARK    9  A    between atoms: C_18  and  C_19
REMARK   10  A    between atoms: C_18  and  C_20
REMARK                            x       y       z     vdW  Elec       q    Type
REMARK                         _______ _______ _______ _____ _____    ______ ____
ROOT
ATOM      1  C   UNL     1       2.512   7.035  19.020  0.00  0.00    +0.000 C 
ATOM      2  C   UNL     1       2.100   5.973  18.300  0.00  0.00    +0.000 C 
ENDROOT
BRANCH   2   3
ATOM      3  C   UNL     1       2.717   4.645  18.308  0.00  0.00    +0.000 C 
ATOM      4  C   UNL     1       3.809   4.361  17.553  0.00  0.00    +0.000 C 
ATOM      5  C   UNL     1       4.586   5.359  16.723  0.00  0.00    +0.000 C 
ATOM      6  C   UNL     1       4.419   2.976  17.484  0.00  0.00    +0.000 C 
ATOM      7  C   UNL     1       3.559   1.880  18.093  0.00  0.00    +0.000 C 
ATOM      8  C   UNL     1       3.002   2.346  19.427  0.00  0.00    +0.000 C 
ATOM      9  C   UNL     1       2.097   3.603  19.281  0.00  0.00    +0.000 C 
ATOM     10  C   UNL     1       1.919   4.155  20.718  0.00  0.00    +0.000 C 
ATOM     11  C   UNL     1       0.711   3.166  18.762  0.00  0.00    +0.000 C 
ENDBRANCH   2   3
BRANCH   1  13
ATOM     12  C   UNL     1       1.139   8.722  20.148  0.00  0.00    +0.000 C 
ATOM     13  C   UNL     1       1.856   8.352  19.057  0.00  0.00    +0.000 C 
ATOM     14  C   UNL     1       2.018   9.206  17.817  0.00  0.00    +0.000 C 
BRANCH  12  16
ATOM     15  C   UNL     1       0.692  10.949  21.203  0.00  0.00    +0.000 C 
ATOM     16  C   UNL     1       0.445   9.987  20.295  0.00  0.00    +0.000 C 
BRANCH  15  19
ATOM     17  C   UNL     1      -0.738  14.386  20.173  0.00  0.00    +0.000 C 
ATOM     18  C   UNL     1      -0.006  13.080  20.227  0.00  0.00    +0.000 C 
ATOM     19  C   UNL     1      -0.052  12.214  21.263  0.00  0.00    +0.000 C 
ATOM     20  C   UNL     1      -0.872  12.503  22.502  0.00  0.00    +0.000 C 
ENDBRANCH  15  19
ENDBRANCH  12  16
ENDBRANCH   1  13
TORSDOF 4
ENDMDL
