MODEL 1
REMARK VINA RESULT:      -7.7      0.000      0.000
REMARK  Name = 
REMARK  5 active torsions:
REMARK  status: ('A' for Active; 'I' for Inactive)
REMARK    1  A    between atoms: C_2  and  O_3
REMARK    2  A    between atoms: C_2  and  C_4
REMARK    3  A    between atoms: C_4  and  N_5
REMARK    4  A    between atoms: C_8  and  N_9
REMARK    5  A    between atoms: C_10  and  C_12
REMARK                            x       y       z     vdW  Elec       q    Type
REMARK                         _______ _______ _______ _____ _____    ______ ____
ROOT
ATOM      1  N   UNL     1       4.014   5.315  18.905  0.00  0.00    +0.000 N 
ATOM      2  C   UNL     1       3.226   6.445  18.775  0.00  0.00    +0.000 C 
ATOM      3  O   UNL     1       3.323   7.116  17.742  0.00  0.00    +0.000 OA
ATOM      4  C   UNL     1       2.414   6.906  20.004  0.00  0.00    +0.000 C 
ATOM      5  C   UNL     1       1.428   5.866  20.527  0.00  0.00    +0.000 C 
ATOM      6  C   UNL     1       2.128   4.619  21.038  0.00  0.00    +0.000 C 
ATOM      7  C   UNL     1       2.461   3.696  19.901  0.00  0.00    +0.000 A 
ATOM      8  C   UNL     1       1.796   2.464  19.801  0.00  0.00    +0.000 A 
ATOM      9  C   UNL     1       2.093   1.576  18.771  0.00  0.00    +0.000 A 
ATOM     10  C   UNL     1       3.088   1.890  17.850  0.00  0.00    +0.000 A 
ATOM     11  C   UNL     1       3.772   3.104  17.948  0.00  0.00    +0.000 A 
ATOM     12  C   UNL     1       3.435   4.025  18.948  0.00  0.00    +0.000 A 
ENDROOT
BRANCH   4  13
ATOM     13  N   UNL     1       1.681   8.131  19.677  0.00  0.00    +0.000 N 
ATOM     14  C   UNL     1       1.199   8.964  20.661  0.00  0.00    +0.000 C 
ATOM     15  O   UNL     1       1.400   8.773  21.858  0.00  0.00    +0.000 OA
ATOM     16  H   UNL     1       1.617   8.392  18.698  0.00  0.00    +0.000 HD
BRANCH  14  17
ATOM     17  C   UNL     1       0.422  10.151  20.206  0.00  0.00    +0.000 A 
ATOM     18  C   UNL     1      -0.139  10.220  18.924  0.00  0.00    +0.000 A 
ATOM     19  C   UNL     1      -0.855  11.355  18.535  0.00  0.00    +0.000 A 
ATOM     20  C   UNL     1      -1.022  12.417  19.423  0.00  0.00    +0.000 A 
ATOM     21  C   UNL     1      -0.489  12.342  20.709  0.00  0.00    +0.000 A 
ATOM     22  C   UNL     1       0.226  11.208  21.105  0.00  0.00    +0.000 A 
ENDBRANCH  14  17
ENDBRANCH   4  13
BRANCH   1  23
ATOM     23  C   UNL     1       5.425   5.473  19.258  0.00  0.00    +0.000 C 
BRANCH  23  25
ATOM     24  O   UNL     1       6.515   6.206  17.232  0.00  0.00    +0.000 OA
ATOM     25  C   UNL     1       6.416   5.359  18.107  0.00  0.00    +0.000 C 
BRANCH  25  26
ATOM     26  O   UNL     1       7.162   4.232  18.105  0.00  0.00    +0.000 OA
ATOM     27  H   UNL     1       8.102   4.414  17.882  0.00  0.00    +0.000 HD
ENDBRANCH  25  26
ENDBRANCH  23  25
ENDBRANCH   1  23
TORSDOF 5
ENDMDL
MODEL 2
REMARK VINA RESULT:      -7.7      2.513      4.113
REMARK  Name = 
REMARK  5 active torsions:
REMARK  status: ('A' for Active; 'I' for Inactive)
REMARK    1  A    between atoms: C_2  and  O_3
REMARK    2  A    between atoms: C_2  and  C_4
REMARK    3  A    between atoms: C_4  and  N_5
REMARK    4  A    between atoms: C_8  and  N_9
REMARK    5  A    between atoms: C_10  and  C_12
REMARK                            x       y       z     vdW  Elec       q    Type
REMARK                         _______ _______ _______ _____ _____    ______ ____
ROOT
ATOM      1  N   UNL     1       6.680   5.483  16.978  0.00  0.00    +0.000 N 
ATOM      2  C   UNL     1       5.720   6.360  17.450  0.00  0.00    +0.000 C 
ATOM      3  O   UNL     1       6.011   7.557  17.546  0.00  0.00    +0.000 OA
ATOM      4  C   UNL     1       4.408   5.766  18.006  0.00  0.00    +0.000 C 
ATOM      5  C   UNL     1       3.629   4.922  17.002  0.00  0.00    +0.000 C 
ATOM      6  C   UNL     1       4.400   3.686  16.572  0.00  0.00    +0.000 C 
ATOM      7  C   UNL     1       5.383   4.026  15.488  0.00  0.00    +0.000 A 
ATOM      8  C   UNL     1       5.177   3.522  14.194  0.00  0.00    +0.000 A 
ATOM      9  C   UNL     1       6.077   3.801  13.170  0.00  0.00    +0.000 A 
ATOM     10  C   UNL     1       7.217   4.554  13.435  0.00  0.00    +0.000 A 
ATOM     11  C   UNL     1       7.445   5.047  14.721  0.00  0.00    +0.000 A 
ATOM     12  C   UNL     1       6.512   4.817  15.741  0.00  0.00    +0.000 A 
ENDROOT
BRANCH   4  13
ATOM     13  N   UNL     1       3.545   6.846  18.487  0.00  0.00    +0.000 N 
ATOM     14  C   UNL     1       2.664   6.653  19.528  0.00  0.00    +0.000 C 
ATOM     15  O   UNL     1       2.589   5.599  20.153  0.00  0.00    +0.000 OA
ATOM     16  H   UNL     1       3.681   7.769  18.085  0.00  0.00    +0.000 HD
BRANCH  14  17
ATOM     17  C   UNL     1       1.800   7.811  19.892  0.00  0.00    +0.000 A 
ATOM     18  C   UNL     1       1.227   7.934  21.165  0.00  0.00    +0.000 A 
ATOM     19  C   UNL     1       0.417   9.032  21.463  0.00  0.00    +0.000 A 
ATOM     20  C   UNL     1       0.184  10.013  20.499  0.00  0.00    +0.000 A 
ATOM     21  C   UNL     1       0.773   9.909  19.240  0.00  0.00    +0.000 A 
ATOM     22  C   UNL     1       1.587   8.813  18.937  0.00  0.00    +0.000 A 
ENDBRANCH  14  17
ENDBRANCH   4  13
BRANCH   1  23
ATOM     23  C   UNL     1       7.747   5.049  17.880  0.00  0.00    +0.000 C 
BRANCH  23  25
ATOM     24  O   UNL     1       7.422   5.416  20.244  0.00  0.00    +0.000 OA
ATOM     25  C   UNL     1       7.872   5.826  19.184  0.00  0.00    +0.000 C 
BRANCH  25  26
ATOM     26  O   UNL     1       8.494   7.021  19.080  0.00  0.00    +0.000 OA
ATOM     27  H   UNL     1       8.712   7.244  18.148  0.00  0.00    +0.000 HD
ENDBRANCH  25  26
ENDBRANCH  23  25
ENDBRANCH   1  23
TORSDOF 5
ENDMDL
MODEL 3
REMARK VINA RESULT:      -7.7      0.691      1.180
REMARK  Name = 
REMARK  5 active torsions:
REMARK  status: ('A' for Active; 'I' for Inactive)
REMARK    1  A    between atoms: C_2  and  O_3
REMARK    2  A    between atoms: C_2  and  C_4
REMARK    3  A    between atoms: C_4  and  N_5
REMARK    4  A    between atoms: C_8  and  N_9
REMARK    5  A    between atoms: C_10  and  C_12
REMARK                            x       y       z     vdW  Elec       q    Type
REMARK                         _______ _______ _______ _____ _____    ______ ____
ROOT
ATOM      1  N   UNL     1       4.105   5.343  18.880  0.00  0.00    +0.000 N 
ATOM      2  C   UNL     1       3.370   6.481  18.603  0.00  0.00    +0.000 C 
ATOM      3  O   UNL     1       3.573   7.070  17.536  0.00  0.00    +0.000 OA
ATOM      4  C   UNL     1       2.476   7.056  19.723  0.00  0.00    +0.000 C 
ATOM      5  C   UNL     1       1.416   6.085  20.236  0.00  0.00    +0.000 C 
ATOM      6  C   UNL     1       2.029   4.861  20.892  0.00  0.00    +0.000 C 
ATOM      7  C   UNL     1       2.422   3.846  19.856  0.00  0.00    +0.000 A 
ATOM      8  C   UNL     1       1.726   2.629  19.790  0.00  0.00    +0.000 A 
ATOM      9  C   UNL     1       2.075   1.659  18.855  0.00  0.00    +0.000 A 
ATOM     10  C   UNL     1       3.152   1.876  18.001  0.00  0.00    +0.000 A 
ATOM     11  C   UNL     1       3.866   3.074  18.067  0.00  0.00    +0.000 A 
ATOM     12  C   UNL     1       3.481   4.076  18.967  0.00  0.00    +0.000 A 
ENDROOT
BRANCH   4  13
ATOM     13  N   UNL     1       1.814   8.272  19.249  0.00  0.00    +0.000 N 
ATOM     14  C   UNL     1       1.240   9.166  20.124  0.00  0.00    +0.000 C 
ATOM     15  O   UNL     1       1.297   9.038  21.344  0.00  0.00    +0.000 OA
ATOM     16  H   UNL     1       1.871   8.480  18.256  0.00  0.00    +0.000 HD
BRANCH  14  17
ATOM     17  C   UNL     1       0.548  10.339  19.520  0.00  0.00    +0.000 A 
ATOM     18  C   UNL     1       1.161  11.597  19.439  0.00  0.00    +0.000 A 
ATOM     19  C   UNL     1       0.475  12.673  18.870  0.00  0.00    +0.000 A 
ATOM     20  C   UNL     1      -0.816  12.496  18.373  0.00  0.00    +0.000 A 
ATOM     21  C   UNL     1      -1.419  11.240  18.426  0.00  0.00    +0.000 A 
ATOM     22  C   UNL     1      -0.736  10.160  18.992  0.00  0.00    +0.000 A 
ENDBRANCH  14  17
ENDBRANCH   4  13
BRANCH   1  23
ATOM     23  C   UNL     1       5.488   5.487  19.337  0.00  0.00    +0.000 C 
BRANCH  23  25
ATOM     24  O   UNL     1       7.357   4.483  18.186  0.00  0.00    +0.000 OA
ATOM     25  C   UNL     1       6.558   5.405  18.257  0.00  0.00    +0.000 C 
BRANCH  25  26
ATOM     26  O   UNL     1       6.579   6.444  17.393  0.00  0.00    +0.000 OA
ATOM     27  H   UNL     1       7.365   6.416  16.802  0.00  0.00    +0.000 HD
ENDBRANCH  25  26
ENDBRANCH  23  25
ENDBRANCH   1  23
TORSDOF 5
ENDMDL
MODEL 4
REMARK VINA RESULT:      -7.6      0.984      1.116
REMARK  Name = 
REMARK  5 active torsions:
REMARK  status: ('A' for Active; 'I' for Inactive)
REMARK    1  A    between atoms: C_2  and  O_3
REMARK    2  A    between atoms: C_2  and  C_4
REMARK    3  A    between atoms: C_4  and  N_5
REMARK    4  A    between atoms: C_8  and  N_9
REMARK    5  A    between atoms: C_10  and  C_12
REMARK                            x       y       z     vdW  Elec       q    Type
REMARK                         _______ _______ _______ _____ _____    ______ ____
ROOT
ATOM      1  N   UNL     1       3.445   5.723  18.329  0.00  0.00    +0.000 N 
ATOM      2  C   UNL     1       2.576   6.777  18.552  0.00  0.00    +0.000 C 
ATOM      3  O   UNL     1       2.241   7.479  17.593  0.00  0.00    +0.000 OA
ATOM      4  C   UNL     1       2.227   7.129  20.015  0.00  0.00    +0.000 C 
ATOM      5  C   UNL     1       1.581   5.988  20.795  0.00  0.00    +0.000 C 
ATOM      6  C   UNL     1       2.515   4.800  20.951  0.00  0.00    +0.000 C 
ATOM      7  C   UNL     1       2.488   3.941  19.719  0.00  0.00    +0.000 A 
ATOM      8  C   UNL     1       1.931   2.654  19.793  0.00  0.00    +0.000 A 
ATOM      9  C   UNL     1       1.906   1.824  18.676  0.00  0.00    +0.000 A 
ATOM     10  C   UNL     1       2.475   2.254  17.480  0.00  0.00    +0.000 A 
ATOM     11  C   UNL     1       3.049   3.524  17.396  0.00  0.00    +0.000 A 
ATOM     12  C   UNL     1       3.024   4.384  18.502  0.00  0.00    +0.000 A 
ENDROOT
BRANCH   4  13
ATOM     13  N   UNL     1       1.331   8.287  20.041  0.00  0.00    +0.000 N 
ATOM     14  C   UNL     1       1.136   9.019  21.190  0.00  0.00    +0.000 C 
ATOM     15  O   UNL     1       1.737   8.793  22.237  0.00  0.00    +0.000 OA
ATOM     16  H   UNL     1       0.926   8.586  19.159  0.00  0.00    +0.000 HD
BRANCH  14  17
ATOM     17  C   UNL     1       0.160  10.141  21.107  0.00  0.00    +0.000 A 
ATOM     18  C   UNL     1      -0.304  10.627  19.877  0.00  0.00    +0.000 A 
ATOM     19  C   UNL     1      -1.215  11.686  19.844  0.00  0.00    +0.000 A 
ATOM     20  C   UNL     1      -1.673  12.255  21.032  0.00  0.00    +0.000 A 
ATOM     21  C   UNL     1      -1.235  11.757  22.258  0.00  0.00    +0.000 A 
ATOM     22  C   UNL     1      -0.325  10.696  22.298  0.00  0.00    +0.000 A 
ENDBRANCH  14  17
ENDBRANCH   4  13
BRANCH   1  23
ATOM     23  C   UNL     1       4.871   6.005  18.164  0.00  0.00    +0.000 C 
BRANCH  23  25
ATOM     24  O   UNL     1       6.182   5.160  20.007  0.00  0.00    +0.000 OA
ATOM     25  C   UNL     1       5.824   5.032  18.845  0.00  0.00    +0.000 C 
BRANCH  25  26
ATOM     26  O   UNL     1       6.272   4.027  18.061  0.00  0.00    +0.000 OA
ATOM     27  H   UNL     1       5.913   3.155  18.339  0.00  0.00    +0.000 HD
ENDBRANCH  25  26
ENDBRANCH  23  25
ENDBRANCH   1  23
TORSDOF 5
ENDMDL
MODEL 5
REMARK VINA RESULT:      -7.5      1.080      1.549
REMARK  Name = 
REMARK  5 active torsions:
REMARK  status: ('A' for Active; 'I' for Inactive)
REMARK    1  A    between atoms: C_2  and  O_3
REMARK    2  A    between atoms: C_2  and  C_4
REMARK    3  A    between atoms: C_4  and  N_5
REMARK    4  A    between atoms: C_8  and  N_9
REMARK    5  A    between atoms: C_10  and  C_12
REMARK                            x       y       z     vdW  Elec       q    Type
REMARK                         _______ _______ _______ _____ _____    ______ ____
ROOT
ATOM      1  N   UNL     1       3.526   5.837  18.473  0.00  0.00    +0.000 N 
ATOM      2  C   UNL     1       2.642   6.884  18.667  0.00  0.00    +0.000 C 
ATOM      3  O   UNL     1       2.401   7.638  17.719  0.00  0.00    +0.000 OA
ATOM      4  C   UNL     1       2.157   7.163  20.107  0.00  0.00    +0.000 C 
ATOM      5  C   UNL     1       1.437   5.987  20.762  0.00  0.00    +0.000 C 
ATOM      6  C   UNL     1       2.349   4.786  20.943  0.00  0.00    +0.000 C 
ATOM      7  C   UNL     1       2.438   3.992  19.671  0.00  0.00    +0.000 A 
ATOM      8  C   UNL     1       1.874   2.707  19.624  0.00  0.00    +0.000 A 
ATOM      9  C   UNL     1       1.953   1.936  18.468  0.00  0.00    +0.000 A 
ATOM     10  C   UNL     1       2.634   2.423  17.356  0.00  0.00    +0.000 A 
ATOM     11  C   UNL     1       3.216   3.692  17.393  0.00  0.00    +0.000 A 
ATOM     12  C   UNL     1       3.088   4.494  18.535  0.00  0.00    +0.000 A 
ENDROOT
BRANCH   4  13
ATOM     13  N   UNL     1       1.265   8.324  20.108  0.00  0.00    +0.000 N 
ATOM     14  C   UNL     1       1.078   9.085  21.240  0.00  0.00    +0.000 C 
ATOM     15  O   UNL     1       1.683   8.883  22.289  0.00  0.00    +0.000 OA
ATOM     16  H   UNL     1       0.856   8.602  19.221  0.00  0.00    +0.000 HD
BRANCH  14  17
ATOM     17  C   UNL     1       0.105  10.208  21.134  0.00  0.00    +0.000 A 
ATOM     18  C   UNL     1      -0.430  10.832  22.269  0.00  0.00    +0.000 A 
ATOM     19  C   UNL     1      -1.345  11.878  22.125  0.00  0.00    +0.000 A 
ATOM     20  C   UNL     1      -1.721  12.310  20.853  0.00  0.00    +0.000 A 
ATOM     21  C   UNL     1      -1.172  11.709  19.721  0.00  0.00    +0.000 A 
ATOM     22  C   UNL     1      -0.254  10.664  19.859  0.00  0.00    +0.000 A 
ENDBRANCH  14  17
ENDBRANCH   4  13
BRANCH   1  23
ATOM     23  C   UNL     1       4.962   6.117  18.459  0.00  0.00    +0.000 C 
BRANCH  23  25
ATOM     24  O   UNL     1       6.574   7.295  17.101  0.00  0.00    +0.000 OA
ATOM     25  C   UNL     1       5.516   6.687  17.159  0.00  0.00    +0.000 C 
BRANCH  25  26
ATOM     26  O   UNL     1       4.735   6.495  16.073  0.00  0.00    +0.000 OA
ATOM     27  H   UNL     1       4.115   5.742  16.192  0.00  0.00    +0.000 HD
ENDBRANCH  25  26
ENDBRANCH  23  25
ENDBRANCH   1  23
TORSDOF 5
ENDMDL
MODEL 6
REMARK VINA RESULT:      -7.5      1.114      1.254
REMARK  Name = 
REMARK  5 active torsions:
REMARK  status: ('A' for Active; 'I' for Inactive)
REMARK    1  A    between atoms: C_2  and  O_3
REMARK    2  A    between atoms: C_2  and  C_4
REMARK    3  A    between atoms: C_4  and  N_5
REMARK    4  A    between atoms: C_8  and  N_9
REMARK    5  A    between atoms: C_10  and  C_12
REMARK                            x       y       z     vdW  Elec       q    Type
REMARK                         _______ _______ _______ _____ _____    ______ ____
ROOT
ATOM      1  N   UNL     1       3.493   5.838  18.455  0.00  0.00    +0.000 N 
ATOM      2  C   UNL     1       2.614   6.888  18.650  0.00  0.00    +0.000 C 
ATOM      3  O   UNL     1       2.342   7.617  17.691  0.00  0.00    +0.000 OA
ATOM      4  C   UNL     1       2.172   7.201  20.097  0.00  0.00    +0.000 C 
ATOM      5  C   UNL     1       1.476   6.041  20.802  0.00  0.00    +0.000 C 
ATOM      6  C   UNL     1       2.396   4.846  20.985  0.00  0.00    +0.000 C 
ATOM      7  C   UNL     1       2.447   4.021  19.731  0.00  0.00    +0.000 A 
ATOM      8  C   UNL     1       1.885   2.735  19.734  0.00  0.00    +0.000 A 
ATOM      9  C   UNL     1       1.930   1.935  18.595  0.00  0.00    +0.000 A 
ATOM     10  C   UNL     1       2.575   2.395  17.450  0.00  0.00    +0.000 A 
ATOM     11  C   UNL     1       3.155   3.665  17.438  0.00  0.00    +0.000 A 
ATOM     12  C   UNL     1       3.060   4.496  18.563  0.00  0.00    +0.000 A 
ENDROOT
BRANCH   4  13
ATOM     13  N   UNL     1       1.278   8.360  20.097  0.00  0.00    +0.000 N 
ATOM     14  C   UNL     1       1.061   9.100  21.238  0.00  0.00    +0.000 C 
ATOM     15  O   UNL     1       1.640   8.879  22.298  0.00  0.00    +0.000 OA
ATOM     16  H   UNL     1       0.892   8.654  19.205  0.00  0.00    +0.000 HD
BRANCH  14  17
ATOM     17  C   UNL     1       0.089  10.223  21.128  0.00  0.00    +0.000 A 
ATOM     18  C   UNL     1      -0.354  10.698  19.886  0.00  0.00    +0.000 A 
ATOM     19  C   UNL     1      -1.262  11.758  19.827  0.00  0.00    +0.000 A 
ATOM     20  C   UNL     1      -1.737  12.340  21.002  0.00  0.00    +0.000 A 
ATOM     21  C   UNL     1      -1.321  11.853  22.240  0.00  0.00    +0.000 A 
ATOM     22  C   UNL     1      -0.414  10.791  22.305  0.00  0.00    +0.000 A 
ENDBRANCH  14  17
ENDBRANCH   4  13
BRANCH   1  23
ATOM     23  C   UNL     1       4.928   6.119  18.389  0.00  0.00    +0.000 C 
BRANCH  23  25
ATOM     24  O   UNL     1       4.949   6.242  15.978  0.00  0.00    +0.000 OA
ATOM     25  C   UNL     1       5.453   6.584  17.037  0.00  0.00    +0.000 C 
BRANCH  25  26
ATOM     26  O   UNL     1       6.542   7.383  17.091  0.00  0.00    +0.000 OA
ATOM     27  H   UNL     1       7.044   7.379  16.246  0.00  0.00    +0.000 HD
ENDBRANCH  25  26
ENDBRANCH  23  25
ENDBRANCH   1  23
TORSDOF 5
ENDMDL
MODEL 7
REMARK VINA RESULT:      -7.4      2.155      3.844
REMARK  Name = 
REMARK  5 active torsions:
REMARK  status: ('A' for Active; 'I' for Inactive)
REMARK    1  A    between atoms: C_2  and  O_3
REMARK    2  A    between atoms: C_2  and  C_4
REMARK    3  A    between atoms: C_4  and  N_5
REMARK    4  A    between atoms: C_8  and  N_9
REMARK    5  A    between atoms: C_10  and  C_12
REMARK                            x       y       z     vdW  Elec       q    Type
REMARK                         _______ _______ _______ _____ _____    ______ ____
ROOT
ATOM      1  N   UNL     1       3.524   4.931  18.494  0.00  0.00    +0.000 N 
ATOM      2  C   UNL     1       2.850   5.772  19.362  0.00  0.00    +0.000 C 
ATOM      3  O   UNL     1       2.615   5.374  20.507  0.00  0.00    +0.000 OA
ATOM      4  C   UNL     1       2.266   7.082  18.791  0.00  0.00    +0.000 C 
ATOM      5  C   UNL     1       3.303   8.008  18.162  0.00  0.00    +0.000 C 
ATOM      6  C   UNL     1       3.968   7.381  16.948  0.00  0.00    +0.000 C 
ATOM      7  C   UNL     1       5.079   6.461  17.369  0.00  0.00    +0.000 A 
ATOM      8  C   UNL     1       6.406   6.811  17.076  0.00  0.00    +0.000 A 
ATOM      9  C   UNL     1       7.459   5.974  17.435  0.00  0.00    +0.000 A 
ATOM     10  C   UNL     1       7.195   4.756  18.055  0.00  0.00    +0.000 A 
ATOM     11  C   UNL     1       5.879   4.386  18.337  0.00  0.00    +0.000 A 
ATOM     12  C   UNL     1       4.821   5.252  18.030  0.00  0.00    +0.000 A 
ENDROOT
BRANCH   4  13
ATOM     13  N   UNL     1       1.563   7.810  19.850  0.00  0.00    +0.000 N 
ATOM     14  C   UNL     1       0.909   8.994  19.596  0.00  0.00    +0.000 C 
ATOM     15  O   UNL     1       0.818   9.480  18.472  0.00  0.00    +0.000 OA
ATOM     16  H   UNL     1       1.500   7.366  20.761  0.00  0.00    +0.000 HD
BRANCH  14  17
ATOM     17  C   UNL     1       0.277   9.669  20.764  0.00  0.00    +0.000 A 
ATOM     18  C   UNL     1      -0.228  10.974  20.679  0.00  0.00    +0.000 A 
ATOM     19  C   UNL     1      -0.806  11.573  21.801  0.00  0.00    +0.000 A 
ATOM     20  C   UNL     1      -0.892  10.872  23.004  0.00  0.00    +0.000 A 
ATOM     21  C   UNL     1      -0.415   9.564  23.086  0.00  0.00    +0.000 A 
ATOM     22  C   UNL     1       0.162   8.959  21.966  0.00  0.00    +0.000 A 
ENDBRANCH  14  17
ENDBRANCH   4  13
BRANCH   1  23
ATOM     23  C   UNL     1       2.791   3.838  17.857  0.00  0.00    +0.000 C 
BRANCH  23  25
ATOM     24  O   UNL     1       3.497   1.555  18.204  0.00  0.00    +0.000 OA
ATOM     25  C   UNL     1       2.823   2.501  18.586  0.00  0.00    +0.000 C 
BRANCH  25  26
ATOM     26  O   UNL     1       2.028   2.424  19.675  0.00  0.00    +0.000 OA
ATOM     27  H   UNL     1       1.381   1.687  19.609  0.00  0.00    +0.000 HD
ENDBRANCH  25  26
ENDBRANCH  23  25
ENDBRANCH   1  23
TORSDOF 5
ENDMDL
MODEL 8
REMARK VINA RESULT:      -7.1      2.798      7.981
REMARK  Name = 
REMARK  5 active torsions:
REMARK  status: ('A' for Active; 'I' for Inactive)
REMARK    1  A    between atoms: C_2  and  O_3
REMARK    2  A    between atoms: C_2  and  C_4
REMARK    3  A    between atoms: C_4  and  N_5
REMARK    4  A    between atoms: C_8  and  N_9
REMARK    5  A    between atoms: C_10  and  C_12
REMARK                            x       y       z     vdW  Elec       q    Type
REMARK                         _______ _______ _______ _____ _____    ______ ____
ROOT
ATOM      1  N   UNL     1      -0.127  10.329  19.035  0.00  0.00    +0.000 N 
ATOM      2  C   UNL     1       1.107   9.746  18.805  0.00  0.00    +0.000 C 
ATOM      3  O   UNL     1       1.901  10.321  18.052  0.00  0.00    +0.000 OA
ATOM      4  C   UNL     1       1.346   8.321  19.350  0.00  0.00    +0.000 C 
ATOM      5  C   UNL     1       1.191   8.197  20.863  0.00  0.00    +0.000 C 
ATOM      6  C   UNL     1      -0.226   8.496  21.320  0.00  0.00    +0.000 C 
ATOM      7  C   UNL     1      -0.441   9.978  21.444  0.00  0.00    +0.000 A 
ATOM      8  C   UNL     1      -0.632  10.538  22.716  0.00  0.00    +0.000 A 
ATOM      9  C   UNL     1      -0.852  11.904  22.867  0.00  0.00    +0.000 A 
ATOM     10  C   UNL     1      -0.925  12.722  21.744  0.00  0.00    +0.000 A 
ATOM     11  C   UNL     1      -0.755  12.176  20.470  0.00  0.00    +0.000 A 
ATOM     12  C   UNL     1      -0.475  10.812  20.318  0.00  0.00    +0.000 A 
ENDROOT
BRANCH   4  13
ATOM     13  N   UNL     1       2.687   7.870  18.973  0.00  0.00    +0.000 N 
ATOM     14  C   UNL     1       2.899   6.627  18.421  0.00  0.00    +0.000 C 
ATOM     15  O   UNL     1       1.986   5.850  18.154  0.00  0.00    +0.000 OA
ATOM     16  H   UNL     1       3.447   8.541  19.051  0.00  0.00    +0.000 HD
BRANCH  14  17
ATOM     17  C   UNL     1       4.313   6.260  18.130  0.00  0.00    +0.000 A 
ATOM     18  C   UNL     1       4.965   6.695  16.969  0.00  0.00    +0.000 A 
ATOM     19  C   UNL     1       6.291   6.322  16.731  0.00  0.00    +0.000 A 
ATOM     20  C   UNL     1       6.971   5.525  17.652  0.00  0.00    +0.000 A 
ATOM     21  C   UNL     1       6.335   5.112  18.822  0.00  0.00    +0.000 A 
ATOM     22  C   UNL     1       5.009   5.484  19.066  0.00  0.00    +0.000 A 
ENDBRANCH  14  17
ENDBRANCH   4  13
BRANCH   1  23
ATOM     23  C   UNL     1      -1.166  10.212  18.012  0.00  0.00    +0.000 C 
BRANCH  23  25
ATOM     24  O   UNL     1      -3.155  11.581  18.029  0.00  0.00    +0.000 OA
ATOM     25  C   UNL     1      -1.973  11.474  17.737  0.00  0.00    +0.000 C 
BRANCH  25  26
ATOM     26  O   UNL     1      -1.293  12.464  17.116  0.00  0.00    +0.000 OA
ATOM     27  H   UNL     1      -0.539  12.788  17.657  0.00  0.00    +0.000 HD
ENDBRANCH  25  26
ENDBRANCH  23  25
ENDBRANCH   1  23
TORSDOF 5
ENDMDL
MODEL 9
REMARK VINA RESULT:      -7.1      2.282      3.860
REMARK  Name = 
REMARK  5 active torsions:
REMARK  status: ('A' for Active; 'I' for Inactive)
REMARK    1  A    between atoms: C_2  and  O_3
REMARK    2  A    between atoms: C_2  and  C_4
REMARK    3  A    between atoms: C_4  and  N_5
REMARK    4  A    between atoms: C_8  and  N_9
REMARK    5  A    between atoms: C_10  and  C_12
REMARK                            x       y       z     vdW  Elec       q    Type
REMARK                         _______ _______ _______ _____ _____    ______ ____
ROOT
ATOM      1  N   UNL     1       2.706   5.368  18.824  0.00  0.00    +0.000 N 
ATOM      2  C   UNL     1       2.184   6.369  19.623  0.00  0.00    +0.000 C 
ATOM      3  O   UNL     1       1.916   6.107  20.800  0.00  0.00    +0.000 OA
ATOM      4  C   UNL     1       1.790   7.701  18.948  0.00  0.00    +0.000 C 
ATOM      5  C   UNL     1       2.941   8.404  18.234  0.00  0.00    +0.000 C 
ATOM      6  C   UNL     1       3.479   7.587  17.072  0.00  0.00    +0.000 C 
ATOM      7  C   UNL     1       4.448   6.548  17.560  0.00  0.00    +0.000 A 
ATOM      8  C   UNL     1       5.806   6.667  17.226  0.00  0.00    +0.000 A 
ATOM      9  C   UNL     1       6.729   5.713  17.645  0.00  0.00    +0.000 A 
ATOM     10  C   UNL     1       6.299   4.604  18.369  0.00  0.00    +0.000 A 
ATOM     11  C   UNL     1       4.948   4.462  18.692  0.00  0.00    +0.000 A 
ATOM     12  C   UNL     1       4.026   5.450  18.323  0.00  0.00    +0.000 A 
ENDROOT
BRANCH   4  13
ATOM     13  N   UNL     1       1.228   8.611  19.948  0.00  0.00    +0.000 N 
ATOM     14  C   UNL     1       0.402   9.653  19.588  0.00  0.00    +0.000 C 
ATOM     15  O   UNL     1       0.038   9.849  18.432  0.00  0.00    +0.000 OA
ATOM     16  H   UNL     1       1.395   8.394  20.926  0.00  0.00    +0.000 HD
BRANCH  14  17
ATOM     17  C   UNL     1      -0.064  10.543  20.689  0.00  0.00    +0.000 A 
ATOM     18  C   UNL     1      -0.198  11.927  20.512  0.00  0.00    +0.000 A 
ATOM     19  C   UNL     1      -0.632  12.727  21.572  0.00  0.00    +0.000 A 
ATOM     20  C   UNL     1      -0.942  12.150  22.804  0.00  0.00    +0.000 A 
ATOM     21  C   UNL     1      -0.836  10.771  22.976  0.00  0.00    +0.000 A 
ATOM     22  C   UNL     1      -0.404   9.965  21.918  0.00  0.00    +0.000 A 
ENDBRANCH  14  17
ENDBRANCH   4  13
BRANCH   1  23
ATOM     23  C   UNL     1       1.803   4.349  18.287  0.00  0.00    +0.000 C 
BRANCH  23  25
ATOM     24  O   UNL     1       2.008   2.093  19.124  0.00  0.00    +0.000 OA
ATOM     25  C   UNL     1       1.478   3.190  19.221  0.00  0.00    +0.000 C 
BRANCH  25  26
ATOM     26  O   UNL     1       0.535   3.454  20.152  0.00  0.00    +0.000 OA
ATOM     27  H   UNL     1       0.868   3.305  21.065  0.00  0.00    +0.000 HD
ENDBRANCH  25  26
ENDBRANCH  23  25
ENDBRANCH   1  23
TORSDOF 5
ENDMDL
