MODEL 1
REMARK VINA RESULT:      -8.3      0.000      0.000
REMARK  Name = 
REMARK  4 active torsions:
REMARK  status: ('A' for Active; 'I' for Inactive)
REMARK    1  A    between atoms: C_1  and  O_2
REMARK    2  A    between atoms: O_2  and  C_3
REMARK    3  A    between atoms: C_24  and  O_25
REMARK    4  A    between atoms: O_25  and  C_26
REMARK                            x       y       z     vdW  Elec       q    Type
REMARK                         _______ _______ _______ _____ _____    ______ ____
ROOT
ATOM      1  C   UNL     1       0.079   9.539  20.951  0.00  0.00    +0.000 A 
ATOM      2  C   UNL     1      -0.239  10.867  20.567  0.00  0.00    +0.000 A 
ATOM      3  C   UNL     1       0.329  11.427  19.425  0.00  0.00    +0.000 A 
ATOM      4  C   UNL     1       1.208  10.682  18.673  0.00  0.00    +0.000 A 
ATOM      5  C   UNL     1       1.507   9.351  19.031  0.00  0.00    +0.000 A 
ATOM      6  C   UNL     1       0.962   8.748  20.169  0.00  0.00    +0.000 A 
ATOM      7  N   UNL     1       1.238   7.391  20.487  0.00  0.00    +0.000 N 
ATOM      8  C   UNL     1       2.091   6.546  19.763  0.00  0.00    +0.000 A 
ATOM      9  C   UNL     1       2.726   6.930  18.639  0.00  0.00    +0.000 A 
ATOM     10  C   UNL     1       3.660   6.053  17.873  0.00  0.00    +0.000 A 
ATOM     11  N   UNL     1       4.228   6.561  16.816  0.00  0.00    +0.000 NA
ATOM     12  C   UNL     1       5.110   5.819  16.065  0.00  0.00    +0.000 A 
ATOM     13  C   UNL     1       5.771   6.419  14.995  0.00  0.00    +0.000 A 
ATOM     14  C   UNL     1       6.676   5.683  14.237  0.00  0.00    +0.000 A 
ATOM     15  C   UNL     1       6.859   4.322  14.493  0.00  0.00    +0.000 A 
ATOM     16  C   UNL     1       6.221   3.730  15.585  0.00  0.00    +0.000 A 
ATOM     17  C   UNL     1       5.402   4.514  16.399  0.00  0.00    +0.000 A 
ATOM     18  C   UNL     1       5.014   4.115  17.758  0.00  0.00    +0.000 A 
ATOM     19  O   UNL     1       5.797   3.353  18.308  0.00  0.00    +0.000 OA
ATOM     20  N   UNL     1       3.921   4.777  18.334  0.00  0.00    +0.000 N 
ATOM     21  C   UNL     1       3.263   4.290  19.528  0.00  0.00    +0.000 A 
ATOM     22  C   UNL     1       3.465   2.978  20.032  0.00  0.00    +0.000 A 
ATOM     23  C   UNL     1       2.997   2.597  21.290  0.00  0.00    +0.000 A 
ATOM     24  C   UNL     1       2.130   3.424  21.974  0.00  0.00    +0.000 A 
ATOM     25  C   UNL     1       1.770   4.658  21.424  0.00  0.00    +0.000 A 
ATOM     26  C   UNL     1       2.368   5.147  20.238  0.00  0.00    +0.000 A 
ATOM     27  S   UNL     1       2.626   8.529  17.955  0.00  0.00    +0.000 S 
ATOM     28  H   UNL     1       0.899   7.113  21.400  0.00  0.00    +0.000 HD
ENDROOT
BRANCH   1  30
ATOM     29  C   UNL     1      -0.326   9.704  23.285  0.00  0.00    +0.000 C 
ATOM     30  O   UNL     1      -0.452   8.950  22.076  0.00  0.00    +0.000 OA
ENDBRANCH   1  30
BRANCH  22  31
ATOM     31  O   UNL     1       4.113   1.961  19.380  0.00  0.00    +0.000 OA
ATOM     32  C   UNL     1       3.236   1.241  18.515  0.00  0.00    +0.000 C 
ENDBRANCH  22  31
TORSDOF 2
ENDMDL
MODEL 2
REMARK VINA RESULT:      -6.9      8.691     11.319
REMARK  Name = 
REMARK  4 active torsions:
REMARK  status: ('A' for Active; 'I' for Inactive)
REMARK    1  A    between atoms: C_1  and  O_2
REMARK    2  A    between atoms: O_2  and  C_3
REMARK    3  A    between atoms: C_24  and  O_25
REMARK    4  A    between atoms: O_25  and  C_26
REMARK                            x       y       z     vdW  Elec       q    Type
REMARK                         _______ _______ _______ _____ _____    ______ ____
ROOT
ATOM      1  C   UNL     1       2.881  14.684  20.545  0.00  0.00    +0.000 A 
ATOM      2  C   UNL     1       3.749  14.458  19.445  0.00  0.00    +0.000 A 
ATOM      3  C   UNL     1       3.284  13.822  18.297  0.00  0.00    +0.000 A 
ATOM      4  C   UNL     1       1.973  13.409  18.238  0.00  0.00    +0.000 A 
ATOM      5  C   UNL     1       1.096  13.656  19.314  0.00  0.00    +0.000 A 
ATOM      6  C   UNL     1       1.518  14.289  20.487  0.00  0.00    +0.000 A 
ATOM      7  N   UNL     1       0.609  14.571  21.540  0.00  0.00    +0.000 N 
ATOM      8  C   UNL     1      -0.749  14.220  21.555  0.00  0.00    +0.000 A 
ATOM      9  C   UNL     1      -1.357  13.595  20.529  0.00  0.00    +0.000 A 
ATOM     10  C   UNL     1      -2.794  13.188  20.541  0.00  0.00    +0.000 A 
ATOM     11  N   UNL     1      -3.249  12.566  19.489  0.00  0.00    +0.000 NA
ATOM     12  C   UNL     1      -4.558  12.148  19.430  0.00  0.00    +0.000 A 
ATOM     13  C   UNL     1      -4.991  11.405  18.334  0.00  0.00    +0.000 A 
ATOM     14  C   UNL     1      -6.309  10.965  18.269  0.00  0.00    +0.000 A 
ATOM     15  C   UNL     1      -7.220  11.339  19.259  0.00  0.00    +0.000 A 
ATOM     16  C   UNL     1      -6.779  12.056  20.373  0.00  0.00    +0.000 A 
ATOM     17  C   UNL     1      -5.429  12.393  20.471  0.00  0.00    +0.000 A 
ATOM     18  C   UNL     1      -4.794  12.778  21.738  0.00  0.00    +0.000 A 
ATOM     19  O   UNL     1      -5.341  12.333  22.737  0.00  0.00    +0.000 OA
ATOM     20  N   UNL     1      -3.559  13.436  21.664  0.00  0.00    +0.000 N 
ATOM     21  C   UNL     1      -2.975  14.118  22.799  0.00  0.00    +0.000 A 
ATOM     22  C   UNL     1      -3.718  14.431  23.969  0.00  0.00    +0.000 A 
ATOM     23  C   UNL     1      -3.097  14.891  25.130  0.00  0.00    +0.000 A 
ATOM     24  C   UNL     1      -1.771  15.266  25.090  0.00  0.00    +0.000 A 
ATOM     25  C   UNL     1      -1.048  15.133  23.901  0.00  0.00    +0.000 A 
ATOM     26  C   UNL     1      -1.601  14.504  22.760  0.00  0.00    +0.000 A 
ATOM     27  S   UNL     1      -0.549  13.088  19.072  0.00  0.00    +0.000 S 
ATOM     28  H   UNL     1       1.058  14.905  22.384  0.00  0.00    +0.000 HD
ENDROOT
BRANCH   1  30
ATOM     29  C   UNL     1       4.389  14.663  22.380  0.00  0.00    +0.000 C 
ATOM     30  O   UNL     1       3.301  15.299  21.701  0.00  0.00    +0.000 OA
ENDBRANCH   1  30
BRANCH  22  31
ATOM     31  O   UNL     1      -5.080  14.330  24.103  0.00  0.00    +0.000 OA
ATOM     32  C   UNL     1      -5.721  15.598  23.976  0.00  0.00    +0.000 C 
ENDBRANCH  22  31
TORSDOF 2
ENDMDL
MODEL 3
REMARK VINA RESULT:      -6.6      8.804     10.350
REMARK  Name = 
REMARK  4 active torsions:
REMARK  status: ('A' for Active; 'I' for Inactive)
REMARK    1  A    between atoms: C_1  and  O_2
REMARK    2  A    between atoms: O_2  and  C_3
REMARK    3  A    between atoms: C_24  and  O_25
REMARK    4  A    between atoms: O_25  and  C_26
REMARK                            x       y       z     vdW  Elec       q    Type
REMARK                         _______ _______ _______ _____ _____    ______ ____
ROOT
ATOM      1  C   UNL     1      -4.613  11.305  18.227  0.00  0.00    +0.000 A 
ATOM      2  C   UNL     1      -4.585  10.693  16.947  0.00  0.00    +0.000 A 
ATOM      3  C   UNL     1      -3.409  10.667  16.202  0.00  0.00    +0.000 A 
ATOM      4  C   UNL     1      -2.271  11.247  16.716  0.00  0.00    +0.000 A 
ATOM      5  C   UNL     1      -2.282  11.830  17.999  0.00  0.00    +0.000 A 
ATOM      6  C   UNL     1      -3.439  11.881  18.783  0.00  0.00    +0.000 A 
ATOM      7  N   UNL     1      -3.419  12.430  20.092  0.00  0.00    +0.000 N 
ATOM      8  C   UNL     1      -2.302  13.010  20.711  0.00  0.00    +0.000 A 
ATOM      9  C   UNL     1      -1.090  13.074  20.127  0.00  0.00    +0.000 A 
ATOM     10  C   UNL     1       0.101  13.715  20.760  0.00  0.00    +0.000 A 
ATOM     11  N   UNL     1       1.209  13.730  20.072  0.00  0.00    +0.000 NA
ATOM     12  C   UNL     1       2.346  14.312  20.583  0.00  0.00    +0.000 A 
ATOM     13  C   UNL     1       3.488  14.396  19.788  0.00  0.00    +0.000 A 
ATOM     14  C   UNL     1       4.640  14.994  20.287  0.00  0.00    +0.000 A 
ATOM     15  C   UNL     1       4.680  15.436  21.612  0.00  0.00    +0.000 A 
ATOM     16  C   UNL     1       3.527  15.381  22.397  0.00  0.00    +0.000 A 
ATOM     17  C   UNL     1       2.351  14.877  21.840  0.00  0.00    +0.000 A 
ATOM     18  C   UNL     1       1.024  15.134  22.415  0.00  0.00    +0.000 A 
ATOM     19  O   UNL     1       0.943  16.161  23.072  0.00  0.00    +0.000 OA
ATOM     20  N   UNL     1      -0.026  14.299  22.005  0.00  0.00    +0.000 N 
ATOM     21  C   UNL     1      -1.295  14.255  22.699  0.00  0.00    +0.000 A 
ATOM     22  C   UNL     1      -1.480  14.809  23.994  0.00  0.00    +0.000 A 
ATOM     23  C   UNL     1      -2.749  14.949  24.556  0.00  0.00    +0.000 A 
ATOM     24  C   UNL     1      -3.832  14.343  23.954  0.00  0.00    +0.000 A 
ATOM     25  C   UNL     1      -3.656  13.638  22.760  0.00  0.00    +0.000 A 
ATOM     26  C   UNL     1      -2.418  13.630  22.075  0.00  0.00    +0.000 A 
ATOM     27  S   UNL     1      -0.745  12.503  18.518  0.00  0.00    +0.000 S 
ATOM     28  H   UNL     1      -4.339  12.533  20.501  0.00  0.00    +0.000 HD
ENDROOT
BRANCH   1  30
ATOM     29  C   UNL     1      -6.793  10.450  18.618  0.00  0.00    +0.000 C 
ATOM     30  O   UNL     1      -5.755  11.360  18.993  0.00  0.00    +0.000 OA
ENDBRANCH   1  30
BRANCH  22  31
ATOM     31  O   UNL     1      -0.482  15.255  24.823  0.00  0.00    +0.000 OA
ATOM     32  C   UNL     1      -1.004  15.805  26.031  0.00  0.00    +0.000 C 
ENDBRANCH  22  31
TORSDOF 2
ENDMDL
MODEL 4
REMARK VINA RESULT:      -6.5      9.271     12.069
REMARK  Name = 
REMARK  4 active torsions:
REMARK  status: ('A' for Active; 'I' for Inactive)
REMARK    1  A    between atoms: C_1  and  O_2
REMARK    2  A    between atoms: O_2  and  C_3
REMARK    3  A    between atoms: C_24  and  O_25
REMARK    4  A    between atoms: O_25  and  C_26
REMARK                            x       y       z     vdW  Elec       q    Type
REMARK                         _______ _______ _______ _____ _____    ______ ____
ROOT
ATOM      1  C   UNL     1      11.284  14.420  18.332  0.00  0.00    +0.000 A 
ATOM      2  C   UNL     1      11.823  15.174  17.258  0.00  0.00    +0.000 A 
ATOM      3  C   UNL     1      11.150  16.293  16.773  0.00  0.00    +0.000 A 
ATOM      4  C   UNL     1       9.953  16.661  17.343  0.00  0.00    +0.000 A 
ATOM      5  C   UNL     1       9.425  15.935  18.430  0.00  0.00    +0.000 A 
ATOM      6  C   UNL     1      10.064  14.804  18.949  0.00  0.00    +0.000 A 
ATOM      7  N   UNL     1       9.541  14.114  20.075  0.00  0.00    +0.000 N 
ATOM      8  C   UNL     1       8.349  14.435  20.741  0.00  0.00    +0.000 A 
ATOM      9  C   UNL     1       7.575  15.481  20.398  0.00  0.00    +0.000 A 
ATOM     10  C   UNL     1       6.288  15.819  21.077  0.00  0.00    +0.000 A 
ATOM     11  N   UNL     1       5.624  16.846  20.625  0.00  0.00    +0.000 NA
ATOM     12  C   UNL     1       4.425  17.213  21.192  0.00  0.00    +0.000 A 
ATOM     13  C   UNL     1       3.693  18.256  20.629  0.00  0.00    +0.000 A 
ATOM     14  C   UNL     1       2.473  18.627  21.183  0.00  0.00    +0.000 A 
ATOM     15  C   UNL     1       2.021  18.012  22.353  0.00  0.00    +0.000 A 
ATOM     16  C   UNL     1       2.738  16.945  22.898  0.00  0.00    +0.000 A 
ATOM     17  C   UNL     1       3.904  16.517  22.262  0.00  0.00    +0.000 A 
ATOM     18  C   UNL     1       4.503  15.198  22.501  0.00  0.00    +0.000 A 
ATOM     19  O   UNL     1       3.715  14.341  22.875  0.00  0.00    +0.000 OA
ATOM     20  N   UNL     1       5.835  15.016  22.106  0.00  0.00    +0.000 N 
ATOM     21  C   UNL     1       6.624  13.882  22.539  0.00  0.00    +0.000 A 
ATOM     22  C   UNL     1       6.228  13.040  23.612  0.00  0.00    +0.000 A 
ATOM     23  C   UNL     1       6.881  11.836  23.877  0.00  0.00    +0.000 A 
ATOM     24  C   UNL     1       8.070  11.551  23.240  0.00  0.00    +0.000 A 
ATOM     25  C   UNL     1       8.583  12.447  22.296  0.00  0.00    +0.000 A 
ATOM     26  C   UNL     1       7.854  13.585  21.878  0.00  0.00    +0.000 A 
ATOM     27  S   UNL     1       7.903  16.547  19.059  0.00  0.00    +0.000 S 
ATOM     28  H   UNL     1      10.014  13.240  20.269  0.00  0.00    +0.000 HD
ENDROOT
BRANCH   1  30
ATOM     29  C   UNL     1      11.823  12.128  18.023  0.00  0.00    +0.000 C 
ATOM     30  O   UNL     1      11.910  13.303  18.835  0.00  0.00    +0.000 OA
ENDBRANCH   1  30
BRANCH  22  31
ATOM     31  O   UNL     1       5.202  13.288  24.488  0.00  0.00    +0.000 OA
ATOM     32  C   UNL     1       5.622  13.168  25.845  0.00  0.00    +0.000 C 
ENDBRANCH  22  31
TORSDOF 2
ENDMDL
MODEL 5
REMARK VINA RESULT:      -6.4      6.208      9.827
REMARK  Name = 
REMARK  4 active torsions:
REMARK  status: ('A' for Active; 'I' for Inactive)
REMARK    1  A    between atoms: C_1  and  O_2
REMARK    2  A    between atoms: O_2  and  C_3
REMARK    3  A    between atoms: C_24  and  O_25
REMARK    4  A    between atoms: O_25  and  C_26
REMARK                            x       y       z     vdW  Elec       q    Type
REMARK                         _______ _______ _______ _____ _____    ______ ____
ROOT
ATOM      1  C   UNL     1      -4.863  15.793  23.900  0.00  0.00    +0.000 A 
ATOM      2  C   UNL     1      -4.196  16.410  24.990  0.00  0.00    +0.000 A 
ATOM      3  C   UNL     1      -2.851  16.143  25.237  0.00  0.00    +0.000 A 
ATOM      4  C   UNL     1      -2.174  15.271  24.416  0.00  0.00    +0.000 A 
ATOM      5  C   UNL     1      -2.821  14.677  23.313  0.00  0.00    +0.000 A 
ATOM      6  C   UNL     1      -4.169  14.913  23.027  0.00  0.00    +0.000 A 
ATOM      7  N   UNL     1      -4.791  14.344  21.884  0.00  0.00    +0.000 N 
ATOM      8  C   UNL     1      -4.173  13.473  20.974  0.00  0.00    +0.000 A 
ATOM      9  C   UNL     1      -2.881  13.107  21.070  0.00  0.00    +0.000 A 
ATOM     10  C   UNL     1      -2.216  12.158  20.128  0.00  0.00    +0.000 A 
ATOM     11  N   UNL     1      -0.965  11.869  20.353  0.00  0.00    +0.000 NA
ATOM     12  C   UNL     1      -0.287  10.995  19.535  0.00  0.00    +0.000 A 
ATOM     13  C   UNL     1       1.021  10.633  19.854  0.00  0.00    +0.000 A 
ATOM     14  C   UNL     1       1.712   9.739  19.044  0.00  0.00    +0.000 A 
ATOM     15  C   UNL     1       1.128   9.268  17.866  0.00  0.00    +0.000 A 
ATOM     16  C   UNL     1      -0.193   9.605  17.564  0.00  0.00    +0.000 A 
ATOM     17  C   UNL     1      -0.905  10.416  18.448  0.00  0.00    +0.000 A 
ATOM     18  C   UNL     1      -2.371  10.503  18.443  0.00  0.00    +0.000 A 
ATOM     19  O   UNL     1      -2.939   9.516  17.998  0.00  0.00    +0.000 OA
ATOM     20  N   UNL     1      -2.951  11.595  19.103  0.00  0.00    +0.000 N 
ATOM     21  C   UNL     1      -4.343  11.955  18.930  0.00  0.00    +0.000 A 
ATOM     22  C   UNL     1      -5.142  11.436  17.876  0.00  0.00    +0.000 A 
ATOM     23  C   UNL     1      -6.524  11.621  17.847  0.00  0.00    +0.000 A 
ATOM     24  C   UNL     1      -7.112  12.507  18.725  0.00  0.00    +0.000 A 
ATOM     25  C   UNL     1      -6.325  13.172  19.670  0.00  0.00    +0.000 A 
ATOM     26  C   UNL     1      -4.953  12.871  19.840  0.00  0.00    +0.000 A 
ATOM     27  S   UNL     1      -1.812  13.609  22.351  0.00  0.00    +0.000 S 
ATOM     28  H   UNL     1      -5.794  14.477  21.861  0.00  0.00    +0.000 HD
ENDROOT
BRANCH   1  30
ATOM     29  C   UNL     1      -6.532  17.374  23.303  0.00  0.00    +0.000 C 
ATOM     30  O   UNL     1      -6.192  16.022  23.625  0.00  0.00    +0.000 OA
ENDBRANCH   1  30
BRANCH  22  31
ATOM     31  O   UNL     1      -4.681  10.721  16.800  0.00  0.00    +0.000 OA
ATOM     32  C   UNL     1      -4.264  11.574  15.736  0.00  0.00    +0.000 C 
ENDBRANCH  22  31
TORSDOF 2
ENDMDL
MODEL 6
REMARK VINA RESULT:      -6.4      9.368      9.832
REMARK  Name = 
REMARK  4 active torsions:
REMARK  status: ('A' for Active; 'I' for Inactive)
REMARK    1  A    between atoms: C_1  and  O_2
REMARK    2  A    between atoms: O_2  and  C_3
REMARK    3  A    between atoms: C_24  and  O_25
REMARK    4  A    between atoms: O_25  and  C_26
REMARK                            x       y       z     vdW  Elec       q    Type
REMARK                         _______ _______ _______ _____ _____    ______ ____
ROOT
ATOM      1  C   UNL     1       2.158  17.134  19.522  0.00  0.00    +0.000 A 
ATOM      2  C   UNL     1       1.541  17.508  18.300  0.00  0.00    +0.000 A 
ATOM      3  C   UNL     1       2.163  17.236  17.083  0.00  0.00    +0.000 A 
ATOM      4  C   UNL     1       3.385  16.605  17.076  0.00  0.00    +0.000 A 
ATOM      5  C   UNL     1       3.991  16.203  18.284  0.00  0.00    +0.000 A 
ATOM      6  C   UNL     1       3.406  16.456  19.528  0.00  0.00    +0.000 A 
ATOM      7  N   UNL     1       4.008  16.002  20.732  0.00  0.00    +0.000 N 
ATOM      8  C   UNL     1       5.232  15.322  20.820  0.00  0.00    +0.000 A 
ATOM      9  C   UNL     1       5.965  14.987  19.741  0.00  0.00    +0.000 A 
ATOM     10  C   UNL     1       7.283  14.290  19.819  0.00  0.00    +0.000 A 
ATOM     11  N   UNL     1       7.900  14.049  18.696  0.00  0.00    +0.000 NA
ATOM     12  C   UNL     1       9.124  13.420  18.687  0.00  0.00    +0.000 A 
ATOM     13  C   UNL     1       9.802  13.259  17.479  0.00  0.00    +0.000 A 
ATOM     14  C   UNL     1      11.046  12.639  17.458  0.00  0.00    +0.000 A 
ATOM     15  C   UNL     1      11.579  12.102  18.633  0.00  0.00    +0.000 A 
ATOM     16  C   UNL     1      10.916  12.292  19.846  0.00  0.00    +0.000 A 
ATOM     17  C   UNL     1       9.722  13.014  19.860  0.00  0.00    +0.000 A 
ATOM     18  C   UNL     1       9.163  13.604  21.083  0.00  0.00    +0.000 A 
ATOM     19  O   UNL     1       9.988  13.858  21.950  0.00  0.00    +0.000 OA
ATOM     20  N   UNL     1       7.812  13.979  21.056  0.00  0.00    +0.000 N 
ATOM     21  C   UNL     1       7.072  14.295  22.259  0.00  0.00    +0.000 A 
ATOM     22  C   UNL     1       7.548  13.972  23.558  0.00  0.00    +0.000 A 
ATOM     23  C   UNL     1       6.934  14.469  24.708  0.00  0.00    +0.000 A 
ATOM     24  C   UNL     1       5.714  15.104  24.608  0.00  0.00    +0.000 A 
ATOM     25  C   UNL     1       5.129  15.289  23.352  0.00  0.00    +0.000 A 
ATOM     26  C   UNL     1       5.810  14.956  22.157  0.00  0.00    +0.000 A 
ATOM     27  S   UNL     1       5.537  15.388  18.101  0.00  0.00    +0.000 S 
ATOM     28  H   UNL     1       3.564  16.362  21.567  0.00  0.00    +0.000 HD
ENDROOT
BRANCH   1  30
ATOM     29  C   UNL     1       0.366  16.691  21.015  0.00  0.00    +0.000 C 
ATOM     30  O   UNL     1       1.584  17.391  20.746  0.00  0.00    +0.000 OA
ENDBRANCH   1  30
BRANCH  22  31
ATOM     31  O   UNL     1       8.620  13.164  23.839  0.00  0.00    +0.000 OA
ATOM     32  C   UNL     1       8.209  11.881  24.308  0.00  0.00    +0.000 C 
ENDBRANCH  22  31
TORSDOF 2
ENDMDL
MODEL 7
REMARK VINA RESULT:      -6.3      6.966     11.607
REMARK  Name = 
REMARK  4 active torsions:
REMARK  status: ('A' for Active; 'I' for Inactive)
REMARK    1  A    between atoms: C_1  and  O_2
REMARK    2  A    between atoms: O_2  and  C_3
REMARK    3  A    between atoms: C_24  and  O_25
REMARK    4  A    between atoms: O_25  and  C_26
REMARK                            x       y       z     vdW  Elec       q    Type
REMARK                         _______ _______ _______ _____ _____    ______ ____
ROOT
ATOM      1  C   UNL     1       1.861  13.181  19.290  0.00  0.00    +0.000 A 
ATOM      2  C   UNL     1       2.917  13.788  20.018  0.00  0.00    +0.000 A 
ATOM      3  C   UNL     1       2.656  14.478  21.199  0.00  0.00    +0.000 A 
ATOM      4  C   UNL     1       1.360  14.572  21.654  0.00  0.00    +0.000 A 
ATOM      5  C   UNL     1       0.309  13.946  20.953  0.00  0.00    +0.000 A 
ATOM      6  C   UNL     1       0.523  13.245  19.762  0.00  0.00    +0.000 A 
ATOM      7  N   UNL     1      -0.542  12.581  19.096  0.00  0.00    +0.000 N 
ATOM      8  C   UNL     1      -1.884  12.592  19.502  0.00  0.00    +0.000 A 
ATOM      9  C   UNL     1      -2.309  13.217  20.617  0.00  0.00    +0.000 A 
ATOM     10  C   UNL     1      -3.739  13.263  21.047  0.00  0.00    +0.000 A 
ATOM     11  N   UNL     1      -4.015  13.927  22.134  0.00  0.00    +0.000 NA
ATOM     12  C   UNL     1      -5.310  14.024  22.589  0.00  0.00    +0.000 A 
ATOM     13  C   UNL     1      -5.588  14.817  23.701  0.00  0.00    +0.000 A 
ATOM     14  C   UNL     1      -6.895  14.935  24.162  0.00  0.00    +0.000 A 
ATOM     15  C   UNL     1      -7.916  14.194  23.563  0.00  0.00    +0.000 A 
ATOM     16  C   UNL     1      -7.644  13.426  22.429  0.00  0.00    +0.000 A 
ATOM     17  C   UNL     1      -6.346  13.409  21.918  0.00  0.00    +0.000 A 
ATOM     18  C   UNL     1      -6.035  12.979  20.549  0.00  0.00    +0.000 A 
ATOM     19  O   UNL     1      -6.955  13.107  19.753  0.00  0.00    +0.000 OA
ATOM     20  N   UNL     1      -4.701  12.655  20.265  0.00  0.00    +0.000 N 
ATOM     21  C   UNL     1      -4.315  11.951  19.060  0.00  0.00    +0.000 A 
ATOM     22  C   UNL     1      -5.253  11.279  18.232  0.00  0.00    +0.000 A 
ATOM     23  C   UNL     1      -4.902  10.792  16.973  0.00  0.00    +0.000 A 
ATOM     24  C   UNL     1      -3.574  10.756  16.603  0.00  0.00    +0.000 A 
ATOM     25  C   UNL     1      -2.598  11.254  17.471  0.00  0.00    +0.000 A 
ATOM     26  C   UNL     1      -2.940  11.916  18.675  0.00  0.00    +0.000 A 
ATOM     27  S   UNL     1      -1.280  14.139  21.677  0.00  0.00    +0.000 S 
ATOM     28  H   UNL     1      -0.288  12.228  18.182  0.00  0.00    +0.000 HD
ENDROOT
BRANCH   1  30
ATOM     29  C   UNL     1       2.207  11.079  18.241  0.00  0.00    +0.000 C 
ATOM     30  O   UNL     1       2.073  12.498  18.114  0.00  0.00    +0.000 OA
ENDBRANCH   1  30
BRANCH  22  31
ATOM     31  O   UNL     1      -6.565  11.030  18.548  0.00  0.00    +0.000 OA
ATOM     32  C   UNL     1      -6.770   9.670  18.927  0.00  0.00    +0.000 C 
ENDBRANCH  22  31
TORSDOF 2
ENDMDL
MODEL 8
REMARK VINA RESULT:      -6.3      6.923     10.049
REMARK  Name = 
REMARK  4 active torsions:
REMARK  status: ('A' for Active; 'I' for Inactive)
REMARK    1  A    between atoms: C_1  and  O_2
REMARK    2  A    between atoms: O_2  and  C_3
REMARK    3  A    between atoms: C_24  and  O_25
REMARK    4  A    between atoms: O_25  and  C_26
REMARK                            x       y       z     vdW  Elec       q    Type
REMARK                         _______ _______ _______ _____ _____    ______ ____
ROOT
ATOM      1  C   UNL     1      -5.738  16.049  23.119  0.00  0.00    +0.000 A 
ATOM      2  C   UNL     1      -6.501  17.238  22.986  0.00  0.00    +0.000 A 
ATOM      3  C   UNL     1      -6.057  18.274  22.168  0.00  0.00    +0.000 A 
ATOM      4  C   UNL     1      -4.866  18.137  21.491  0.00  0.00    +0.000 A 
ATOM      5  C   UNL     1      -4.117  16.947  21.594  0.00  0.00    +0.000 A 
ATOM      6  C   UNL     1      -4.522  15.881  22.404  0.00  0.00    +0.000 A 
ATOM      7  N   UNL     1      -3.779  14.672  22.458  0.00  0.00    +0.000 N 
ATOM      8  C   UNL     1      -2.576  14.429  21.778  0.00  0.00    +0.000 A 
ATOM      9  C   UNL     1      -2.005  15.326  20.952  0.00  0.00    +0.000 A 
ATOM     10  C   UNL     1      -0.710  15.095  20.245  0.00  0.00    +0.000 A 
ATOM     11  N   UNL     1      -0.257  16.060  19.495  0.00  0.00    +0.000 NA
ATOM     12  C   UNL     1       0.934  15.926  18.820  0.00  0.00    +0.000 A 
ATOM     13  C   UNL     1       1.439  17.008  18.100  0.00  0.00    +0.000 A 
ATOM     14  C   UNL     1       2.649  16.890  17.426  0.00  0.00    +0.000 A 
ATOM     15  C   UNL     1       3.318  15.664  17.399  0.00  0.00    +0.000 A 
ATOM     16  C   UNL     1       2.829  14.590  18.146  0.00  0.00    +0.000 A 
ATOM     17  C   UNL     1       1.670  14.764  18.904  0.00  0.00    +0.000 A 
ATOM     18  C   UNL     1       1.299  13.867  20.006  0.00  0.00    +0.000 A 
ATOM     19  O   UNL     1       2.240  13.291  20.534  0.00  0.00    +0.000 OA
ATOM     20  N   UNL     1      -0.031  13.910  20.448  0.00  0.00    +0.000 N 
ATOM     21  C   UNL     1      -0.593  12.893  21.311  0.00  0.00    +0.000 A 
ATOM     22  C   UNL     1       0.042  11.642  21.534  0.00  0.00    +0.000 A 
ATOM     23  C   UNL     1      -0.396  10.764  22.525  0.00  0.00    +0.000 A 
ATOM     24  C   UNL     1      -1.599  10.998  23.160  0.00  0.00    +0.000 A 
ATOM     25  C   UNL     1      -2.341  12.139  22.839  0.00  0.00    +0.000 A 
ATOM     26  C   UNL     1      -1.836  13.136  21.970  0.00  0.00    +0.000 A 
ATOM     27  S   UNL     1      -2.636  16.921  20.649  0.00  0.00    +0.000 S 
ATOM     28  H   UNL     1      -4.096  14.035  23.177  0.00  0.00    +0.000 HD
ENDROOT
BRANCH   1  30
ATOM     29  C   UNL     1      -7.521  14.657  23.843  0.00  0.00    +0.000 C 
ATOM     30  O   UNL     1      -6.135  15.005  23.923  0.00  0.00    +0.000 OA
ENDBRANCH   1  30
BRANCH  22  31
ATOM     31  O   UNL     1       1.117  11.154  20.834  0.00  0.00    +0.000 OA
ATOM     32  C   UNL     1       0.734  10.126  19.923  0.00  0.00    +0.000 C 
ENDBRANCH  22  31
TORSDOF 2
ENDMDL
MODEL 9
REMARK VINA RESULT:      -6.3      6.207     10.278
REMARK  Name = 
REMARK  4 active torsions:
REMARK  status: ('A' for Active; 'I' for Inactive)
REMARK    1  A    between atoms: C_1  and  O_2
REMARK    2  A    between atoms: O_2  and  C_3
REMARK    3  A    between atoms: C_24  and  O_25
REMARK    4  A    between atoms: O_25  and  C_26
REMARK                            x       y       z     vdW  Elec       q    Type
REMARK                         _______ _______ _______ _____ _____    ______ ____
ROOT
ATOM      1  C   UNL     1       5.315  15.838  18.805  0.00  0.00    +0.000 A 
ATOM      2  C   UNL     1       5.967  17.054  19.133  0.00  0.00    +0.000 A 
ATOM      3  C   UNL     1       5.471  17.871  20.146  0.00  0.00    +0.000 A 
ATOM      4  C   UNL     1       4.337  17.490  20.826  0.00  0.00    +0.000 A 
ATOM      5  C   UNL     1       3.700  16.268  20.527  0.00  0.00    +0.000 A 
ATOM      6  C   UNL     1       4.161  15.418  19.517  0.00  0.00    +0.000 A 
ATOM      7  N   UNL     1       3.534  14.169  19.262  0.00  0.00    +0.000 N 
ATOM      8  C   UNL     1       2.397  13.682  19.925  0.00  0.00    +0.000 A 
ATOM      9  C   UNL     1       1.788  14.348  20.924  0.00  0.00    +0.000 A 
ATOM     10  C   UNL     1       0.561  13.858  21.619  0.00  0.00    +0.000 A 
ATOM     11  N   UNL     1       0.059  14.617  22.553  0.00  0.00    +0.000 NA
ATOM     12  C   UNL     1      -1.077  14.239  23.231  0.00  0.00    +0.000 A 
ATOM     13  C   UNL     1      -1.644  15.112  24.159  0.00  0.00    +0.000 A 
ATOM     14  C   UNL     1      -2.800  14.748  24.840  0.00  0.00    +0.000 A 
ATOM     15  C   UNL     1      -3.347  13.476  24.659  0.00  0.00    +0.000 A 
ATOM     16  C   UNL     1      -2.798  12.614  23.707  0.00  0.00    +0.000 A 
ATOM     17  C   UNL     1      -1.704  13.042  22.955  0.00  0.00    +0.000 A 
ATOM     18  C   UNL     1      -1.308  12.407  21.692  0.00  0.00    +0.000 A 
ATOM     19  O   UNL     1      -2.216  11.844  21.098  0.00  0.00    +0.000 OA
ATOM     20  N   UNL     1      -0.014  12.667  21.220  0.00  0.00    +0.000 N 
ATOM     21  C   UNL     1       0.596  11.890  20.162  0.00  0.00    +0.000 A 
ATOM     22  C   UNL     1       0.072  10.642  19.730  0.00  0.00    +0.000 A 
ATOM     23  C   UNL     1       0.538  10.013  18.576  0.00  0.00    +0.000 A 
ATOM     24  C   UNL     1       1.677  10.482  17.956  0.00  0.00    +0.000 A 
ATOM     25  C   UNL     1       2.323  11.615  18.460  0.00  0.00    +0.000 A 
ATOM     26  C   UNL     1       1.774  12.377  19.518  0.00  0.00    +0.000 A 
ATOM     27  S   UNL     1       2.280  15.917  21.500  0.00  0.00    +0.000 S 
ATOM     28  H   UNL     1       3.871  13.711  18.425  0.00  0.00    +0.000 HD
ENDROOT
BRANCH   1  30
ATOM     29  C   UNL     1       7.175  14.759  17.797  0.00  0.00    +0.000 C 
ATOM     30  O   UNL     1       5.766  15.006  17.805  0.00  0.00    +0.000 OA
ENDBRANCH   1  30
BRANCH  22  31
ATOM     31  O   UNL     1      -0.913   9.926  20.361  0.00  0.00    +0.000 OA
ATOM     32  C   UNL     1      -0.372   8.933  21.231  0.00  0.00    +0.000 C 
ENDBRANCH  22  31
TORSDOF 2
ENDMDL
