MODEL 1
REMARK VINA RESULT:      -7.8      0.000      0.000
REMARK  Name = 
REMARK  9 active torsions:
REMARK  status: ('A' for Active; 'I' for Inactive)
REMARK    1  A    between atoms: C_1  and  C_2
REMARK    2  A    between atoms: C_4  and  C_5
REMARK    3  A    between atoms: C_8  and  C_9
REMARK    4  A    between atoms: C_9  and  C_11
REMARK    5  A    between atoms: C_12  and  C_13
REMARK    6  A    between atoms: C_13  and  C_14
REMARK    7  A    between atoms: C_13  and  C_15
REMARK    8  A    between atoms: N_21  and  C_22
REMARK    9  A    between atoms: C_22  and  C_23
REMARK                            x       y       z     vdW  Elec       q    Type
REMARK                         _______ _______ _______ _____ _____    ______ ____
ROOT
ATOM      1  C   UNL     1       2.711   6.777  18.818  0.00  0.00    +0.000 A 
ATOM      2  C   UNL     1       2.495   5.506  19.272  0.00  0.00    +0.000 A 
ATOM      3  C   UNL     1       1.742   5.367  20.555  0.00  0.00    +0.000 A 
ATOM      4  O   UNL     1       1.528   4.285  21.092  0.00  0.00    +0.000 OA
ATOM      5  N   UNL     1       1.294   6.495  21.145  0.00  0.00    +0.000 N 
ATOM      6  C   UNL     1       1.444   7.755  20.680  0.00  0.00    +0.000 A 
ATOM      7  O   UNL     1       0.985   8.687  21.339  0.00  0.00    +0.000 OA
ATOM      8  N   UNL     1       2.131   7.896  19.482  0.00  0.00    +0.000 N 
ATOM      9  H   UNL     1       0.798   6.393  22.017  0.00  0.00    +0.000 HD
ENDROOT
BRANCH   2  10
ATOM     10  C   UNL     1       2.910   4.154  18.658  0.00  0.00    +0.000 C 
ATOM     11  C   UNL     1       3.992   3.405  19.461  0.00  0.00    +0.000 C 
ATOM     12  C   UNL     1       1.739   3.203  18.379  0.00  0.00    +0.000 C 
ENDBRANCH   2  10
BRANCH   1  13
ATOM     13  C   UNL     1       3.504   7.051  17.543  0.00  0.00    +0.000 C 
ATOM     14  O   UNL     1       3.059   7.803  16.676  0.00  0.00    +0.000 OA
BRANCH  13  20
ATOM     15  C   UNL     1       8.135   5.533  18.939  0.00  0.00    +0.000 C 
ATOM     16  C   UNL     1       7.060   5.680  17.898  0.00  0.00    +0.000 A 
ATOM     17  C   UNL     1       7.171   5.000  16.676  0.00  0.00    +0.000 A 
ATOM     18  C   UNL     1       6.151   5.082  15.723  0.00  0.00    +0.000 A 
ATOM     19  C   UNL     1       4.982   5.787  16.020  0.00  0.00    +0.000 A 
ATOM     20  C   UNL     1       4.834   6.440  17.256  0.00  0.00    +0.000 A 
ATOM     21  C   UNL     1       5.904   6.440  18.160  0.00  0.00    +0.000 A 
BRANCH  18  22
ATOM     22  C   UNL     1       6.301   4.441  14.454  0.00  0.00    +0.000 C 
ATOM     23  N   UNL     1       6.413   3.921  13.419  0.00  0.00    +0.000 NA
ENDBRANCH  18  22
ENDBRANCH  13  20
ENDBRANCH   1  13
BRANCH   8  24
ATOM     24  C   UNL     1       2.285   9.293  19.026  0.00  0.00    +0.000 C 
BRANCH  24  25
ATOM     25  C   UNL     1       1.023  10.026  18.582  0.00  0.00    +0.000 A 
ATOM     26  C   UNL     1       0.024   9.431  17.806  0.00  0.00    +0.000 A 
ATOM     27  C   UNL     1      -1.168  10.115  17.589  0.00  0.00    +0.000 A 
ATOM     28  F   UNL     1      -2.123   9.505  16.870  0.00  0.00    +0.000 F 
ATOM     29  N   UNL     1      -1.451  11.335  18.071  0.00  0.00    +0.000 NA
ATOM     30  C   UNL     1      -0.483  11.896  18.813  0.00  0.00    +0.000 A 
ATOM     31  F   UNL     1      -0.734  13.097  19.352  0.00  0.00    +0.000 F 
ATOM     32  C   UNL     1       0.746  11.304  19.090  0.00  0.00    +0.000 A 
ENDBRANCH  24  25
ENDBRANCH   8  24
TORSDOF 6
ENDMDL
MODEL 2
REMARK VINA RESULT:      -7.8      6.590     10.236
REMARK  Name = 
REMARK  9 active torsions:
REMARK  status: ('A' for Active; 'I' for Inactive)
REMARK    1  A    between atoms: C_1  and  C_2
REMARK    2  A    between atoms: C_4  and  C_5
REMARK    3  A    between atoms: C_8  and  C_9
REMARK    4  A    between atoms: C_9  and  C_11
REMARK    5  A    between atoms: C_12  and  C_13
REMARK    6  A    between atoms: C_13  and  C_14
REMARK    7  A    between atoms: C_13  and  C_15
REMARK    8  A    between atoms: N_21  and  C_22
REMARK    9  A    between atoms: C_22  and  C_23
REMARK                            x       y       z     vdW  Elec       q    Type
REMARK                         _______ _______ _______ _____ _____    ______ ____
ROOT
ATOM      1  C   UNL     1      -1.752  12.530  21.052  0.00  0.00    +0.000 A 
ATOM      2  C   UNL     1      -1.556  12.089  22.331  0.00  0.00    +0.000 A 
ATOM      3  C   UNL     1      -0.819  10.799  22.494  0.00  0.00    +0.000 A 
ATOM      4  O   UNL     1      -0.625  10.273  23.585  0.00  0.00    +0.000 OA
ATOM      5  N   UNL     1      -0.364  10.192  21.378  0.00  0.00    +0.000 N 
ATOM      6  C   UNL     1      -0.494  10.643  20.112  0.00  0.00    +0.000 A 
ATOM      7  O   UNL     1      -0.031   9.968  19.193  0.00  0.00    +0.000 OA
ATOM      8  N   UNL     1      -1.166  11.846  19.948  0.00  0.00    +0.000 N 
ATOM      9  H   UNL     1       0.121   9.315  21.497  0.00  0.00    +0.000 HD
ENDROOT
BRANCH   2  10
ATOM     10  C   UNL     1      -1.981  12.723  23.670  0.00  0.00    +0.000 C 
ATOM     11  C   UNL     1      -1.562  14.199  23.826  0.00  0.00    +0.000 C 
ATOM     12  C   UNL     1      -3.475  12.586  23.987  0.00  0.00    +0.000 C 
ENDBRANCH   2  10
BRANCH   1  13
ATOM     13  C   UNL     1      -2.527  13.811  20.753  0.00  0.00    +0.000 C 
ATOM     14  O   UNL     1      -1.934  14.858  20.494  0.00  0.00    +0.000 OA
BRANCH  13  20
ATOM     15  C   UNL     1      -6.886  16.357  20.290  0.00  0.00    +0.000 C 
ATOM     16  C   UNL     1      -6.132  15.078  20.525  0.00  0.00    +0.000 A 
ATOM     17  C   UNL     1      -6.809  13.850  20.495  0.00  0.00    +0.000 A 
ATOM     18  C   UNL     1      -6.110  12.651  20.653  0.00  0.00    +0.000 A 
ATOM     19  C   UNL     1      -4.718  12.671  20.771  0.00  0.00    +0.000 A 
ATOM     20  C   UNL     1      -4.017  13.889  20.761  0.00  0.00    +0.000 A 
ATOM     21  C   UNL     1      -4.736  15.090  20.708  0.00  0.00    +0.000 A 
BRANCH  18  22
ATOM     22  C   UNL     1      -6.816  11.408  20.688  0.00  0.00    +0.000 C 
ATOM     23  N   UNL     1      -7.389  10.395  20.727  0.00  0.00    +0.000 NA
ENDBRANCH  18  22
ENDBRANCH  13  20
ENDBRANCH   1  13
BRANCH   8  24
ATOM     24  C   UNL     1      -1.298  12.288  18.544  0.00  0.00    +0.000 C 
BRANCH  24  25
ATOM     25  C   UNL     1      -2.360  11.600  17.692  0.00  0.00    +0.000 A 
ATOM     26  C   UNL     1      -3.722  11.608  18.008  0.00  0.00    +0.000 A 
ATOM     27  C   UNL     1      -4.638  11.103  17.091  0.00  0.00    +0.000 A 
ATOM     28  F   UNL     1      -5.940  11.157  17.408  0.00  0.00    +0.000 F 
ATOM     29  N   UNL     1      -4.319  10.588  15.894  0.00  0.00    +0.000 NA
ATOM     30  C   UNL     1      -3.009  10.584  15.602  0.00  0.00    +0.000 A 
ATOM     31  F   UNL     1      -2.644  10.120  14.399  0.00  0.00    +0.000 F 
ATOM     32  C   UNL     1      -2.009  11.061  16.444  0.00  0.00    +0.000 A 
ENDBRANCH  24  25
ENDBRANCH   8  24
TORSDOF 6
ENDMDL
MODEL 3
REMARK VINA RESULT:      -7.7      0.111      1.437
REMARK  Name = 
REMARK  9 active torsions:
REMARK  status: ('A' for Active; 'I' for Inactive)
REMARK    1  A    between atoms: C_1  and  C_2
REMARK    2  A    between atoms: C_4  and  C_5
REMARK    3  A    between atoms: C_8  and  C_9
REMARK    4  A    between atoms: C_9  and  C_11
REMARK    5  A    between atoms: C_12  and  C_13
REMARK    6  A    between atoms: C_13  and  C_14
REMARK    7  A    between atoms: C_13  and  C_15
REMARK    8  A    between atoms: N_21  and  C_22
REMARK    9  A    between atoms: C_22  and  C_23
REMARK                            x       y       z     vdW  Elec       q    Type
REMARK                         _______ _______ _______ _____ _____    ______ ____
ROOT
ATOM      1  C   UNL     1       2.708   6.735  18.857  0.00  0.00    +0.000 A 
ATOM      2  C   UNL     1       2.534   5.458  19.311  0.00  0.00    +0.000 A 
ATOM      3  C   UNL     1       1.781   5.294  20.591  0.00  0.00    +0.000 A 
ATOM      4  O   UNL     1       1.602   4.206  21.128  0.00  0.00    +0.000 OA
ATOM      5  N   UNL     1       1.292   6.407  21.178  0.00  0.00    +0.000 N 
ATOM      6  C   UNL     1       1.401   7.670  20.712  0.00  0.00    +0.000 A 
ATOM      7  O   UNL     1       0.907   8.587  21.368  0.00  0.00    +0.000 OA
ATOM      8  N   UNL     1       2.088   7.835  19.517  0.00  0.00    +0.000 N 
ATOM      9  H   UNL     1       0.796   6.289  22.048  0.00  0.00    +0.000 HD
ENDROOT
BRANCH   2  10
ATOM     10  C   UNL     1       2.997   4.120  18.700  0.00  0.00    +0.000 C 
ATOM     11  C   UNL     1       4.083   3.397  19.522  0.00  0.00    +0.000 C 
ATOM     12  C   UNL     1       1.859   3.139  18.393  0.00  0.00    +0.000 C 
ENDBRANCH   2  10
BRANCH   1  13
ATOM     13  C   UNL     1       3.497   7.035  17.584  0.00  0.00    +0.000 C 
ATOM     14  O   UNL     1       3.051   7.809  16.738  0.00  0.00    +0.000 OA
BRANCH  13  20
ATOM     15  C   UNL     1       8.150   5.522  18.911  0.00  0.00    +0.000 C 
ATOM     16  C   UNL     1       7.059   5.668  17.886  0.00  0.00    +0.000 A 
ATOM     17  C   UNL     1       7.153   4.988  16.663  0.00  0.00    +0.000 A 
ATOM     18  C   UNL     1       6.119   5.069  15.726  0.00  0.00    +0.000 A 
ATOM     19  C   UNL     1       4.953   5.772  16.040  0.00  0.00    +0.000 A 
ATOM     20  C   UNL     1       4.823   6.425  17.278  0.00  0.00    +0.000 A 
ATOM     21  C   UNL     1       5.907   6.427  18.166  0.00  0.00    +0.000 A 
BRANCH  18  22
ATOM     22  C   UNL     1       6.250   4.428  14.455  0.00  0.00    +0.000 C 
ATOM     23  N   UNL     1       6.360   3.897  13.425  0.00  0.00    +0.000 NA
ENDBRANCH  18  22
ENDBRANCH  13  20
ENDBRANCH   1  13
BRANCH   8  24
ATOM     24  C   UNL     1       2.196   9.235  19.060  0.00  0.00    +0.000 C 
BRANCH  24  25
ATOM     25  C   UNL     1       0.895   9.983  18.788  0.00  0.00    +0.000 A 
ATOM     26  C   UNL     1       0.658  11.293  19.216  0.00  0.00    +0.000 A 
ATOM     27  C   UNL     1      -0.484  11.957  18.781  0.00  0.00    +0.000 A 
ATOM     28  F   UNL     1      -0.667  13.225  19.180  0.00  0.00    +0.000 F 
ATOM     29  N   UNL     1      -1.411  11.433  17.963  0.00  0.00    +0.000 NA
ATOM     30  C   UNL     1      -1.173  10.175  17.560  0.00  0.00    +0.000 A 
ATOM     31  F   UNL     1      -2.048   9.623  16.707  0.00  0.00    +0.000 F 
ATOM     32  C   UNL     1      -0.067   9.419  17.935  0.00  0.00    +0.000 A 
ENDBRANCH  24  25
ENDBRANCH   8  24
TORSDOF 6
ENDMDL
MODEL 4
REMARK VINA RESULT:      -7.5      7.365      9.865
REMARK  Name = 
REMARK  9 active torsions:
REMARK  status: ('A' for Active; 'I' for Inactive)
REMARK    1  A    between atoms: C_1  and  C_2
REMARK    2  A    between atoms: C_4  and  C_5
REMARK    3  A    between atoms: C_8  and  C_9
REMARK    4  A    between atoms: C_9  and  C_11
REMARK    5  A    between atoms: C_12  and  C_13
REMARK    6  A    between atoms: C_13  and  C_14
REMARK    7  A    between atoms: C_13  and  C_15
REMARK    8  A    between atoms: N_21  and  C_22
REMARK    9  A    between atoms: C_22  and  C_23
REMARK                            x       y       z     vdW  Elec       q    Type
REMARK                         _______ _______ _______ _____ _____    ______ ____
ROOT
ATOM      1  C   UNL     1      -5.156  13.072  21.075  0.00  0.00    +0.000 A 
ATOM      2  C   UNL     1      -5.779  12.803  22.262  0.00  0.00    +0.000 A 
ATOM      3  C   UNL     1      -6.955  11.882  22.212  0.00  0.00    +0.000 A 
ATOM      4  O   UNL     1      -7.628  11.603  23.200  0.00  0.00    +0.000 OA
ATOM      5  N   UNL     1      -7.287  11.352  21.017  0.00  0.00    +0.000 N 
ATOM      6  C   UNL     1      -6.646  11.558  19.845  0.00  0.00    +0.000 A 
ATOM      7  O   UNL     1      -7.077  11.007  18.831  0.00  0.00    +0.000 OA
ATOM      8  N   UNL     1      -5.545  12.401  19.879  0.00  0.00    +0.000 N 
ATOM      9  H   UNL     1      -8.090  10.742  20.990  0.00  0.00    +0.000 HD
ENDROOT
BRANCH   2  10
ATOM     10  C   UNL     1      -5.455  13.305  23.683  0.00  0.00    +0.000 C 
ATOM     11  C   UNL     1      -4.282  12.567  24.357  0.00  0.00    +0.000 C 
ATOM     12  C   UNL     1      -5.222  14.818  23.779  0.00  0.00    +0.000 C 
ENDBRANCH   2  10
BRANCH   1  13
ATOM     13  C   UNL     1      -3.971  14.030  20.988  0.00  0.00    +0.000 C 
ATOM     14  O   UNL     1      -4.147  15.226  20.753  0.00  0.00    +0.000 OA
BRANCH  13  20
ATOM     15  C   UNL     1      -0.446  10.761  22.596  0.00  0.00    +0.000 C 
ATOM     16  C   UNL     1      -0.833  12.042  21.911  0.00  0.00    +0.000 A 
ATOM     17  C   UNL     1       0.122  12.758  21.174  0.00  0.00    +0.000 A 
ATOM     18  C   UNL     1      -0.239  13.919  20.484  0.00  0.00    +0.000 A 
ATOM     19  C   UNL     1      -1.574  14.329  20.470  0.00  0.00    +0.000 A 
ATOM     20  C   UNL     1      -2.554  13.601  21.169  0.00  0.00    +0.000 A 
ATOM     21  C   UNL     1      -2.164  12.501  21.943  0.00  0.00    +0.000 A 
BRANCH  18  22
ATOM     22  C   UNL     1       0.753  14.679  19.790  0.00  0.00    +0.000 C 
ATOM     23  N   UNL     1       1.564  15.290  19.221  0.00  0.00    +0.000 NA
ENDBRANCH  18  22
ENDBRANCH  13  20
ENDBRANCH   1  13
BRANCH   8  24
ATOM     24  C   UNL     1      -4.891  12.609  18.571  0.00  0.00    +0.000 C 
BRANCH  24  25
ATOM     25  C   UNL     1      -3.930  11.526  18.091  0.00  0.00    +0.000 A 
ATOM     26  C   UNL     1      -4.089  10.839  16.883  0.00  0.00    +0.000 A 
ATOM     27  C   UNL     1      -3.078   9.990  16.444  0.00  0.00    +0.000 A 
ATOM     28  F   UNL     1      -3.243   9.372  15.265  0.00  0.00    +0.000 F 
ATOM     29  N   UNL     1      -1.929   9.762  17.099  0.00  0.00    +0.000 NA
ATOM     30  C   UNL     1      -1.789  10.427  18.258  0.00  0.00    +0.000 A 
ATOM     31  F   UNL     1      -0.640  10.265  18.928  0.00  0.00    +0.000 F 
ATOM     32  C   UNL     1      -2.736  11.296  18.792  0.00  0.00    +0.000 A 
ENDBRANCH  24  25
ENDBRANCH   8  24
TORSDOF 6
ENDMDL
MODEL 5
REMARK VINA RESULT:      -7.5      6.432     10.475
REMARK  Name = 
REMARK  9 active torsions:
REMARK  status: ('A' for Active; 'I' for Inactive)
REMARK    1  A    between atoms: C_1  and  C_2
REMARK    2  A    between atoms: C_4  and  C_5
REMARK    3  A    between atoms: C_8  and  C_9
REMARK    4  A    between atoms: C_9  and  C_11
REMARK    5  A    between atoms: C_12  and  C_13
REMARK    6  A    between atoms: C_13  and  C_14
REMARK    7  A    between atoms: C_13  and  C_15
REMARK    8  A    between atoms: N_21  and  C_22
REMARK    9  A    between atoms: C_22  and  C_23
REMARK                            x       y       z     vdW  Elec       q    Type
REMARK                         _______ _______ _______ _____ _____    ______ ____
ROOT
ATOM      1  C   UNL     1      -1.681  12.364  20.945  0.00  0.00    +0.000 A 
ATOM      2  C   UNL     1      -1.467  11.915  22.218  0.00  0.00    +0.000 A 
ATOM      3  C   UNL     1      -0.674  10.657  22.365  0.00  0.00    +0.000 A 
ATOM      4  O   UNL     1      -0.457  10.127  23.450  0.00  0.00    +0.000 OA
ATOM      5  N   UNL     1      -0.193  10.084  21.242  0.00  0.00    +0.000 N 
ATOM      6  C   UNL     1      -0.343  10.546  19.981  0.00  0.00    +0.000 A 
ATOM      7  O   UNL     1       0.149   9.903  19.054  0.00  0.00    +0.000 OA
ATOM      8  N   UNL     1      -1.067  11.720  19.832  0.00  0.00    +0.000 N 
ATOM      9  H   UNL     1       0.329   9.228  21.350  0.00  0.00    +0.000 HD
ENDROOT
BRANCH   2  10
ATOM     10  C   UNL     1      -1.918  12.514  23.565  0.00  0.00    +0.000 C 
ATOM     11  C   UNL     1      -1.581  14.009  23.732  0.00  0.00    +0.000 C 
ATOM     12  C   UNL     1      -3.400  12.291  23.889  0.00  0.00    +0.000 C 
ENDBRANCH   2  10
BRANCH   1  13
ATOM     13  C   UNL     1      -2.512  13.613  20.662  0.00  0.00    +0.000 C 
ATOM     14  O   UNL     1      -1.975  14.648  20.267  0.00  0.00    +0.000 OA
BRANCH  13  20
ATOM     15  C   UNL     1      -7.118  11.496  20.690  0.00  0.00    +0.000 C 
ATOM     16  C   UNL     1      -6.218  12.684  20.888  0.00  0.00    +0.000 A 
ATOM     17  C   UNL     1      -6.710  13.837  21.519  0.00  0.00    +0.000 A 
ATOM     18  C   UNL     1      -5.868  14.926  21.762  0.00  0.00    +0.000 A 
ATOM     19  C   UNL     1      -4.511  14.838  21.440  0.00  0.00    +0.000 A 
ATOM     20  C   UNL     1      -3.991  13.674  20.846  0.00  0.00    +0.000 A 
ATOM     21  C   UNL     1      -4.863  12.631  20.510  0.00  0.00    +0.000 A 
BRANCH  18  22
ATOM     22  C   UNL     1      -6.392  16.122  22.343  0.00  0.00    +0.000 C 
ATOM     23  N   UNL     1      -6.826  17.096  22.811  0.00  0.00    +0.000 NA
ENDBRANCH  18  22
ENDBRANCH  13  20
ENDBRANCH   1  13
BRANCH   8  24
ATOM     24  C   UNL     1      -1.218  12.173  18.434  0.00  0.00    +0.000 C 
BRANCH  24  25
ATOM     25  C   UNL     1      -2.305  11.506  17.598  0.00  0.00    +0.000 A 
ATOM     26  C   UNL     1      -3.662  11.540  17.934  0.00  0.00    +0.000 A 
ATOM     27  C   UNL     1      -4.601  11.053  17.030  0.00  0.00    +0.000 A 
ATOM     28  F   UNL     1      -5.897  11.131  17.366  0.00  0.00    +0.000 F 
ATOM     29  N   UNL     1      -4.310  10.533  15.828  0.00  0.00    +0.000 NA
ATOM     30  C   UNL     1      -3.004  10.505  15.516  0.00  0.00    +0.000 A 
ATOM     31  F   UNL     1      -2.667  10.035  14.308  0.00  0.00    +0.000 F 
ATOM     32  C   UNL     1      -1.983  10.962  16.344  0.00  0.00    +0.000 A 
ENDBRANCH  24  25
ENDBRANCH   8  24
TORSDOF 6
ENDMDL
MODEL 6
REMARK VINA RESULT:      -7.5      6.061     11.524
REMARK  Name = 
REMARK  9 active torsions:
REMARK  status: ('A' for Active; 'I' for Inactive)
REMARK    1  A    between atoms: C_1  and  C_2
REMARK    2  A    between atoms: C_4  and  C_5
REMARK    3  A    between atoms: C_8  and  C_9
REMARK    4  A    between atoms: C_9  and  C_11
REMARK    5  A    between atoms: C_12  and  C_13
REMARK    6  A    between atoms: C_13  and  C_14
REMARK    7  A    between atoms: C_13  and  C_15
REMARK    8  A    between atoms: N_21  and  C_22
REMARK    9  A    between atoms: C_22  and  C_23
REMARK                            x       y       z     vdW  Elec       q    Type
REMARK                         _______ _______ _______ _____ _____    ______ ____
ROOT
ATOM      1  C   UNL     1      -4.000  12.636  21.487  0.00  0.00    +0.000 A 
ATOM      2  C   UNL     1      -5.245  12.541  20.929  0.00  0.00    +0.000 A 
ATOM      3  C   UNL     1      -5.309  12.404  19.443  0.00  0.00    +0.000 A 
ATOM      4  O   UNL     1      -6.365  12.360  18.820  0.00  0.00    +0.000 OA
ATOM      5  N   UNL     1      -4.142  12.339  18.768  0.00  0.00    +0.000 N 
ATOM      6  C   UNL     1      -2.904  12.369  19.307  0.00  0.00    +0.000 A 
ATOM      7  O   UNL     1      -1.930  12.308  18.555  0.00  0.00    +0.000 OA
ATOM      8  N   UNL     1      -2.830  12.484  20.688  0.00  0.00    +0.000 N 
ATOM      9  H   UNL     1      -4.195  12.259  17.763  0.00  0.00    +0.000 HD
ENDROOT
BRANCH   2  10
ATOM     10  C   UNL     1      -6.631  12.549  21.603  0.00  0.00    +0.000 C 
ATOM     11  C   UNL     1      -7.423  13.855  21.393  0.00  0.00    +0.000 C 
ATOM     12  C   UNL     1      -7.519  11.355  21.231  0.00  0.00    +0.000 C 
ENDBRANCH   2  10
BRANCH   1  13
ATOM     13  C   UNL     1      -3.804  12.823  22.989  0.00  0.00    +0.000 C 
ATOM     14  O   UNL     1      -3.762  11.850  23.742  0.00  0.00    +0.000 OA
BRANCH  13  20
ATOM     15  C   UNL     1      -5.622  17.339  24.404  0.00  0.00    +0.000 C 
ATOM     16  C   UNL     1      -4.509  16.330  24.352  0.00  0.00    +0.000 A 
ATOM     17  C   UNL     1      -3.369  16.503  25.150  0.00  0.00    +0.000 A 
ATOM     18  C   UNL     1      -2.353  15.543  25.154  0.00  0.00    +0.000 A 
ATOM     19  C   UNL     1      -2.507  14.369  24.413  0.00  0.00    +0.000 A 
ATOM     20  C   UNL     1      -3.661  14.158  23.638  0.00  0.00    +0.000 A 
ATOM     21  C   UNL     1      -4.624  15.173  23.558  0.00  0.00    +0.000 A 
BRANCH  18  22
ATOM     22  C   UNL     1      -1.165  15.759  25.919  0.00  0.00    +0.000 C 
ATOM     23  N   UNL     1      -0.194  15.941  26.535  0.00  0.00    +0.000 NA
ENDBRANCH  18  22
ENDBRANCH  13  20
ENDBRANCH   1  13
BRANCH   8  24
ATOM     24  C   UNL     1      -1.455  12.532  21.226  0.00  0.00    +0.000 C 
BRANCH  24  25
ATOM     25  C   UNL     1      -0.761  11.199  21.487  0.00  0.00    +0.000 A 
ATOM     26  C   UNL     1      -0.040  10.505  20.510  0.00  0.00    +0.000 A 
ATOM     27  C   UNL     1       0.701   9.385  20.875  0.00  0.00    +0.000 A 
ATOM     28  F   UNL     1       1.410   8.761  19.923  0.00  0.00    +0.000 F 
ATOM     29  N   UNL     1       0.785   8.896  22.122  0.00  0.00    +0.000 NA
ATOM     30  C   UNL     1       0.088   9.570  23.051  0.00  0.00    +0.000 A 
ATOM     31  F   UNL     1       0.176   9.145  24.319  0.00  0.00    +0.000 F 
ATOM     32  C   UNL     1      -0.687  10.697  22.796  0.00  0.00    +0.000 A 
ENDBRANCH  24  25
ENDBRANCH   8  24
TORSDOF 6
ENDMDL
MODEL 7
REMARK VINA RESULT:      -7.4      4.050      8.441
REMARK  Name = 
REMARK  9 active torsions:
REMARK  status: ('A' for Active; 'I' for Inactive)
REMARK    1  A    between atoms: C_1  and  C_2
REMARK    2  A    between atoms: C_4  and  C_5
REMARK    3  A    between atoms: C_8  and  C_9
REMARK    4  A    between atoms: C_9  and  C_11
REMARK    5  A    between atoms: C_12  and  C_13
REMARK    6  A    between atoms: C_13  and  C_14
REMARK    7  A    between atoms: C_13  and  C_15
REMARK    8  A    between atoms: N_21  and  C_22
REMARK    9  A    between atoms: C_22  and  C_23
REMARK                            x       y       z     vdW  Elec       q    Type
REMARK                         _______ _______ _______ _____ _____    ______ ____
ROOT
ATOM      1  C   UNL     1      -0.341  12.499  19.660  0.00  0.00    +0.000 A 
ATOM      2  C   UNL     1      -1.494  12.928  20.257  0.00  0.00    +0.000 A 
ATOM      3  C   UNL     1      -2.770  12.325  19.766  0.00  0.00    +0.000 A 
ATOM      4  O   UNL     1      -3.873  12.662  20.185  0.00  0.00    +0.000 OA
ATOM      5  N   UNL     1      -2.689  11.377  18.810  0.00  0.00    +0.000 N 
ATOM      6  C   UNL     1      -1.556  10.897  18.252  0.00  0.00    +0.000 A 
ATOM      7  O   UNL     1      -1.645  10.034  17.380  0.00  0.00    +0.000 OA
ATOM      8  N   UNL     1      -0.362  11.440  18.708  0.00  0.00    +0.000 N 
ATOM      9  H   UNL     1      -3.557  10.985  18.475  0.00  0.00    +0.000 HD
ENDROOT
BRANCH   2  10
ATOM     10  C   UNL     1      -1.698  13.956  21.386  0.00  0.00    +0.000 C 
ATOM     11  C   UNL     1      -1.000  13.584  22.709  0.00  0.00    +0.000 C 
ATOM     12  C   UNL     1      -1.323  15.394  21.005  0.00  0.00    +0.000 C 
ENDBRANCH   2  10
BRANCH   1  13
ATOM     13  C   UNL     1       1.023  13.071  20.043  0.00  0.00    +0.000 C 
ATOM     14  O   UNL     1       1.608  12.676  21.051  0.00  0.00    +0.000 OA
BRANCH  13  20
ATOM     15  C   UNL     1       1.308  17.709  18.018  0.00  0.00    +0.000 C 
ATOM     16  C   UNL     1       1.902  16.353  18.282  0.00  0.00    +0.000 A 
ATOM     17  C   UNL     1       3.260  16.120  18.018  0.00  0.00    +0.000 A 
ATOM     18  C   UNL     1       3.837  14.882  18.314  0.00  0.00    +0.000 A 
ATOM     19  C   UNL     1       3.074  13.895  18.942  0.00  0.00    +0.000 A 
ATOM     20  C   UNL     1       1.722  14.124  19.252  0.00  0.00    +0.000 A 
ATOM     21  C   UNL     1       1.126  15.328  18.856  0.00  0.00    +0.000 A 
BRANCH  18  22
ATOM     22  C   UNL     1       5.204  14.630  17.981  0.00  0.00    +0.000 C 
ATOM     23  N   UNL     1       6.317  14.415  17.714  0.00  0.00    +0.000 NA
ENDBRANCH  18  22
ENDBRANCH  13  20
ENDBRANCH   1  13
BRANCH   8  24
ATOM     24  C   UNL     1       0.846  10.896  18.055  0.00  0.00    +0.000 C 
BRANCH  24  25
ATOM     25  C   UNL     1       1.451   9.628  18.649  0.00  0.00    +0.000 A 
ATOM     26  C   UNL     1       1.188   9.190  19.951  0.00  0.00    +0.000 A 
ATOM     27  C   UNL     1       1.644   7.939  20.354  0.00  0.00    +0.000 A 
ATOM     28  F   UNL     1       1.347   7.531  21.596  0.00  0.00    +0.000 F 
ATOM     29  N   UNL     1       2.339   7.090  19.580  0.00  0.00    +0.000 NA
ATOM     30  C   UNL     1       2.585   7.522  18.333  0.00  0.00    +0.000 A 
ATOM     31  F   UNL     1       3.238   6.692  17.508  0.00  0.00    +0.000 F 
ATOM     32  C   UNL     1       2.180   8.754  17.827  0.00  0.00    +0.000 A 
ENDBRANCH  24  25
ENDBRANCH   8  24
TORSDOF 6
ENDMDL
MODEL 8
REMARK VINA RESULT:      -7.4      5.221      8.252
REMARK  Name = 
REMARK  9 active torsions:
REMARK  status: ('A' for Active; 'I' for Inactive)
REMARK    1  A    between atoms: C_1  and  C_2
REMARK    2  A    between atoms: C_4  and  C_5
REMARK    3  A    between atoms: C_8  and  C_9
REMARK    4  A    between atoms: C_9  and  C_11
REMARK    5  A    between atoms: C_12  and  C_13
REMARK    6  A    between atoms: C_13  and  C_14
REMARK    7  A    between atoms: C_13  and  C_15
REMARK    8  A    between atoms: N_21  and  C_22
REMARK    9  A    between atoms: C_22  and  C_23
REMARK                            x       y       z     vdW  Elec       q    Type
REMARK                         _______ _______ _______ _____ _____    ______ ____
ROOT
ATOM      1  C   UNL     1      -2.865  12.344  19.321  0.00  0.00    +0.000 A 
ATOM      2  C   UNL     1      -4.008  11.776  18.833  0.00  0.00    +0.000 A 
ATOM      3  C   UNL     1      -5.285  12.129  19.524  0.00  0.00    +0.000 A 
ATOM      4  O   UNL     1      -6.369  11.647  19.213  0.00  0.00    +0.000 OA
ATOM      5  N   UNL     1      -5.223  13.012  20.543  0.00  0.00    +0.000 N 
ATOM      6  C   UNL     1      -4.112  13.630  20.999  0.00  0.00    +0.000 A 
ATOM      7  O   UNL     1      -4.216  14.407  21.949  0.00  0.00    +0.000 OA
ATOM      8  N   UNL     1      -2.921  13.320  20.358  0.00  0.00    +0.000 N 
ATOM      9  H   UNL     1      -6.089  13.234  21.012  0.00  0.00    +0.000 HD
ENDROOT
BRANCH   2  10
ATOM     10  C   UNL     1      -4.201  10.805  17.651  0.00  0.00    +0.000 C 
ATOM     11  C   UNL     1      -3.960  11.444  16.269  0.00  0.00    +0.000 C 
ATOM     12  C   UNL     1      -3.386   9.511  17.758  0.00  0.00    +0.000 C 
ENDBRANCH   2  10
BRANCH   1  13
ATOM     13  C   UNL     1      -1.494  12.029  18.729  0.00  0.00    +0.000 C 
ATOM     14  O   UNL     1      -1.058  12.675  17.777  0.00  0.00    +0.000 OA
BRANCH  13  20
ATOM     15  C   UNL     1       2.140   8.546  18.122  0.00  0.00    +0.000 C 
ATOM     16  C   UNL     1       1.149   9.271  18.989  0.00  0.00    +0.000 A 
ATOM     17  C   UNL     1       1.207   9.134  20.384  0.00  0.00    +0.000 A 
ATOM     18  C   UNL     1       0.329   9.849  21.203  0.00  0.00    +0.000 A 
ATOM     19  C   UNL     1      -0.565  10.759  20.634  0.00  0.00    +0.000 A 
ATOM     20  C   UNL     1      -0.609  10.941  19.240  0.00  0.00    +0.000 A 
ATOM     21  C   UNL     1       0.200  10.144  18.421  0.00  0.00    +0.000 A 
BRANCH  18  22
ATOM     22  C   UNL     1       0.349   9.653  22.619  0.00  0.00    +0.000 C 
ATOM     23  N   UNL     1       0.374   9.488  23.771  0.00  0.00    +0.000 NA
ENDBRANCH  18  22
ENDBRANCH  13  20
ENDBRANCH   1  13
BRANCH   8  24
ATOM     24  C   UNL     1      -1.734  14.007  20.906  0.00  0.00    +0.000 C 
BRANCH  24  25
ATOM     25  C   UNL     1      -1.271  15.275  20.196  0.00  0.00    +0.000 A 
ATOM     26  C   UNL     1      -0.081  15.355  19.466  0.00  0.00    +0.000 A 
ATOM     27  C   UNL     1       0.181  16.494  18.711  0.00  0.00    +0.000 A 
ATOM     28  F   UNL     1       1.314  16.528  17.994  0.00  0.00    +0.000 F 
ATOM     29  N   UNL     1      -0.632  17.558  18.622  0.00  0.00    +0.000 NA
ATOM     30  C   UNL     1      -1.771  17.470  19.328  0.00  0.00    +0.000 A 
ATOM     31  F   UNL     1      -2.636  18.490  19.236  0.00  0.00    +0.000 F 
ATOM     32  C   UNL     1      -2.131  16.382  20.117  0.00  0.00    +0.000 A 
ENDBRANCH  24  25
ENDBRANCH   8  24
TORSDOF 6
ENDMDL
MODEL 9
REMARK VINA RESULT:      -7.4      1.287      1.989
REMARK  Name = 
REMARK  9 active torsions:
REMARK  status: ('A' for Active; 'I' for Inactive)
REMARK    1  A    between atoms: C_1  and  C_2
REMARK    2  A    between atoms: C_4  and  C_5
REMARK    3  A    between atoms: C_8  and  C_9
REMARK    4  A    between atoms: C_9  and  C_11
REMARK    5  A    between atoms: C_12  and  C_13
REMARK    6  A    between atoms: C_13  and  C_14
REMARK    7  A    between atoms: C_13  and  C_15
REMARK    8  A    between atoms: N_21  and  C_22
REMARK    9  A    between atoms: C_22  and  C_23
REMARK                            x       y       z     vdW  Elec       q    Type
REMARK                         _______ _______ _______ _____ _____    ______ ____
ROOT
ATOM      1  C   UNL     1       2.666   6.695  18.837  0.00  0.00    +0.000 A 
ATOM      2  C   UNL     1       2.408   5.435  19.299  0.00  0.00    +0.000 A 
ATOM      3  C   UNL     1       1.650   5.329  20.583  0.00  0.00    +0.000 A 
ATOM      4  O   UNL     1       1.401   4.258  21.126  0.00  0.00    +0.000 OA
ATOM      5  N   UNL     1       1.240   6.476  21.165  0.00  0.00    +0.000 N 
ATOM      6  C   UNL     1       1.432   7.726  20.692  0.00  0.00    +0.000 A 
ATOM      7  O   UNL     1       1.003   8.678  21.345  0.00  0.00    +0.000 OA
ATOM      8  N   UNL     1       2.124   7.838  19.494  0.00  0.00    +0.000 N 
ATOM      9  H   UNL     1       0.740   6.395  22.038  0.00  0.00    +0.000 HD
ENDROOT
BRANCH   2  10
ATOM     10  C   UNL     1       2.778   4.066  18.694  0.00  0.00    +0.000 C 
ATOM     11  C   UNL     1       3.714   3.221  19.579  0.00  0.00    +0.000 C 
ATOM     12  C   UNL     1       1.572   3.215  18.276  0.00  0.00    +0.000 C 
ENDBRANCH   2  10
BRANCH   1  13
ATOM     13  C   UNL     1       3.468   6.935  17.560  0.00  0.00    +0.000 C 
ATOM     14  O   UNL     1       3.080   7.744  16.718  0.00  0.00    +0.000 OA
BRANCH  13  20
ATOM     15  C   UNL     1       6.778   4.901  14.303  0.00  0.00    +0.000 C 
ATOM     16  C   UNL     1       6.363   5.253  15.705  0.00  0.00    +0.000 A 
ATOM     17  C   UNL     1       7.289   5.160  16.754  0.00  0.00    +0.000 A 
ATOM     18  C   UNL     1       6.933   5.539  18.051  0.00  0.00    +0.000 A 
ATOM     19  C   UNL     1       5.668   6.082  18.290  0.00  0.00    +0.000 A 
ATOM     20  C   UNL     1       4.740   6.222  17.244  0.00  0.00    +0.000 A 
ATOM     21  C   UNL     1       5.069   5.741  15.970  0.00  0.00    +0.000 A 
BRANCH  18  22
ATOM     22  C   UNL     1       7.861   5.379  19.126  0.00  0.00    +0.000 C 
ATOM     23  N   UNL     1       8.619   5.239  19.999  0.00  0.00    +0.000 NA
ENDBRANCH  18  22
ENDBRANCH  13  20
ENDBRANCH   1  13
BRANCH   8  24
ATOM     24  C   UNL     1       2.324   9.226  19.029  0.00  0.00    +0.000 C 
BRANCH  24  25
ATOM     25  C   UNL     1       1.086  10.000  18.588  0.00  0.00    +0.000 A 
ATOM     26  C   UNL     1       0.050   9.431  17.841  0.00  0.00    +0.000 A 
ATOM     27  C   UNL     1      -1.117  10.158  17.628  0.00  0.00    +0.000 A 
ATOM     28  F   UNL     1      -2.106   9.573  16.937  0.00  0.00    +0.000 F 
ATOM     29  N   UNL     1      -1.341  11.399  18.088  0.00  0.00    +0.000 NA
ATOM     30  C   UNL     1      -0.339  11.935  18.803  0.00  0.00    +0.000 A 
ATOM     31  F   UNL     1      -0.533  13.156  19.320  0.00  0.00    +0.000 F 
ATOM     32  C   UNL     1       0.869  11.299  19.073  0.00  0.00    +0.000 A 
ENDBRANCH  24  25
ENDBRANCH   8  24
TORSDOF 6
ENDMDL
