MODEL 1
REMARK VINA RESULT:      -6.6      0.000      0.000
REMARK  Name = 
REMARK  4 active torsions:
REMARK  status: ('A' for Active; 'I' for Inactive)
REMARK    1  A    between atoms: N_1  and  C_2
REMARK    2  A    between atoms: C_5  and  C_6
REMARK    3  A    between atoms: N_8  and  C_9
REMARK    4  A    between atoms: C_13  and  O_14
REMARK                            x       y       z     vdW  Elec       q    Type
REMARK                         _______ _______ _______ _____ _____    ______ ____
ROOT
ATOM      1  C   UNL     1       1.515   8.143  20.047  0.00  0.00    +0.000 C 
ATOM      2  O   UNL     1       1.840   8.548  18.936  0.00  0.00    +0.000 OA
ATOM      3  N   UNL     1       1.770   6.879  20.558  0.00  0.00    +0.000 N 
ATOM      4  H   UNL     1       1.377   6.650  21.461  0.00  0.00    +0.000 HD
ENDROOT
BRANCH   3   5
ATOM      5  C   UNL     1       2.506   5.846  19.920  0.00  0.00    +0.000 A 
ATOM      6  C   UNL     1       3.853   5.965  19.565  0.00  0.00    +0.000 A 
ATOM      7  C   UNL     1       4.534   4.895  18.981  0.00  0.00    +0.000 A 
ATOM      8 BR   UNL     1       6.365   5.117  18.533  0.00  0.00    +0.000 Br
ATOM      9  C   UNL     1       3.884   3.686  18.741  0.00  0.00    +0.000 A 
ATOM     10  C   UNL     1       2.534   3.564  19.073  0.00  0.00    +0.000 A 
ATOM     11 BR   UNL     1       1.590   1.944  18.775  0.00  0.00    +0.000 Br
ATOM     12  C   UNL     1       1.846   4.639  19.653  0.00  0.00    +0.000 A 
BRANCH   9  13
ATOM     13  O   UNL     1       4.554   2.625  18.194  0.00  0.00    +0.000 OA
ATOM     14  H   UNL     1       3.905   2.084  17.707  0.00  0.00    +0.000 HD
ENDBRANCH   9  13
ENDBRANCH   3   5
BRANCH   1  18
ATOM     15  C   UNL     1      -0.618  11.005  22.464  0.00  0.00    +0.000 A 
ATOM     16  C   UNL     1      -0.422  11.203  21.097  0.00  0.00    +0.000 A 
ATOM     17  C   UNL     1       0.281  10.265  20.337  0.00  0.00    +0.000 A 
ATOM     18  C   UNL     1       0.759   9.086  20.922  0.00  0.00    +0.000 A 
ATOM     19  C   UNL     1       0.541   8.866  22.285  0.00  0.00    +0.000 A 
ATOM     20  C   UNL     1      -0.168   9.812  23.039  0.00  0.00    +0.000 A 
BRANCH  15  21
ATOM     21  N   UNL     1      -1.448  11.870  23.184  0.00  0.00    +0.000 N 
ATOM     22  H   UNL     1      -1.397  12.838  22.880  0.00  0.00    +0.000 HD
ATOM     23  H   UNL     1      -1.373  11.781  24.192  0.00  0.00    +0.000 HD
ENDBRANCH  15  21
ENDBRANCH   1  18
TORSDOF 4
ENDMDL
MODEL 2
REMARK VINA RESULT:      -6.5      0.247      1.118
REMARK  Name = 
REMARK  4 active torsions:
REMARK  status: ('A' for Active; 'I' for Inactive)
REMARK    1  A    between atoms: N_1  and  C_2
REMARK    2  A    between atoms: C_5  and  C_6
REMARK    3  A    between atoms: N_8  and  C_9
REMARK    4  A    between atoms: C_13  and  O_14
REMARK                            x       y       z     vdW  Elec       q    Type
REMARK                         _______ _______ _______ _____ _____    ______ ____
ROOT
ATOM      1  C   UNL     1       1.603   8.238  19.810  0.00  0.00    +0.000 C 
ATOM      2  O   UNL     1       1.894   8.559  18.662  0.00  0.00    +0.000 OA
ATOM      3  N   UNL     1       1.878   7.018  20.408  0.00  0.00    +0.000 N 
ATOM      4  H   UNL     1       1.512   6.857  21.336  0.00  0.00    +0.000 HD
ENDROOT
BRANCH   3   5
ATOM      5  C   UNL     1       2.601   5.942  19.829  0.00  0.00    +0.000 A 
ATOM      6  C   UNL     1       3.953   6.019  19.483  0.00  0.00    +0.000 A 
ATOM      7  C   UNL     1       4.621   4.909  18.959  0.00  0.00    +0.000 A 
ATOM      8 BR   UNL     1       6.460   5.075  18.521  0.00  0.00    +0.000 Br
ATOM      9  C   UNL     1       3.950   3.702  18.772  0.00  0.00    +0.000 A 
ATOM     10  C   UNL     1       2.595   3.621  19.095  0.00  0.00    +0.000 A 
ATOM     11 BR   UNL     1       1.624   2.006  18.866  0.00  0.00    +0.000 Br
ATOM     12  C   UNL     1       1.921   4.736  19.614  0.00  0.00    +0.000 A 
BRANCH   9  13
ATOM     13  O   UNL     1       4.605   2.603  18.285  0.00  0.00    +0.000 OA
ATOM     14  H   UNL     1       4.370   2.511  17.343  0.00  0.00    +0.000 HD
ENDBRANCH   9  13
ENDBRANCH   3   5
BRANCH   1  18
ATOM     15  C   UNL     1      -0.607  11.004  22.269  0.00  0.00    +0.000 A 
ATOM     16  C   UNL     1      -0.284   9.723  22.718  0.00  0.00    +0.000 A 
ATOM     17  C   UNL     1       0.425   8.842  21.898  0.00  0.00    +0.000 A 
ATOM     18  C   UNL     1       0.867   9.243  20.631  0.00  0.00    +0.000 A 
ATOM     19  C   UNL     1       0.573  10.536  20.186  0.00  0.00    +0.000 A 
ATOM     20  C   UNL     1      -0.138  11.414  21.017  0.00  0.00    +0.000 A 
BRANCH  15  21
ATOM     21  N   UNL     1      -1.183  11.927  23.147  0.00  0.00    +0.000 N 
ATOM     22  H   UNL     1      -2.195  11.862  23.209  0.00  0.00    +0.000 HD
ATOM     23  H   UNL     1      -0.869  12.884  23.016  0.00  0.00    +0.000 HD
ENDBRANCH  15  21
ENDBRANCH   1  18
TORSDOF 4
ENDMDL
MODEL 3
REMARK VINA RESULT:      -6.5      1.212      1.675
REMARK  Name = 
REMARK  4 active torsions:
REMARK  status: ('A' for Active; 'I' for Inactive)
REMARK    1  A    between atoms: N_1  and  C_2
REMARK    2  A    between atoms: C_5  and  C_6
REMARK    3  A    between atoms: N_8  and  C_9
REMARK    4  A    between atoms: C_13  and  O_14
REMARK                            x       y       z     vdW  Elec       q    Type
REMARK                         _______ _______ _______ _____ _____    ______ ____
ROOT
ATOM      1  C   UNL     1       1.838   8.271  19.121  0.00  0.00    +0.000 C 
ATOM      2  O   UNL     1       1.981   8.751  18.001  0.00  0.00    +0.000 OA
ATOM      3  N   UNL     1       2.321   7.043  19.547  0.00  0.00    +0.000 N 
ATOM      4  H   UNL     1       2.064   6.734  20.475  0.00  0.00    +0.000 HD
ENDROOT
BRANCH   3   5
ATOM      5  C   UNL     1       3.121   6.146  18.792  0.00  0.00    +0.000 A 
ATOM      6  C   UNL     1       4.367   6.486  18.258  0.00  0.00    +0.000 A 
ATOM      7  C   UNL     1       5.128   5.543  17.562  0.00  0.00    +0.000 A 
ATOM      8 BR   UNL     1       6.817   6.066  16.872  0.00  0.00    +0.000 Br
ATOM      9  C   UNL     1       4.659   4.243  17.389  0.00  0.00    +0.000 A 
ATOM     10  C   UNL     1       3.407   3.898  17.901  0.00  0.00    +0.000 A 
ATOM     11 BR   UNL     1       2.711   2.144  17.701  0.00  0.00    +0.000 Br
ATOM     12  C   UNL     1       2.638   4.846  18.593  0.00  0.00    +0.000 A 
BRANCH   9  13
ATOM     13  O   UNL     1       5.411   3.307  16.732  0.00  0.00    +0.000 OA
ATOM     14  H   UNL     1       6.229   3.742  16.430  0.00  0.00    +0.000 HD
ENDBRANCH   9  13
ENDBRANCH   3   5
BRANCH   1  18
ATOM     15  C   UNL     1      -0.440  10.429  22.077  0.00  0.00    +0.000 A 
ATOM     16  C   UNL     1       0.330   9.316  22.416  0.00  0.00    +0.000 A 
ATOM     17  C   UNL     1       1.052   8.628  21.438  0.00  0.00    +0.000 A 
ATOM     18  C   UNL     1       1.057   9.070  20.110  0.00  0.00    +0.000 A 
ATOM     19  C   UNL     1       0.311  10.203  19.767  0.00  0.00    +0.000 A 
ATOM     20  C   UNL     1      -0.409  10.888  20.756  0.00  0.00    +0.000 A 
BRANCH  15  21
ATOM     21  N   UNL     1      -1.037  11.198  23.081  0.00  0.00    +0.000 N 
ATOM     22  H   UNL     1      -0.791  10.909  24.024  0.00  0.00    +0.000 HD
ATOM     23  H   UNL     1      -2.037  11.329  22.970  0.00  0.00    +0.000 HD
ENDBRANCH  15  21
ENDBRANCH   1  18
TORSDOF 4
ENDMDL
MODEL 4
REMARK VINA RESULT:      -6.5      1.089      1.136
REMARK  Name = 
REMARK  4 active torsions:
REMARK  status: ('A' for Active; 'I' for Inactive)
REMARK    1  A    between atoms: N_1  and  C_2
REMARK    2  A    between atoms: C_5  and  C_6
REMARK    3  A    between atoms: N_8  and  C_9
REMARK    4  A    between atoms: C_13  and  O_14
REMARK                            x       y       z     vdW  Elec       q    Type
REMARK                         _______ _______ _______ _____ _____    ______ ____
ROOT
ATOM      1  C   UNL     1       1.790   8.125  19.377  0.00  0.00    +0.000 C 
ATOM      2  O   UNL     1       1.777   8.548  18.225  0.00  0.00    +0.000 OA
ATOM      3  N   UNL     1       2.410   6.962  19.809  0.00  0.00    +0.000 N 
ATOM      4  H   UNL     1       2.276   6.689  20.773  0.00  0.00    +0.000 HD
ENDROOT
BRANCH   3   5
ATOM      5  C   UNL     1       3.196   6.084  19.017  0.00  0.00    +0.000 A 
ATOM      6  C   UNL     1       4.447   6.426  18.496  0.00  0.00    +0.000 A 
ATOM      7  C   UNL     1       5.192   5.500  17.763  0.00  0.00    +0.000 A 
ATOM      8 BR   UNL     1       6.890   6.023  17.093  0.00  0.00    +0.000 Br
ATOM      9  C   UNL     1       4.703   4.215  17.536  0.00  0.00    +0.000 A 
ATOM     10  C   UNL     1       3.445   3.871  18.035  0.00  0.00    +0.000 A 
ATOM     11 BR   UNL     1       2.721   2.137  17.763  0.00  0.00    +0.000 Br
ATOM     12  C   UNL     1       2.692   4.801  18.765  0.00  0.00    +0.000 A 
BRANCH   9  13
ATOM     13  O   UNL     1       5.440   3.295  16.841  0.00  0.00    +0.000 OA
ATOM     14  H   UNL     1       5.833   2.680  17.488  0.00  0.00    +0.000 HD
ENDBRANCH   9  13
ENDBRANCH   3   5
BRANCH   1  18
ATOM     15  C   UNL     1      -0.311  10.572  22.238  0.00  0.00    +0.000 A 
ATOM     16  C   UNL     1      -0.299  10.883  20.878  0.00  0.00    +0.000 A 
ATOM     17  C   UNL     1       0.397  10.079  19.972  0.00  0.00    +0.000 A 
ATOM     18  C   UNL     1       1.055   8.921  20.403  0.00  0.00    +0.000 A 
ATOM     19  C   UNL     1       1.023   8.586  21.760  0.00  0.00    +0.000 A 
ATOM     20  C   UNL     1       0.320   9.398  22.662  0.00  0.00    +0.000 A 
BRANCH  15  21
ATOM     21  N   UNL     1      -1.129  11.293  23.112  0.00  0.00    +0.000 N 
ATOM     22  H   UNL     1      -1.616  12.071  22.676  0.00  0.00    +0.000 HD
ATOM     23  H   UNL     1      -0.680  11.562  23.982  0.00  0.00    +0.000 HD
ENDBRANCH  15  21
ENDBRANCH   1  18
TORSDOF 4
ENDMDL
MODEL 5
REMARK VINA RESULT:      -6.5      1.066      2.392
REMARK  Name = 
REMARK  4 active torsions:
REMARK  status: ('A' for Active; 'I' for Inactive)
REMARK    1  A    between atoms: N_1  and  C_2
REMARK    2  A    between atoms: C_5  and  C_6
REMARK    3  A    between atoms: N_8  and  C_9
REMARK    4  A    between atoms: C_13  and  O_14
REMARK                            x       y       z     vdW  Elec       q    Type
REMARK                         _______ _______ _______ _____ _____    ______ ____
ROOT
ATOM      1  C   UNL     1       1.889   7.997  19.559  0.00  0.00    +0.000 C 
ATOM      2  O   UNL     1       2.001   8.442  18.421  0.00  0.00    +0.000 OA
ATOM      3  N   UNL     1       2.408   6.796  20.017  0.00  0.00    +0.000 N 
ATOM      4  H   UNL     1       2.174   6.512  20.959  0.00  0.00    +0.000 HD
ENDROOT
BRANCH   3   5
ATOM      5  C   UNL     1       3.215   5.892  19.277  0.00  0.00    +0.000 A 
ATOM      6  C   UNL     1       2.884   4.549  19.076  0.00  0.00    +0.000 A 
ATOM      7  C   UNL     1       3.698   3.721  18.299  0.00  0.00    +0.000 A 
ATOM      8 BR   UNL     1       3.185   1.910  18.055  0.00  0.00    +0.000 Br
ATOM      9  C   UNL     1       4.856   4.220  17.707  0.00  0.00    +0.000 A 
ATOM     10  C   UNL     1       5.207   5.554  17.918  0.00  0.00    +0.000 A 
ATOM     11 BR   UNL     1       6.771   6.296  17.139  0.00  0.00    +0.000 Br
ATOM     12  C   UNL     1       4.395   6.385  18.704  0.00  0.00    +0.000 A 
BRANCH   9  13
ATOM     13  O   UNL     1       5.643   3.421  16.922  0.00  0.00    +0.000 OA
ATOM     14  H   UNL     1       5.991   2.703  17.483  0.00  0.00    +0.000 HD
ENDBRANCH   9  13
ENDBRANCH   3   5
BRANCH   1  18
ATOM     15  C   UNL     1      -0.370  10.487  22.258  0.00  0.00    +0.000 A 
ATOM     16  C   UNL     1      -0.439  10.656  20.875  0.00  0.00    +0.000 A 
ATOM     17  C   UNL     1       0.310   9.843  20.022  0.00  0.00    +0.000 A 
ATOM     18  C   UNL     1       1.106   8.811  20.534  0.00  0.00    +0.000 A 
ATOM     19  C   UNL     1       1.158   8.615  21.918  0.00  0.00    +0.000 A 
ATOM     20  C   UNL     1       0.401   9.436  22.766  0.00  0.00    +0.000 A 
BRANCH  15  21
ATOM     21  N   UNL     1      -1.232  11.202  23.094  0.00  0.00    +0.000 N 
ATOM     22  H   UNL     1      -0.809  11.495  23.971  0.00  0.00    +0.000 HD
ATOM     23  H   UNL     1      -2.138  10.767  23.234  0.00  0.00    +0.000 HD
ENDBRANCH  15  21
ENDBRANCH   1  18
TORSDOF 4
ENDMDL
MODEL 6
REMARK VINA RESULT:      -6.5      4.532      7.907
REMARK  Name = 
REMARK  4 active torsions:
REMARK  status: ('A' for Active; 'I' for Inactive)
REMARK    1  A    between atoms: N_1  and  C_2
REMARK    2  A    between atoms: C_5  and  C_6
REMARK    3  A    between atoms: N_8  and  C_9
REMARK    4  A    between atoms: C_13  and  O_14
REMARK                            x       y       z     vdW  Elec       q    Type
REMARK                         _______ _______ _______ _____ _____    ______ ____
ROOT
ATOM      1  C   UNL     1       2.329   7.714  18.583  0.00  0.00    +0.000 C 
ATOM      2  O   UNL     1       2.111   7.645  19.788  0.00  0.00    +0.000 OA
ATOM      3  N   UNL     1       1.813   8.666  17.717  0.00  0.00    +0.000 N 
ATOM      4  H   UNL     1       2.012   8.560  16.731  0.00  0.00    +0.000 HD
ENDROOT
BRANCH   3   5
ATOM      5  C   UNL     1       0.993   9.769  18.071  0.00  0.00    +0.000 A 
ATOM      6  C   UNL     1       1.491  10.952  18.626  0.00  0.00    +0.000 A 
ATOM      7  C   UNL     1       0.638  12.021  18.911  0.00  0.00    +0.000 A 
ATOM      8 BR   UNL     1       1.377  13.604  19.652  0.00  0.00    +0.000 Br
ATOM      9  C   UNL     1      -0.727  11.929  18.646  0.00  0.00    +0.000 A 
ATOM     10  C   UNL     1      -1.237  10.745  18.111  0.00  0.00    +0.000 A 
ATOM     11 BR   UNL     1      -3.085  10.555  17.725  0.00  0.00    +0.000 Br
ATOM     12  C   UNL     1      -0.383   9.668  17.831  0.00  0.00    +0.000 A 
BRANCH   9  13
ATOM     13  O   UNL     1      -1.564  12.983  18.897  0.00  0.00    +0.000 OA
ATOM     14  H   UNL     1      -1.028  13.797  18.885  0.00  0.00    +0.000 HD
ENDBRANCH   9  13
ENDBRANCH   3   5
BRANCH   1  18
ATOM     15  C   UNL     1       4.823   4.575  16.998  0.00  0.00    +0.000 A 
ATOM     16  C   UNL     1       3.635   4.295  17.673  0.00  0.00    +0.000 A 
ATOM     17  C   UNL     1       2.849   5.329  18.186  0.00  0.00    +0.000 A 
ATOM     18  C   UNL     1       3.212   6.667  17.989  0.00  0.00    +0.000 A 
ATOM     19  C   UNL     1       4.386   6.957  17.288  0.00  0.00    +0.000 A 
ATOM     20  C   UNL     1       5.167   5.912  16.775  0.00  0.00    +0.000 A 
BRANCH  15  21
ATOM     21  N   UNL     1       5.524   3.546  16.361  0.00  0.00    +0.000 N 
ATOM     22  H   UNL     1       5.205   3.354  15.415  0.00  0.00    +0.000 HD
ATOM     23  H   UNL     1       5.620   2.700  16.911  0.00  0.00    +0.000 HD
ENDBRANCH  15  21
ENDBRANCH   1  18
TORSDOF 4
ENDMDL
MODEL 7
REMARK VINA RESULT:      -6.5      4.557      7.862
REMARK  Name = 
REMARK  4 active torsions:
REMARK  status: ('A' for Active; 'I' for Inactive)
REMARK    1  A    between atoms: N_1  and  C_2
REMARK    2  A    between atoms: C_5  and  C_6
REMARK    3  A    between atoms: N_8  and  C_9
REMARK    4  A    between atoms: C_13  and  O_14
REMARK                            x       y       z     vdW  Elec       q    Type
REMARK                         _______ _______ _______ _____ _____    ______ ____
ROOT
ATOM      1  C   UNL     1       2.241   7.720  18.643  0.00  0.00    +0.000 C 
ATOM      2  O   UNL     1       2.062   7.710  19.856  0.00  0.00    +0.000 OA
ATOM      3  N   UNL     1       1.743   8.662  17.756  0.00  0.00    +0.000 N 
ATOM      4  H   UNL     1       1.901   8.507  16.769  0.00  0.00    +0.000 HD
ENDROOT
BRANCH   3   5
ATOM      5  C   UNL     1       0.994   9.820  18.091  0.00  0.00    +0.000 A 
ATOM      6  C   UNL     1       1.569  10.996  18.580  0.00  0.00    +0.000 A 
ATOM      7  C   UNL     1       0.782  12.119  18.848  0.00  0.00    +0.000 A 
ATOM      8 BR   UNL     1       1.627  13.689  19.499  0.00  0.00    +0.000 Br
ATOM      9  C   UNL     1      -0.594  12.087  18.632  0.00  0.00    +0.000 A 
ATOM     10  C   UNL     1      -1.181  10.911  18.164  0.00  0.00    +0.000 A 
ATOM     11 BR   UNL     1      -3.050  10.803  17.847  0.00  0.00    +0.000 Br
ATOM     12  C   UNL     1      -0.394   9.781  17.901  0.00  0.00    +0.000 A 
BRANCH   9  13
ATOM     13  O   UNL     1      -1.367  13.192  18.867  0.00  0.00    +0.000 OA
ATOM     14  H   UNL     1      -1.000  13.651  19.645  0.00  0.00    +0.000 HD
ENDBRANCH   9  13
ENDBRANCH   3   5
BRANCH   1  18
ATOM     15  C   UNL     1       4.632   4.617  16.843  0.00  0.00    +0.000 A 
ATOM     16  C   UNL     1       4.995   5.961  16.760  0.00  0.00    +0.000 A 
ATOM     17  C   UNL     1       4.198   6.949  17.343  0.00  0.00    +0.000 A 
ATOM     18  C   UNL     1       3.048   6.606  18.065  0.00  0.00    +0.000 A 
ATOM     19  C   UNL     1       2.693   5.258  18.178  0.00  0.00    +0.000 A 
ATOM     20  C   UNL     1       3.501   4.273  17.591  0.00  0.00    +0.000 A 
BRANCH  15  21
ATOM     21  N   UNL     1       5.508   3.627  16.388  0.00  0.00    +0.000 N 
ATOM     22  H   UNL     1       5.212   2.680  16.609  0.00  0.00    +0.000 HD
ATOM     23  H   UNL     1       6.482   3.788  16.624  0.00  0.00    +0.000 HD
ENDBRANCH  15  21
ENDBRANCH   1  18
TORSDOF 4
ENDMDL
MODEL 8
REMARK VINA RESULT:      -6.5      1.127      2.666
REMARK  Name = 
REMARK  4 active torsions:
REMARK  status: ('A' for Active; 'I' for Inactive)
REMARK    1  A    between atoms: N_1  and  C_2
REMARK    2  A    between atoms: C_5  and  C_6
REMARK    3  A    between atoms: N_8  and  C_9
REMARK    4  A    between atoms: C_13  and  O_14
REMARK                            x       y       z     vdW  Elec       q    Type
REMARK                         _______ _______ _______ _____ _____    ______ ____
ROOT
ATOM      1  C   UNL     1       1.859   8.043  19.348  0.00  0.00    +0.000 C 
ATOM      2  O   UNL     1       1.930   8.416  18.181  0.00  0.00    +0.000 OA
ATOM      3  N   UNL     1       2.428   6.891  19.869  0.00  0.00    +0.000 N 
ATOM      4  H   UNL     1       2.225   6.662  20.833  0.00  0.00    +0.000 HD
ENDROOT
BRANCH   3   5
ATOM      5  C   UNL     1       3.249   5.968  19.170  0.00  0.00    +0.000 A 
ATOM      6  C   UNL     1       2.909   4.625  18.978  0.00  0.00    +0.000 A 
ATOM      7  C   UNL     1       3.739   3.778  18.240  0.00  0.00    +0.000 A 
ATOM      8 BR   UNL     1       3.214   1.968  18.006  0.00  0.00    +0.000 Br
ATOM      9  C   UNL     1       4.922   4.254  17.680  0.00  0.00    +0.000 A 
ATOM     10  C   UNL     1       5.281   5.588  17.884  0.00  0.00    +0.000 A 
ATOM     11 BR   UNL     1       6.878   6.301  17.146  0.00  0.00    +0.000 Br
ATOM     12  C   UNL     1       4.453   6.439  18.630  0.00  0.00    +0.000 A 
BRANCH   9  13
ATOM     13  O   UNL     1       5.726   3.435  16.934  0.00  0.00    +0.000 OA
ATOM     14  H   UNL     1       5.447   3.514  16.003  0.00  0.00    +0.000 HD
ENDBRANCH   9  13
ENDBRANCH   3   5
BRANCH   1  18
ATOM     15  C   UNL     1      -0.428  10.357  22.177  0.00  0.00    +0.000 A 
ATOM     16  C   UNL     1       0.412   9.321  22.587  0.00  0.00    +0.000 A 
ATOM     17  C   UNL     1       1.135   8.579  21.650  0.00  0.00    +0.000 A 
ATOM     18  C   UNL     1       1.070   8.893  20.287  0.00  0.00    +0.000 A 
ATOM     19  C   UNL     1       0.254   9.949  19.870  0.00  0.00    +0.000 A 
ATOM     20  C   UNL     1      -0.467  10.689  20.819  0.00  0.00    +0.000 A 
BRANCH  15  21
ATOM     21  N   UNL     1      -1.029  11.187  23.127  0.00  0.00    +0.000 N 
ATOM     22  H   UNL     1      -0.526  12.053  23.297  0.00  0.00    +0.000 HD
ATOM     23  H   UNL     1      -1.288  10.719  23.990  0.00  0.00    +0.000 HD
ENDBRANCH  15  21
ENDBRANCH   1  18
TORSDOF 4
ENDMDL
MODEL 9
REMARK VINA RESULT:      -6.5      4.363      7.925
REMARK  Name = 
REMARK  4 active torsions:
REMARK  status: ('A' for Active; 'I' for Inactive)
REMARK    1  A    between atoms: N_1  and  C_2
REMARK    2  A    between atoms: C_5  and  C_6
REMARK    3  A    between atoms: N_8  and  C_9
REMARK    4  A    between atoms: C_13  and  O_14
REMARK                            x       y       z     vdW  Elec       q    Type
REMARK                         _______ _______ _______ _____ _____    ______ ____
ROOT
ATOM      1  C   UNL     1       2.187   8.445  18.248  0.00  0.00    +0.000 C 
ATOM      2  O   UNL     1       2.326   8.999  17.162  0.00  0.00    +0.000 OA
ATOM      3  N   UNL     1       1.380   8.883  19.286  0.00  0.00    +0.000 N 
ATOM      4  H   UNL     1       1.418   8.372  20.158  0.00  0.00    +0.000 HD
ENDROOT
BRANCH   3   5
ATOM      5  C   UNL     1       0.519  10.012  19.264  0.00  0.00    +0.000 A 
ATOM      6  C   UNL     1      -0.628  10.091  18.469  0.00  0.00    +0.000 A 
ATOM      7  C   UNL     1      -1.461  11.211  18.527  0.00  0.00    +0.000 A 
ATOM      8 BR   UNL     1      -3.009  11.252  17.430  0.00  0.00    +0.000 Br
ATOM      9  C   UNL     1      -1.164  12.272  19.380  0.00  0.00    +0.000 A 
ATOM     10  C   UNL     1      -0.010  12.212  20.163  0.00  0.00    +0.000 A 
ATOM     11 BR   UNL     1       0.450  13.622  21.347  0.00  0.00    +0.000 Br
ATOM     12  C   UNL     1       0.831  11.091  20.101  0.00  0.00    +0.000 A 
BRANCH   9  13
ATOM     13  O   UNL     1      -1.990  13.360  19.461  0.00  0.00    +0.000 OA
ATOM     14  H   UNL     1      -2.242  13.610  18.553  0.00  0.00    +0.000 HD
ENDBRANCH   9  13
ENDBRANCH   3   5
BRANCH   1  18
ATOM     15  C   UNL     1       4.487   4.833  18.743  0.00  0.00    +0.000 A 
ATOM     16  C   UNL     1       4.721   5.710  17.684  0.00  0.00    +0.000 A 
ATOM     17  C   UNL     1       3.956   6.869  17.540  0.00  0.00    +0.000 A 
ATOM     18  C   UNL     1       2.973   7.199  18.482  0.00  0.00    +0.000 A 
ATOM     19  C   UNL     1       2.752   6.340  19.563  0.00  0.00    +0.000 A 
ATOM     20  C   UNL     1       3.527   5.179  19.700  0.00  0.00    +0.000 A 
BRANCH  15  21
ATOM     21  N   UNL     1       5.352   3.757  18.965  0.00  0.00    +0.000 N 
ATOM     22  H   UNL     1       6.312   4.031  19.154  0.00  0.00    +0.000 HD
ATOM     23  H   UNL     1       5.294   3.021  18.268  0.00  0.00    +0.000 HD
ENDBRANCH  15  21
ENDBRANCH   1  18
TORSDOF 4
ENDMDL
