MODEL 1
REMARK VINA RESULT:      -7.7      0.000      0.000
REMARK  Name = 
REMARK  4 active torsions:
REMARK  status: ('A' for Active; 'I' for Inactive)
REMARK    1  A    between atoms: C_1  and  O_2
REMARK    2  A    between atoms: O_2  and  C_3
REMARK    3  A    between atoms: N_5  and  C_6
REMARK    4  A    between atoms: C_9  and  N_10
REMARK                            x       y       z     vdW  Elec       q    Type
REMARK                         _______ _______ _______ _____ _____    ______ ____
ROOT
ATOM      1  N   UNL     1       4.462   5.352  18.023  0.00  0.00    +0.000 N 
ATOM      2  C   UNL     1       4.405   6.603  17.434  0.00  0.00    +0.000 A 
ATOM      3  N   UNL     1       3.522   7.394  18.002  0.00  0.00    +0.000 NA
ATOM      4  C   UNL     1       2.961   6.637  18.993  0.00  0.00    +0.000 A 
ATOM      5  C   UNL     1       1.961   6.933  19.937  0.00  0.00    +0.000 A 
ATOM      6  N   UNL     1       1.531   6.026  20.867  0.00  0.00    +0.000 NA
ATOM      7  C   UNL     1       2.128   4.824  20.803  0.00  0.00    +0.000 A 
ATOM      8  N   UNL     1       1.887   3.743  21.600  0.00  0.00    +0.000 N 
ATOM      9  C   UNL     1       2.693   2.693  21.213  0.00  0.00    +0.000 A 
ATOM     10  C   UNL     1       3.474   3.105  20.143  0.00  0.00    +0.000 A 
ATOM     11  C   UNL     1       3.108   4.452  19.910  0.00  0.00    +0.000 A 
ATOM     12  C   UNL     1       3.533   5.374  19.001  0.00  0.00    +0.000 A 
ATOM     13  H   UNL     1       1.209   3.738  22.350  0.00  0.00    +0.000 HD
ENDROOT
BRANCH   1  17
ATOM     14  C   UNL     1       6.060   4.389  15.330  0.00  0.00    +0.000 C 
ATOM     15  C   UNL     1       7.337   4.505  16.163  0.00  0.00    +0.000 C 
ATOM     16  C   UNL     1       6.863   4.739  17.597  0.00  0.00    +0.000 C 
ATOM     17  C   UNL     1       5.388   4.295  17.648  0.00  0.00    +0.000 C 
ATOM     18  C   UNL     1       5.096   3.685  16.276  0.00  0.00    +0.000 C 
BRANCH  14  21
ATOM     19  C   UNL     1       6.930   4.239  13.057  0.00  0.00    +0.000 C 
ATOM     20  O   UNL     1       7.471   5.343  13.100  0.00  0.00    +0.000 OA
ATOM     21  N   UNL     1       6.234   3.681  14.087  0.00  0.00    +0.000 N 
ATOM     22  H   UNL     1       5.993   2.704  13.985  0.00  0.00    +0.000 HD
BRANCH  19  24
ATOM     23  C   UNL     1       5.696   2.741  11.793  0.00  0.00    +0.000 C 
ATOM     24  O   UNL     1       6.945   3.411  11.990  0.00  0.00    +0.000 OA
ENDBRANCH  19  24
ENDBRANCH  14  21
ENDBRANCH   1  17
TORSDOF 3
ENDMDL
MODEL 2
REMARK VINA RESULT:      -7.4      2.722      4.347
REMARK  Name = 
REMARK  4 active torsions:
REMARK  status: ('A' for Active; 'I' for Inactive)
REMARK    1  A    between atoms: C_1  and  O_2
REMARK    2  A    between atoms: O_2  and  C_3
REMARK    3  A    between atoms: N_5  and  C_6
REMARK    4  A    between atoms: C_9  and  N_10
REMARK                            x       y       z     vdW  Elec       q    Type
REMARK                         _______ _______ _______ _____ _____    ______ ____
ROOT
ATOM      1  N   UNL     1       3.939   3.778  17.747  0.00  0.00    +0.000 N 
ATOM      2  C   UNL     1       4.221   2.427  17.820  0.00  0.00    +0.000 A 
ATOM      3  N   UNL     1       3.774   1.870  18.924  0.00  0.00    +0.000 NA
ATOM      4  C   UNL     1       3.187   2.894  19.617  0.00  0.00    +0.000 A 
ATOM      5  C   UNL     1       2.536   2.920  20.864  0.00  0.00    +0.000 A 
ATOM      6  N   UNL     1       2.002   4.062  21.395  0.00  0.00    +0.000 NA
ATOM      7  C   UNL     1       2.157   5.163  20.639  0.00  0.00    +0.000 A 
ATOM      8  N   UNL     1       1.730   6.426  20.931  0.00  0.00    +0.000 N 
ATOM      9  C   UNL     1       2.090   7.282  19.912  0.00  0.00    +0.000 A 
ATOM     10  C   UNL     1       2.763   6.557  18.940  0.00  0.00    +0.000 A 
ATOM     11  C   UNL     1       2.784   5.224  19.415  0.00  0.00    +0.000 A 
ATOM     12  C   UNL     1       3.297   4.073  18.897  0.00  0.00    +0.000 A 
ATOM     13  H   UNL     1       1.233   6.670  21.776  0.00  0.00    +0.000 HD
ENDROOT
BRANCH   1  17
ATOM     14  C   UNL     1       6.221   5.994  16.962  0.00  0.00    +0.000 C 
ATOM     15  C   UNL     1       6.490   5.137  15.726  0.00  0.00    +0.000 C 
ATOM     16  C   UNL     1       5.372   4.095  15.706  0.00  0.00    +0.000 C 
ATOM     17  C   UNL     1       4.253   4.637  16.616  0.00  0.00    +0.000 C 
ATOM     18  C   UNL     1       4.699   6.043  17.021  0.00  0.00    +0.000 C 
BRANCH  14  21
ATOM     19  C   UNL     1       7.759   7.682  17.816  0.00  0.00    +0.000 C 
ATOM     20  O   UNL     1       8.187   6.961  18.716  0.00  0.00    +0.000 OA
ATOM     21  N   UNL     1       6.817   7.305  16.908  0.00  0.00    +0.000 N 
ATOM     22  H   UNL     1       6.683   7.925  16.119  0.00  0.00    +0.000 HD
BRANCH  19  24
ATOM     23  C   UNL     1       8.796   9.545  18.724  0.00  0.00    +0.000 C 
ATOM     24  O   UNL     1       8.157   8.952  17.588  0.00  0.00    +0.000 OA
ENDBRANCH  19  24
ENDBRANCH  14  21
ENDBRANCH   1  17
TORSDOF 3
ENDMDL
MODEL 3
REMARK VINA RESULT:      -7.2      1.372      1.582
REMARK  Name = 
REMARK  4 active torsions:
REMARK  status: ('A' for Active; 'I' for Inactive)
REMARK    1  A    between atoms: C_1  and  O_2
REMARK    2  A    between atoms: O_2  and  C_3
REMARK    3  A    between atoms: N_5  and  C_6
REMARK    4  A    between atoms: C_9  and  N_10
REMARK                            x       y       z     vdW  Elec       q    Type
REMARK                         _______ _______ _______ _____ _____    ______ ____
ROOT
ATOM      1  N   UNL     1       5.108   5.484  17.063  0.00  0.00    +0.000 N 
ATOM      2  C   UNL     1       4.798   6.725  16.537  0.00  0.00    +0.000 A 
ATOM      3  N   UNL     1       3.793   7.305  17.155  0.00  0.00    +0.000 NA
ATOM      4  C   UNL     1       3.412   6.410  18.117  0.00  0.00    +0.000 A 
ATOM      5  C   UNL     1       2.396   6.465  19.089  0.00  0.00    +0.000 A 
ATOM      6  N   UNL     1       2.170   5.452  19.979  0.00  0.00    +0.000 NA
ATOM      7  C   UNL     1       2.986   4.391  19.848  0.00  0.00    +0.000 A 
ATOM      8  N   UNL     1       2.975   3.249  20.595  0.00  0.00    +0.000 N 
ATOM      9  C   UNL     1       3.958   2.393  20.146  0.00  0.00    +0.000 A 
ATOM     10  C   UNL     1       4.620   2.995  19.086  0.00  0.00    +0.000 A 
ATOM     11  C   UNL     1       3.997   4.256  18.924  0.00  0.00    +0.000 A 
ATOM     12  C   UNL     1       4.215   5.282  18.055  0.00  0.00    +0.000 A 
ATOM     13  H   UNL     1       2.329   3.080  21.354  0.00  0.00    +0.000 HD
ENDROOT
BRANCH   1  17
ATOM     14  C   UNL     1       6.099   4.063  14.283  0.00  0.00    +0.000 C 
ATOM     15  C   UNL     1       7.421   4.800  14.490  0.00  0.00    +0.000 C 
ATOM     16  C   UNL     1       7.331   5.406  15.890  0.00  0.00    +0.000 C 
ATOM     17  C   UNL     1       6.211   4.644  16.625  0.00  0.00    +0.000 C 
ATOM     18  C   UNL     1       5.785   3.524  15.673  0.00  0.00    +0.000 C 
BRANCH  14  21
ATOM     19  C   UNL     1       5.327   3.047  12.205  0.00  0.00    +0.000 C 
ATOM     20  O   UNL     1       4.502   3.931  11.979  0.00  0.00    +0.000 OA
ATOM     21  N   UNL     1       6.157   3.025  13.285  0.00  0.00    +0.000 N 
ATOM     22  H   UNL     1       6.904   2.343  13.260  0.00  0.00    +0.000 HD
BRANCH  19  24
ATOM     23  C   UNL     1       6.932   1.727  11.180  0.00  0.00    +0.000 C 
ATOM     24  O   UNL     1       5.541   1.970  11.419  0.00  0.00    +0.000 OA
ENDBRANCH  19  24
ENDBRANCH  14  21
ENDBRANCH   1  17
TORSDOF 3
ENDMDL
MODEL 4
REMARK VINA RESULT:      -6.9      2.611      4.328
REMARK  Name = 
REMARK  4 active torsions:
REMARK  status: ('A' for Active; 'I' for Inactive)
REMARK    1  A    between atoms: C_1  and  O_2
REMARK    2  A    between atoms: O_2  and  C_3
REMARK    3  A    between atoms: N_5  and  C_6
REMARK    4  A    between atoms: C_9  and  N_10
REMARK                            x       y       z     vdW  Elec       q    Type
REMARK                         _______ _______ _______ _____ _____    ______ ____
ROOT
ATOM      1  N   UNL     1       3.976   3.678  17.873  0.00  0.00    +0.000 N 
ATOM      2  C   UNL     1       4.054   2.310  17.683  0.00  0.00    +0.000 A 
ATOM      3  N   UNL     1       3.219   1.641  18.446  0.00  0.00    +0.000 NA
ATOM      4  C   UNL     1       2.573   2.598  19.180  0.00  0.00    +0.000 A 
ATOM      5  C   UNL     1       1.570   2.499  20.162  0.00  0.00    +0.000 A 
ATOM      6  N   UNL     1       1.040   3.592  20.789  0.00  0.00    +0.000 NA
ATOM      7  C   UNL     1       1.557   4.772  20.404  0.00  0.00    +0.000 A 
ATOM      8  N   UNL     1       1.217   6.009  20.869  0.00  0.00    +0.000 N 
ATOM      9  C   UNL     1       1.981   6.966  20.236  0.00  0.00    +0.000 A 
ATOM     10  C   UNL     1       2.832   6.335  19.342  0.00  0.00    +0.000 A 
ATOM     11  C   UNL     1       2.540   4.955  19.457  0.00  0.00    +0.000 A 
ATOM     12  C   UNL     1       3.046   3.854  18.834  0.00  0.00    +0.000 A 
ATOM     13  H   UNL     1       0.513   6.169  21.576  0.00  0.00    +0.000 HD
ENDROOT
BRANCH   1  17
ATOM     14  C   UNL     1       6.850   5.227  18.142  0.00  0.00    +0.000 C 
ATOM     15  C   UNL     1       7.163   4.688  16.747  0.00  0.00    +0.000 C 
ATOM     16  C   UNL     1       5.854   4.076  16.248  0.00  0.00    +0.000 C 
ATOM     17  C   UNL     1       4.733   4.669  17.124  0.00  0.00    +0.000 C 
ATOM     18  C   UNL     1       5.413   5.715  18.008  0.00  0.00    +0.000 C 
BRANCH  14  21
ATOM     19  C   UNL     1       7.783   7.473  17.961  0.00  0.00    +0.000 C 
ATOM     20  O   UNL     1       7.063   7.789  17.015  0.00  0.00    +0.000 OA
ATOM     21  N   UNL     1       7.749   6.263  18.585  0.00  0.00    +0.000 N 
ATOM     22  H   UNL     1       8.264   6.194  19.454  0.00  0.00    +0.000 HD
BRANCH  19  24
ATOM     23  C   UNL     1       8.515   9.656  18.213  0.00  0.00    +0.000 C 
ATOM     24  O   UNL     1       8.711   8.274  18.527  0.00  0.00    +0.000 OA
ENDBRANCH  19  24
ENDBRANCH  14  21
ENDBRANCH   1  17
TORSDOF 3
ENDMDL
MODEL 5
REMARK VINA RESULT:      -6.7      3.512      6.973
REMARK  Name = 
REMARK  4 active torsions:
REMARK  status: ('A' for Active; 'I' for Inactive)
REMARK    1  A    between atoms: C_1  and  O_2
REMARK    2  A    between atoms: O_2  and  C_3
REMARK    3  A    between atoms: N_5  and  C_6
REMARK    4  A    between atoms: C_9  and  N_10
REMARK                            x       y       z     vdW  Elec       q    Type
REMARK                         _______ _______ _______ _____ _____    ______ ____
ROOT
ATOM      1  N   UNL     1       3.812   3.896  18.262  0.00  0.00    +0.000 N 
ATOM      2  C   UNL     1       3.026   3.380  17.247  0.00  0.00    +0.000 A 
ATOM      3  N   UNL     1       3.622   3.408  16.076  0.00  0.00    +0.000 NA
ATOM      4  C   UNL     1       4.842   3.977  16.319  0.00  0.00    +0.000 A 
ATOM      5  C   UNL     1       5.919   4.270  15.463  0.00  0.00    +0.000 A 
ATOM      6  N   UNL     1       7.079   4.847  15.904  0.00  0.00    +0.000 NA
ATOM      7  C   UNL     1       7.107   5.124  17.220  0.00  0.00    +0.000 A 
ATOM      8  N   UNL     1       8.129   5.702  17.916  0.00  0.00    +0.000 N 
ATOM      9  C   UNL     1       7.772   5.829  19.241  0.00  0.00    +0.000 A 
ATOM     10  C   UNL     1       6.492   5.322  19.406  0.00  0.00    +0.000 A 
ATOM     11  C   UNL     1       6.098   4.875  18.123  0.00  0.00    +0.000 A 
ATOM     12  C   UNL     1       4.957   4.287  17.665  0.00  0.00    +0.000 A 
ATOM     13  H   UNL     1       9.003   5.988  17.496  0.00  0.00    +0.000 HD
ENDROOT
BRANCH   1  17
ATOM     14  C   UNL     1       1.865   5.687  20.194  0.00  0.00    +0.000 C 
ATOM     15  C   UNL     1       1.201   4.368  20.586  0.00  0.00    +0.000 C 
ATOM     16  C   UNL     1       2.081   3.276  19.978  0.00  0.00    +0.000 C 
ATOM     17  C   UNL     1       3.440   3.933  19.668  0.00  0.00    +0.000 C 
ATOM     18  C   UNL     1       3.350   5.350  20.238  0.00  0.00    +0.000 C 
BRANCH  14  21
ATOM     19  C   UNL     1       1.518   8.070  20.577  0.00  0.00    +0.000 C 
ATOM     20  O   UNL     1       1.775   8.382  19.415  0.00  0.00    +0.000 OA
ATOM     21  N   UNL     1       1.521   6.794  21.051  0.00  0.00    +0.000 N 
ATOM     22  H   UNL     1       1.123   6.658  21.972  0.00  0.00    +0.000 HD
BRANCH  19  24
ATOM     23  C   UNL     1      -0.215   8.960  21.830  0.00  0.00    +0.000 C 
ATOM     24  O   UNL     1       1.190   8.940  21.556  0.00  0.00    +0.000 OA
ENDBRANCH  19  24
ENDBRANCH  14  21
ENDBRANCH   1  17
TORSDOF 3
ENDMDL
MODEL 6
REMARK VINA RESULT:      -6.7      1.528      2.760
REMARK  Name = 
REMARK  4 active torsions:
REMARK  status: ('A' for Active; 'I' for Inactive)
REMARK    1  A    between atoms: C_1  and  O_2
REMARK    2  A    between atoms: O_2  and  C_3
REMARK    3  A    between atoms: N_5  and  C_6
REMARK    4  A    between atoms: C_9  and  N_10
REMARK                            x       y       z     vdW  Elec       q    Type
REMARK                         _______ _______ _______ _____ _____    ______ ____
ROOT
ATOM      1  N   UNL     1       4.178   3.601  17.910  0.00  0.00    +0.000 N 
ATOM      2  C   UNL     1       4.060   2.249  17.645  0.00  0.00    +0.000 A 
ATOM      3  N   UNL     1       3.017   1.703  18.230  0.00  0.00    +0.000 NA
ATOM      4  C   UNL     1       2.429   2.727  18.921  0.00  0.00    +0.000 A 
ATOM      5  C   UNL     1       1.283   2.763  19.735  0.00  0.00    +0.000 A 
ATOM      6  N   UNL     1       0.846   3.905  20.348  0.00  0.00    +0.000 NA
ATOM      7  C   UNL     1       1.604   4.992  20.123  0.00  0.00    +0.000 A 
ATOM      8  N   UNL     1       1.403   6.250  20.612  0.00  0.00    +0.000 N 
ATOM      9  C   UNL     1       2.402   7.087  20.163  0.00  0.00    +0.000 A 
ATOM     10  C   UNL     1       3.268   6.355  19.365  0.00  0.00    +0.000 A 
ATOM     11  C   UNL     1       2.740   5.042  19.345  0.00  0.00    +0.000 A 
ATOM     12  C   UNL     1       3.150   3.896  18.733  0.00  0.00    +0.000 A 
ATOM     13  H   UNL     1       0.632   6.501  21.216  0.00  0.00    +0.000 HD
ENDROOT
BRANCH   1  17
ATOM     14  C   UNL     1       5.572   4.113  14.990  0.00  0.00    +0.000 C 
ATOM     15  C   UNL     1       5.139   5.570  15.146  0.00  0.00    +0.000 C 
ATOM     16  C   UNL     1       4.629   5.688  16.581  0.00  0.00    +0.000 C 
ATOM     17  C   UNL     1       5.194   4.476  17.347  0.00  0.00    +0.000 C 
ATOM     18  C   UNL     1       6.131   3.771  16.365  0.00  0.00    +0.000 C 
BRANCH  14  21
ATOM     19  C   UNL     1       6.115   3.544  12.682  0.00  0.00    +0.000 C 
ATOM     20  O   UNL     1       4.939   3.408  12.348  0.00  0.00    +0.000 OA
ATOM     21  N   UNL     1       6.526   3.895  13.932  0.00  0.00    +0.000 N 
ATOM     22  H   UNL     1       7.502   4.143  14.028  0.00  0.00    +0.000 HD
BRANCH  19  24
ATOM     23  C   UNL     1       7.180   2.089  11.226  0.00  0.00    +0.000 C 
ATOM     24  O   UNL     1       7.176   3.371  11.864  0.00  0.00    +0.000 OA
ENDBRANCH  19  24
ENDBRANCH  14  21
ENDBRANCH   1  17
TORSDOF 3
ENDMDL
MODEL 7
REMARK VINA RESULT:      -6.6      4.686      7.453
REMARK  Name = 
REMARK  4 active torsions:
REMARK  status: ('A' for Active; 'I' for Inactive)
REMARK    1  A    between atoms: C_1  and  O_2
REMARK    2  A    between atoms: O_2  and  C_3
REMARK    3  A    between atoms: N_5  and  C_6
REMARK    4  A    between atoms: C_9  and  N_10
REMARK                            x       y       z     vdW  Elec       q    Type
REMARK                         _______ _______ _______ _____ _____    ______ ____
ROOT
ATOM      1  N   UNL     1       1.946   7.531  19.647  0.00  0.00    +0.000 N 
ATOM      2  C   UNL     1       1.196   6.969  20.665  0.00  0.00    +0.000 A 
ATOM      3  N   UNL     1       1.440   5.688  20.832  0.00  0.00    +0.000 NA
ATOM      4  C   UNL     1       2.374   5.384  19.880  0.00  0.00    +0.000 A 
ATOM      5  C   UNL     1       3.023   4.177  19.565  0.00  0.00    +0.000 A 
ATOM      6  N   UNL     1       3.947   4.073  18.561  0.00  0.00    +0.000 NA
ATOM      7  C   UNL     1       4.181   5.214  17.888  0.00  0.00    +0.000 A 
ATOM      8  N   UNL     1       5.042   5.390  16.845  0.00  0.00    +0.000 N 
ATOM      9  C   UNL     1       4.990   6.700  16.419  0.00  0.00    +0.000 A 
ATOM     10  C   UNL     1       4.076   7.386  17.204  0.00  0.00    +0.000 A 
ATOM     11  C   UNL     1       3.587   6.433  18.129  0.00  0.00    +0.000 A 
ATOM     12  C   UNL     1       2.680   6.517  19.142  0.00  0.00    +0.000 A 
ATOM     13  H   UNL     1       5.616   4.653  16.459  0.00  0.00    +0.000 HD
ENDROOT
BRANCH   1  17
ATOM     14  C   UNL     1      -0.171   9.665  18.345  0.00  0.00    +0.000 C 
ATOM     15  C   UNL     1       0.077  10.522  19.586  0.00  0.00    +0.000 C 
ATOM     16  C   UNL     1       1.243   9.852  20.312  0.00  0.00    +0.000 C 
ATOM     17  C   UNL     1       1.934   8.938  19.281  0.00  0.00    +0.000 C 
ATOM     18  C   UNL     1       1.231   9.217  17.951  0.00  0.00    +0.000 C 
BRANCH  14  21
ATOM     19  C   UNL     1      -2.193  10.209  17.095  0.00  0.00    +0.000 C 
ATOM     20  O   UNL     1      -2.921   9.516  17.805  0.00  0.00    +0.000 OA
ATOM     21  N   UNL     1      -0.852  10.358  17.280  0.00  0.00    +0.000 N 
ATOM     22  H   UNL     1      -0.405  11.089  16.742  0.00  0.00    +0.000 HD
BRANCH  19  24
ATOM     23  C   UNL     1      -2.939  10.113  14.904  0.00  0.00    +0.000 C 
ATOM     24  O   UNL     1      -2.609  10.931  16.032  0.00  0.00    +0.000 OA
ENDBRANCH  19  24
ENDBRANCH  14  21
ENDBRANCH   1  17
TORSDOF 3
ENDMDL
MODEL 8
REMARK VINA RESULT:      -6.5      1.548      2.860
REMARK  Name = 
REMARK  4 active torsions:
REMARK  status: ('A' for Active; 'I' for Inactive)
REMARK    1  A    between atoms: C_1  and  O_2
REMARK    2  A    between atoms: O_2  and  C_3
REMARK    3  A    between atoms: N_5  and  C_6
REMARK    4  A    between atoms: C_9  and  N_10
REMARK                            x       y       z     vdW  Elec       q    Type
REMARK                         _______ _______ _______ _____ _____    ______ ____
ROOT
ATOM      1  N   UNL     1       4.279   3.827  18.010  0.00  0.00    +0.000 N 
ATOM      2  C   UNL     1       4.365   2.526  17.550  0.00  0.00    +0.000 A 
ATOM      3  N   UNL     1       3.372   1.771  17.966  0.00  0.00    +0.000 NA
ATOM      4  C   UNL     1       2.607   2.598  18.743  0.00  0.00    +0.000 A 
ATOM      5  C   UNL     1       1.418   2.366  19.457  0.00  0.00    +0.000 A 
ATOM      6  N   UNL     1       0.791   3.339  20.186  0.00  0.00    +0.000 NA
ATOM      7  C   UNL     1       1.405   4.536  20.177  0.00  0.00    +0.000 A 
ATOM      8  N   UNL     1       1.003   5.670  20.819  0.00  0.00    +0.000 N 
ATOM      9  C   UNL     1       1.904   6.684  20.575  0.00  0.00    +0.000 A 
ATOM     10  C   UNL     1       2.911   6.195  19.756  0.00  0.00    +0.000 A 
ATOM     11  C   UNL     1       2.570   4.844  19.510  0.00  0.00    +0.000 A 
ATOM     12  C   UNL     1       3.171   3.863  18.779  0.00  0.00    +0.000 A 
ATOM     13  H   UNL     1       0.168   5.729  21.387  0.00  0.00    +0.000 HD
ENDROOT
BRANCH   1  17
ATOM     14  C   UNL     1       5.703   4.994  15.301  0.00  0.00    +0.000 C 
ATOM     15  C   UNL     1       5.088   6.343  15.674  0.00  0.00    +0.000 C 
ATOM     16  C   UNL     1       4.516   6.150  17.078  0.00  0.00    +0.000 C 
ATOM     17  C   UNL     1       5.199   4.898  17.661  0.00  0.00    +0.000 C 
ATOM     18  C   UNL     1       6.251   4.487  16.629  0.00  0.00    +0.000 C 
BRANCH  14  21
ATOM     19  C   UNL     1       6.624   4.322  13.145  0.00  0.00    +0.000 C 
ATOM     20  O   UNL     1       5.697   3.553  12.892  0.00  0.00    +0.000 OA
ATOM     21  N   UNL     1       6.714   5.074  14.277  0.00  0.00    +0.000 N 
ATOM     22  H   UNL     1       7.429   5.791  14.281  0.00  0.00    +0.000 HD
BRANCH  19  24
ATOM     23  C   UNL     1       8.361   5.769  12.641  0.00  0.00    +0.000 C 
ATOM     24  O   UNL     1       7.688   4.542  12.343  0.00  0.00    +0.000 OA
ENDBRANCH  19  24
ENDBRANCH  14  21
ENDBRANCH   1  17
TORSDOF 3
ENDMDL
MODEL 9
REMARK VINA RESULT:      -6.5      0.998      1.013
REMARK  Name = 
REMARK  4 active torsions:
REMARK  status: ('A' for Active; 'I' for Inactive)
REMARK    1  A    between atoms: C_1  and  O_2
REMARK    2  A    between atoms: O_2  and  C_3
REMARK    3  A    between atoms: N_5  and  C_6
REMARK    4  A    between atoms: C_9  and  N_10
REMARK                            x       y       z     vdW  Elec       q    Type
REMARK                         _______ _______ _______ _____ _____    ______ ____
ROOT
ATOM      1  N   UNL     1       4.745   5.429  17.959  0.00  0.00    +0.000 N 
ATOM      2  C   UNL     1       4.340   6.629  17.404  0.00  0.00    +0.000 A 
ATOM      3  N   UNL     1       3.220   7.080  17.924  0.00  0.00    +0.000 NA
ATOM      4  C   UNL     1       2.860   6.137  18.848  0.00  0.00    +0.000 A 
ATOM      5  C   UNL     1       1.760   6.063  19.721  0.00  0.00    +0.000 A 
ATOM      6  N   UNL     1       1.574   5.022  20.588  0.00  0.00    +0.000 NA
ATOM      7  C   UNL     1       2.518   4.066  20.536  0.00  0.00    +0.000 A 
ATOM      8  N   UNL     1       2.574   2.924  21.281  0.00  0.00    +0.000 N 
ATOM      9  C   UNL     1       3.690   2.196  20.927  0.00  0.00    +0.000 A 
ATOM     10  C   UNL     1       4.371   2.882  19.933  0.00  0.00    +0.000 A 
ATOM     11  C   UNL     1       3.621   4.061  19.711  0.00  0.00    +0.000 A 
ATOM     12  C   UNL     1       3.795   5.114  18.864  0.00  0.00    +0.000 A 
ATOM     13  H   UNL     1       1.885   2.673  21.977  0.00  0.00    +0.000 HD
ENDROOT
BRANCH   1  17
ATOM     14  C   UNL     1       6.407   4.626  15.253  0.00  0.00    +0.000 C 
ATOM     15  C   UNL     1       7.596   5.349  15.884  0.00  0.00    +0.000 C 
ATOM     16  C   UNL     1       7.165   5.659  17.317  0.00  0.00    +0.000 C 
ATOM     17  C   UNL     1       5.976   4.729  17.627  0.00  0.00    +0.000 C 
ATOM     18  C   UNL     1       5.847   3.810  16.411  0.00  0.00    +0.000 C 
BRANCH  14  21
ATOM     19  C   UNL     1       5.869   3.619  13.098  0.00  0.00    +0.000 C 
ATOM     20  O   UNL     1       4.747   4.122  13.047  0.00  0.00    +0.000 OA
ATOM     21  N   UNL     1       6.754   3.811  14.116  0.00  0.00    +0.000 N 
ATOM     22  H   UNL     1       7.699   3.488  13.952  0.00  0.00    +0.000 HD
BRANCH  19  24
ATOM     23  C   UNL     1       5.397   2.142  11.377  0.00  0.00    +0.000 C 
ATOM     24  O   UNL     1       6.396   2.807  12.157  0.00  0.00    +0.000 OA
ENDBRANCH  19  24
ENDBRANCH  14  21
ENDBRANCH   1  17
TORSDOF 3
ENDMDL
