MODEL 1
REMARK VINA RESULT:      -7.9      0.000      0.000
REMARK  Name = 
REMARK  6 active torsions:
REMARK  status: ('A' for Active; 'I' for Inactive)
REMARK    1  A    between atoms: C_1  and  O_2
REMARK    2  A    between atoms: O_2  and  C_3
REMARK    3  A    between atoms: C_8  and  N_9
REMARK    4  A    between atoms: C_18  and  C_19
REMARK    5  A    between atoms: N_21  and  C_22
REMARK    6  A    between atoms: C_25  and  C_26
REMARK                            x       y       z     vdW  Elec       q    Type
REMARK                         _______ _______ _______ _____ _____    ______ ____
ROOT
ATOM      1  N   UNL     1      -4.928  13.909  20.934  0.00  0.00    +0.000 N 
ATOM      2  C   UNL     1      -3.711  13.277  20.879  0.00  0.00    +0.000 A 
ATOM      3  N   UNL     1      -3.060  12.745  21.868  0.00  0.00    +0.000 NA
ATOM      4  N   UNL     1      -1.975  12.058  21.432  0.00  0.00    +0.000 N 
ATOM      5  C   UNL     1      -1.267  11.273  22.320  0.00  0.00    +0.000 A 
ATOM      6  O   UNL     1      -1.388  11.276  23.543  0.00  0.00    +0.000 OA
ATOM      7  C   UNL     1      -0.337  10.332  21.669  0.00  0.00    +0.000 A 
ATOM      8  C   UNL     1       0.238   9.306  22.419  0.00  0.00    +0.000 A 
ATOM      9  C   UNL     1       1.037   8.362  21.782  0.00  0.00    +0.000 A 
ATOM     10  C   UNL     1       1.304   8.454  20.404  0.00  0.00    +0.000 A 
ATOM     11  C   UNL     1       0.727   9.504  19.667  0.00  0.00    +0.000 A 
ATOM     12  C   UNL     1      -0.133  10.430  20.284  0.00  0.00    +0.000 A 
ATOM     13  N   UNL     1      -0.854  11.346  19.476  0.00  0.00    +0.000 NA
ATOM     14  C   UNL     1      -1.757  12.048  20.083  0.00  0.00    +0.000 A 
ATOM     15  S   UNL     1      -2.928  13.082  19.309  0.00  0.00    +0.000 S 
ATOM     16  H   UNL     1      -5.409  14.071  20.057  0.00  0.00    +0.000 HD
ENDROOT
BRANCH   1  22
ATOM     17  C   UNL     1      -6.600  12.670  22.257  0.00  0.00    +0.000 A 
ATOM     18  C   UNL     1      -7.412  12.575  23.400  0.00  0.00    +0.000 A 
ATOM     19  C   UNL     1      -7.444  13.601  24.344  0.00  0.00    +0.000 A 
ATOM     20  C   UNL     1      -6.702  14.751  24.133  0.00  0.00    +0.000 A 
ATOM     21  C   UNL     1      -5.923  14.870  22.982  0.00  0.00    +0.000 A 
ATOM     22  C   UNL     1      -5.820  13.830  22.041  0.00  0.00    +0.000 A 
BRANCH  17  24
ATOM     23  C   UNL     1      -7.730  11.008  20.991  0.00  0.00    +0.000 C 
ATOM     24  O   UNL     1      -6.509  11.683  21.301  0.00  0.00    +0.000 OA
ENDBRANCH  17  24
ENDBRANCH   1  22
BRANCH  10  25
ATOM     25  C   UNL     1       2.169   7.376  19.818  0.00  0.00    +0.000 C 
ATOM     26  O   UNL     1       2.999   7.674  18.963  0.00  0.00    +0.000 OA
ATOM     27  N   UNL     1       2.007   6.077  20.256  0.00  0.00    +0.000 N 
ATOM     28  H   UNL     1       1.392   5.869  21.025  0.00  0.00    +0.000 HD
BRANCH  27  29
ATOM     29  C   UNL     1       2.845   4.987  19.749  0.00  0.00    +0.000 C 
ATOM     30  C   UNL     1       2.341   4.534  18.374  0.00  0.00    +0.000 C 
ATOM     31  C   UNL     1       3.124   3.338  17.837  0.00  0.00    +0.000 C 
ATOM     32  C   UNL     1       3.107   2.168  18.829  0.00  0.00    +0.000 C 
ATOM     33  C   UNL     1       3.891   0.978  18.280  0.00  0.00    +0.000 C 
ATOM     34  C   UNL     1       3.660   2.616  20.187  0.00  0.00    +0.000 C 
ATOM     35  C   UNL     1       2.889   3.816  20.742  0.00  0.00    +0.000 C 
ENDBRANCH  27  29
ENDBRANCH  10  25
TORSDOF 4
ENDMDL
MODEL 2
REMARK VINA RESULT:      -7.9      2.196      2.659
REMARK  Name = 
REMARK  6 active torsions:
REMARK  status: ('A' for Active; 'I' for Inactive)
REMARK    1  A    between atoms: C_1  and  O_2
REMARK    2  A    between atoms: O_2  and  C_3
REMARK    3  A    between atoms: C_8  and  N_9
REMARK    4  A    between atoms: C_18  and  C_19
REMARK    5  A    between atoms: N_21  and  C_22
REMARK    6  A    between atoms: C_25  and  C_26
REMARK                            x       y       z     vdW  Elec       q    Type
REMARK                         _______ _______ _______ _____ _____    ______ ____
ROOT
ATOM      1  N   UNL     1      -3.621  13.518  19.994  0.00  0.00    +0.000 N 
ATOM      2  C   UNL     1      -2.461  12.786  20.042  0.00  0.00    +0.000 A 
ATOM      3  N   UNL     1      -2.060  12.017  21.008  0.00  0.00    +0.000 NA
ATOM      4  N   UNL     1      -0.956  11.314  20.654  0.00  0.00    +0.000 N 
ATOM      5  C   UNL     1      -0.495  10.311  21.483  0.00  0.00    +0.000 A 
ATOM      6  O   UNL     1      -0.862  10.102  22.636  0.00  0.00    +0.000 OA
ATOM      7  C   UNL     1       0.486   9.415  20.842  0.00  0.00    +0.000 A 
ATOM      8  C   UNL     1       0.829   8.215  21.464  0.00  0.00    +0.000 A 
ATOM      9  C   UNL     1       1.678   7.328  20.811  0.00  0.00    +0.000 A 
ATOM     10  C   UNL     1       2.225   7.644  19.555  0.00  0.00    +0.000 A 
ATOM     11  C   UNL     1       1.878   8.866  18.949  0.00  0.00    +0.000 A 
ATOM     12  C   UNL     1       0.973   9.745  19.567  0.00  0.00    +0.000 A 
ATOM     13  N   UNL     1       0.491  10.863  18.840  0.00  0.00    +0.000 NA
ATOM     14  C   UNL     1      -0.469  11.530  19.395  0.00  0.00    +0.000 A 
ATOM     15  S   UNL     1      -1.389  12.803  18.639  0.00  0.00    +0.000 S 
ATOM     16  H   UNL     1      -3.902  13.887  19.093  0.00  0.00    +0.000 HD
ENDROOT
BRANCH   1  22
ATOM     17  C   UNL     1      -5.803  12.493  20.510  0.00  0.00    +0.000 A 
ATOM     18  C   UNL     1      -6.842  12.250  21.426  0.00  0.00    +0.000 A 
ATOM     19  C   UNL     1      -6.813  12.803  22.706  0.00  0.00    +0.000 A 
ATOM     20  C   UNL     1      -5.771  13.641  23.068  0.00  0.00    +0.000 A 
ATOM     21  C   UNL     1      -4.757  13.918  22.153  0.00  0.00    +0.000 A 
ATOM     22  C   UNL     1      -4.722  13.329  20.876  0.00  0.00    +0.000 A 
BRANCH  17  24
ATOM     23  C   UNL     1      -7.027  11.582  18.691  0.00  0.00    +0.000 C 
ATOM     24  O   UNL     1      -5.764  11.959  19.242  0.00  0.00    +0.000 OA
ENDBRANCH  17  24
ENDBRANCH   1  22
BRANCH  10  25
ATOM     25  C   UNL     1       3.120   6.610  18.937  0.00  0.00    +0.000 C 
ATOM     26  O   UNL     1       3.176   5.490  19.439  0.00  0.00    +0.000 OA
ATOM     27  N   UNL     1       3.858   6.946  17.820  0.00  0.00    +0.000 N 
ATOM     28  H   UNL     1       3.725   7.834  17.366  0.00  0.00    +0.000 HD
BRANCH  27  29
ATOM     29  C   UNL     1       4.723   5.970  17.150  0.00  0.00    +0.000 C 
ATOM     30  C   UNL     1       5.382   6.609  15.922  0.00  0.00    +0.000 C 
ATOM     31  C   UNL     1       6.225   5.609  15.134  0.00  0.00    +0.000 C 
ATOM     32  C   UNL     1       5.401   4.383  14.725  0.00  0.00    +0.000 C 
ATOM     33  C   UNL     1       6.255   3.392  13.935  0.00  0.00    +0.000 C 
ATOM     34  C   UNL     1       4.787   3.719  15.964  0.00  0.00    +0.000 C 
ATOM     35  C   UNL     1       3.939   4.705  16.769  0.00  0.00    +0.000 C 
ENDBRANCH  27  29
ENDBRANCH  10  25
TORSDOF 4
ENDMDL
MODEL 3
REMARK VINA RESULT:      -7.9      1.789      2.092
REMARK  Name = 
REMARK  6 active torsions:
REMARK  status: ('A' for Active; 'I' for Inactive)
REMARK    1  A    between atoms: C_1  and  O_2
REMARK    2  A    between atoms: O_2  and  C_3
REMARK    3  A    between atoms: C_8  and  N_9
REMARK    4  A    between atoms: C_18  and  C_19
REMARK    5  A    between atoms: N_21  and  C_22
REMARK    6  A    between atoms: C_25  and  C_26
REMARK                            x       y       z     vdW  Elec       q    Type
REMARK                         _______ _______ _______ _____ _____    ______ ____
ROOT
ATOM      1  N   UNL     1      -4.779  13.125  20.396  0.00  0.00    +0.000 N 
ATOM      2  C   UNL     1      -3.524  12.572  20.326  0.00  0.00    +0.000 A 
ATOM      3  N   UNL     1      -2.759  12.239  21.320  0.00  0.00    +0.000 NA
ATOM      4  N   UNL     1      -1.662  11.565  20.895  0.00  0.00    +0.000 N 
ATOM      5  C   UNL     1      -0.829  10.971  21.821  0.00  0.00    +0.000 A 
ATOM      6  O   UNL     1      -0.855  11.151  23.036  0.00  0.00    +0.000 OA
ATOM      7  C   UNL     1       0.118  10.005  21.234  0.00  0.00    +0.000 A 
ATOM      8  C   UNL     1       0.827   9.143  22.071  0.00  0.00    +0.000 A 
ATOM      9  C   UNL     1       1.644   8.167  21.509  0.00  0.00    +0.000 A 
ATOM     10  C   UNL     1       1.795   8.067  20.115  0.00  0.00    +0.000 A 
ATOM     11  C   UNL     1       1.083   8.954  19.287  0.00  0.00    +0.000 A 
ATOM     12  C   UNL     1       0.205   9.905  19.837  0.00  0.00    +0.000 A 
ATOM     13  N   UNL     1      -0.645  10.640  18.972  0.00  0.00    +0.000 NA
ATOM     14  C   UNL     1      -1.550  11.366  19.547  0.00  0.00    +0.000 A 
ATOM     15  S   UNL     1      -2.853  12.193  18.738  0.00  0.00    +0.000 S 
ATOM     16  H   UNL     1      -5.338  13.121  19.550  0.00  0.00    +0.000 HD
ENDROOT
BRANCH   1  22
ATOM     17  C   UNL     1      -6.893  12.650  21.571  0.00  0.00    +0.000 A 
ATOM     18  C   UNL     1      -7.634  12.612  22.765  0.00  0.00    +0.000 A 
ATOM     19  C   UNL     1      -7.078  13.046  23.968  0.00  0.00    +0.000 A 
ATOM     20  C   UNL     1      -5.794  13.565  23.983  0.00  0.00    +0.000 A 
ATOM     21  C   UNL     1      -5.066  13.642  22.795  0.00  0.00    +0.000 A 
ATOM     22  C   UNL     1      -5.573  13.157  21.576  0.00  0.00    +0.000 A 
BRANCH  17  24
ATOM     23  C   UNL     1      -7.150  10.839  20.056  0.00  0.00    +0.000 C 
ATOM     24  O   UNL     1      -7.379  12.216  20.358  0.00  0.00    +0.000 OA
ENDBRANCH  17  24
ENDBRANCH   1  22
BRANCH  10  25
ATOM     25  C   UNL     1       2.692   6.971  19.617  0.00  0.00    +0.000 C 
ATOM     26  O   UNL     1       2.730   5.906  20.227  0.00  0.00    +0.000 OA
ATOM     27  N   UNL     1       3.453   7.192  18.487  0.00  0.00    +0.000 N 
ATOM     28  H   UNL     1       3.336   8.034  17.947  0.00  0.00    +0.000 HD
BRANCH  27  29
ATOM     29  C   UNL     1       4.322   6.150  17.932  0.00  0.00    +0.000 C 
ATOM     30  C   UNL     1       5.276   6.759  16.897  0.00  0.00    +0.000 C 
ATOM     31  C   UNL     1       6.145   5.701  16.221  0.00  0.00    +0.000 C 
ATOM     32  C   UNL     1       5.289   4.601  15.582  0.00  0.00    +0.000 C 
ATOM     33  C   UNL     1       6.169   3.550  14.906  0.00  0.00    +0.000 C 
ATOM     34  C   UNL     1       4.374   3.962  16.634  0.00  0.00    +0.000 C 
ATOM     35  C   UNL     1       3.496   5.006  17.325  0.00  0.00    +0.000 C 
ENDBRANCH  27  29
ENDBRANCH  10  25
TORSDOF 4
ENDMDL
MODEL 4
REMARK VINA RESULT:      -7.7      2.289      3.033
REMARK  Name = 
REMARK  6 active torsions:
REMARK  status: ('A' for Active; 'I' for Inactive)
REMARK    1  A    between atoms: C_1  and  O_2
REMARK    2  A    between atoms: O_2  and  C_3
REMARK    3  A    between atoms: C_8  and  N_9
REMARK    4  A    between atoms: C_18  and  C_19
REMARK    5  A    between atoms: N_21  and  C_22
REMARK    6  A    between atoms: C_25  and  C_26
REMARK                            x       y       z     vdW  Elec       q    Type
REMARK                         _______ _______ _______ _____ _____    ______ ____
ROOT
ATOM      1  N   UNL     1      -3.527  13.469  20.363  0.00  0.00    +0.000 N 
ATOM      2  C   UNL     1      -2.381  12.714  20.358  0.00  0.00    +0.000 A 
ATOM      3  N   UNL     1      -1.967  11.914  21.293  0.00  0.00    +0.000 NA
ATOM      4  N   UNL     1      -0.888  11.199  20.889  0.00  0.00    +0.000 N 
ATOM      5  C   UNL     1      -0.423  10.167  21.679  0.00  0.00    +0.000 A 
ATOM      6  O   UNL     1      -0.760   9.936  22.838  0.00  0.00    +0.000 OA
ATOM      7  C   UNL     1       0.521   9.269  20.988  0.00  0.00    +0.000 A 
ATOM      8  C   UNL     1       0.858   8.047  21.571  0.00  0.00    +0.000 A 
ATOM      9  C   UNL     1       1.671   7.161  20.871  0.00  0.00    +0.000 A 
ATOM     10  C   UNL     1       2.187   7.498  19.607  0.00  0.00    +0.000 A 
ATOM     11  C   UNL     1       1.847   8.741  19.042  0.00  0.00    +0.000 A 
ATOM     12  C   UNL     1       0.977   9.621  19.708  0.00  0.00    +0.000 A 
ATOM     13  N   UNL     1       0.497  10.767  19.023  0.00  0.00    +0.000 NA
ATOM     14  C   UNL     1      -0.434  11.438  19.622  0.00  0.00    +0.000 A 
ATOM     15  S   UNL     1      -1.350  12.746  18.925  0.00  0.00    +0.000 S 
ATOM     16  H   UNL     1      -3.827  13.866  19.479  0.00  0.00    +0.000 HD
ENDROOT
BRANCH   1  22
ATOM     17  C   UNL     1      -4.630  13.957  22.513  0.00  0.00    +0.000 A 
ATOM     18  C   UNL     1      -5.742  13.823  23.362  0.00  0.00    +0.000 A 
ATOM     19  C   UNL     1      -6.841  13.049  22.989  0.00  0.00    +0.000 A 
ATOM     20  C   UNL     1      -6.819  12.363  21.786  0.00  0.00    +0.000 A 
ATOM     21  C   UNL     1      -5.703  12.459  20.955  0.00  0.00    +0.000 A 
ATOM     22  C   UNL     1      -4.605  13.279  21.271  0.00  0.00    +0.000 A 
BRANCH  17  24
ATOM     23  C   UNL     1      -3.228  14.855  24.206  0.00  0.00    +0.000 C 
ATOM     24  O   UNL     1      -3.527  14.724  22.815  0.00  0.00    +0.000 OA
ENDBRANCH  17  24
ENDBRANCH   1  22
BRANCH  10  25
ATOM     25  C   UNL     1       3.043   6.462  18.938  0.00  0.00    +0.000 C 
ATOM     26  O   UNL     1       2.925   5.285  19.267  0.00  0.00    +0.000 OA
ATOM     27  N   UNL     1       3.943   6.863  17.971  0.00  0.00    +0.000 N 
ATOM     28  H   UNL     1       3.956   7.816  17.646  0.00  0.00    +0.000 HD
BRANCH  27  29
ATOM     29  C   UNL     1       4.781   5.896  17.256  0.00  0.00    +0.000 C 
ATOM     30  C   UNL     1       5.477   6.579  16.073  0.00  0.00    +0.000 C 
ATOM     31  C   UNL     1       6.295   5.595  15.238  0.00  0.00    +0.000 C 
ATOM     32  C   UNL     1       5.434   4.423  14.753  0.00  0.00    +0.000 C 
ATOM     33  C   UNL     1       6.262   3.448  13.918  0.00  0.00    +0.000 C 
ATOM     34  C   UNL     1       4.782   3.714  15.946  0.00  0.00    +0.000 C 
ATOM     35  C   UNL     1       3.958   4.683  16.797  0.00  0.00    +0.000 C 
ENDBRANCH  27  29
ENDBRANCH  10  25
TORSDOF 4
ENDMDL
MODEL 5
REMARK VINA RESULT:      -7.7      1.875      2.235
REMARK  Name = 
REMARK  6 active torsions:
REMARK  status: ('A' for Active; 'I' for Inactive)
REMARK    1  A    between atoms: C_1  and  O_2
REMARK    2  A    between atoms: O_2  and  C_3
REMARK    3  A    between atoms: C_8  and  N_9
REMARK    4  A    between atoms: C_18  and  C_19
REMARK    5  A    between atoms: N_21  and  C_22
REMARK    6  A    between atoms: C_25  and  C_26
REMARK                            x       y       z     vdW  Elec       q    Type
REMARK                         _______ _______ _______ _____ _____    ______ ____
ROOT
ATOM      1  N   UNL     1      -4.045  13.756  21.311  0.00  0.00    +0.000 N 
ATOM      2  C   UNL     1      -2.860  13.087  21.131  0.00  0.00    +0.000 A 
ATOM      3  N   UNL     1      -2.353  12.173  21.901  0.00  0.00    +0.000 NA
ATOM      4  N   UNL     1      -1.258  11.604  21.339  0.00  0.00    +0.000 N 
ATOM      5  C   UNL     1      -0.695  10.488  21.924  0.00  0.00    +0.000 A 
ATOM      6  O   UNL     1      -0.958  10.049  23.041  0.00  0.00    +0.000 OA
ATOM      7  C   UNL     1       0.260   9.779  21.054  0.00  0.00    +0.000 A 
ATOM      8  C   UNL     1       0.696   8.502  21.409  0.00  0.00    +0.000 A 
ATOM      9  C   UNL     1       1.519   7.797  20.538  0.00  0.00    +0.000 A 
ATOM     10  C   UNL     1       1.949   8.370  19.327  0.00  0.00    +0.000 A 
ATOM     11  C   UNL     1       1.511   9.664  18.993  0.00  0.00    +0.000 A 
ATOM     12  C   UNL     1       0.629  10.365  19.833  0.00  0.00    +0.000 A 
ATOM     13  N   UNL     1       0.049  11.574  19.369  0.00  0.00    +0.000 NA
ATOM     14  C   UNL     1      -0.885  12.077  20.111  0.00  0.00    +0.000 A 
ATOM     15  S   UNL     1      -1.908  13.421  19.682  0.00  0.00    +0.000 S 
ATOM     16  H   UNL     1      -4.412  14.273  20.519  0.00  0.00    +0.000 HD
ENDROOT
BRANCH   1  22
ATOM     17  C   UNL     1      -6.352  13.008  21.751  0.00  0.00    +0.000 A 
ATOM     18  C   UNL     1      -7.320  12.529  22.652  0.00  0.00    +0.000 A 
ATOM     19  C   UNL     1      -7.021  12.361  24.004  0.00  0.00    +0.000 A 
ATOM     20  C   UNL     1      -5.768  12.713  24.478  0.00  0.00    +0.000 A 
ATOM     21  C   UNL     1      -4.815  13.226  23.598  0.00  0.00    +0.000 A 
ATOM     22  C   UNL     1      -5.062  13.350  22.219  0.00  0.00    +0.000 A 
BRANCH  17  24
ATOM     23  C   UNL     1      -7.750  13.921  20.063  0.00  0.00    +0.000 C 
ATOM     24  O   UNL     1      -6.581  13.175  20.404  0.00  0.00    +0.000 OA
ENDBRANCH  17  24
ENDBRANCH   1  22
BRANCH  10  25
ATOM     25  C   UNL     1       2.826   7.515  18.459  0.00  0.00    +0.000 C 
ATOM     26  O   UNL     1       2.924   7.780  17.264  0.00  0.00    +0.000 OA
ATOM     27  N   UNL     1       3.499   6.453  19.029  0.00  0.00    +0.000 N 
ATOM     28  H   UNL     1       3.483   6.311  20.025  0.00  0.00    +0.000 HD
BRANCH  27  29
ATOM     29  C   UNL     1       4.398   5.603  18.241  0.00  0.00    +0.000 C 
ATOM     30  C   UNL     1       5.310   6.473  17.369  0.00  0.00    +0.000 C 
ATOM     31  C   UNL     1       6.208   5.636  16.460  0.00  0.00    +0.000 C 
ATOM     32  C   UNL     1       5.384   4.678  15.590  0.00  0.00    +0.000 C 
ATOM     33  C   UNL     1       6.293   3.849  14.684  0.00  0.00    +0.000 C 
ATOM     34  C   UNL     1       4.513   3.777  16.473  0.00  0.00    +0.000 C 
ATOM     35  C   UNL     1       3.606   4.597  17.393  0.00  0.00    +0.000 C 
ENDBRANCH  27  29
ENDBRANCH  10  25
TORSDOF 4
ENDMDL
MODEL 6
REMARK VINA RESULT:      -7.5      1.485      2.135
REMARK  Name = 
REMARK  6 active torsions:
REMARK  status: ('A' for Active; 'I' for Inactive)
REMARK    1  A    between atoms: C_1  and  O_2
REMARK    2  A    between atoms: O_2  and  C_3
REMARK    3  A    between atoms: C_8  and  N_9
REMARK    4  A    between atoms: C_18  and  C_19
REMARK    5  A    between atoms: N_21  and  C_22
REMARK    6  A    between atoms: C_25  and  C_26
REMARK                            x       y       z     vdW  Elec       q    Type
REMARK                         _______ _______ _______ _____ _____    ______ ____
ROOT
ATOM      1  N   UNL     1      -4.006  15.287  21.313  0.00  0.00    +0.000 N 
ATOM      2  C   UNL     1      -2.968  14.389  21.375  0.00  0.00    +0.000 A 
ATOM      3  N   UNL     1      -2.814  13.430  22.237  0.00  0.00    +0.000 NA
ATOM      4  N   UNL     1      -1.770  12.631  21.904  0.00  0.00    +0.000 N 
ATOM      5  C   UNL     1      -1.567  11.455  22.598  0.00  0.00    +0.000 A 
ATOM      6  O   UNL     1      -2.121  11.130  23.645  0.00  0.00    +0.000 OA
ATOM      7  C   UNL     1      -0.628  10.531  21.937  0.00  0.00    +0.000 A 
ATOM      8  C   UNL     1      -0.536   9.211  22.381  0.00  0.00    +0.000 A 
ATOM      9  C   UNL     1       0.278   8.317  21.694  0.00  0.00    +0.000 A 
ATOM     10  C   UNL     1       1.038   8.736  20.586  0.00  0.00    +0.000 A 
ATOM     11  C   UNL     1       0.942  10.073  20.162  0.00  0.00    +0.000 A 
ATOM     12  C   UNL     1       0.078  10.974  20.807  0.00  0.00    +0.000 A 
ATOM     13  N   UNL     1      -0.146  12.250  20.229  0.00  0.00    +0.000 NA
ATOM     14  C   UNL     1      -1.082  12.962  20.770  0.00  0.00    +0.000 A 
ATOM     15  S   UNL     1      -1.711  14.459  20.138  0.00  0.00    +0.000 S 
ATOM     16  H   UNL     1      -4.103  15.827  20.461  0.00  0.00    +0.000 HD
ENDROOT
BRANCH   1  22
ATOM     17  C   UNL     1      -5.413  15.691  23.296  0.00  0.00    +0.000 A 
ATOM     18  C   UNL     1      -6.663  15.603  23.934  0.00  0.00    +0.000 A 
ATOM     19  C   UNL     1      -7.748  14.992  23.304  0.00  0.00    +0.000 A 
ATOM     20  C   UNL     1      -7.582  14.423  22.053  0.00  0.00    +0.000 A 
ATOM     21  C   UNL     1      -6.336  14.471  21.430  0.00  0.00    +0.000 A 
ATOM     22  C   UNL     1      -5.238  15.133  22.008  0.00  0.00    +0.000 A 
BRANCH  17  24
ATOM     23  C   UNL     1      -4.579  17.159  24.967  0.00  0.00    +0.000 C 
ATOM     24  O   UNL     1      -4.313  16.300  23.856  0.00  0.00    +0.000 OA
ENDBRANCH  17  24
ENDBRANCH   1  22
BRANCH  10  25
ATOM     25  C   UNL     1       1.872   7.685  19.914  0.00  0.00    +0.000 C 
ATOM     26  O   UNL     1       2.563   7.997  18.948  0.00  0.00    +0.000 OA
ATOM     27  N   UNL     1       1.839   6.393  20.400  0.00  0.00    +0.000 N 
ATOM     28  H   UNL     1       1.345   6.178  21.250  0.00  0.00    +0.000 HD
BRANCH  27  29
ATOM     29  C   UNL     1       2.658   5.330  19.809  0.00  0.00    +0.000 C 
ATOM     30  C   UNL     1       2.097   4.937  18.438  0.00  0.00    +0.000 C 
ATOM     31  C   UNL     1       2.861   3.770  17.815  0.00  0.00    +0.000 C 
ATOM     32  C   UNL     1       2.889   2.557  18.753  0.00  0.00    +0.000 C 
ATOM     33  C   UNL     1       3.653   1.396  18.118  0.00  0.00    +0.000 C 
ATOM     34  C   UNL     1       3.499   2.947  20.105  0.00  0.00    +0.000 C 
ATOM     35  C   UNL     1       2.749   4.116  20.746  0.00  0.00    +0.000 C 
ENDBRANCH  27  29
ENDBRANCH  10  25
TORSDOF 4
ENDMDL
MODEL 7
REMARK VINA RESULT:      -7.5      2.441      2.959
REMARK  Name = 
REMARK  6 active torsions:
REMARK  status: ('A' for Active; 'I' for Inactive)
REMARK    1  A    between atoms: C_1  and  O_2
REMARK    2  A    between atoms: O_2  and  C_3
REMARK    3  A    between atoms: C_8  and  N_9
REMARK    4  A    between atoms: C_18  and  C_19
REMARK    5  A    between atoms: N_21  and  C_22
REMARK    6  A    between atoms: C_25  and  C_26
REMARK                            x       y       z     vdW  Elec       q    Type
REMARK                         _______ _______ _______ _____ _____    ______ ____
ROOT
ATOM      1  N   UNL     1      -5.587  12.706  18.733  0.00  0.00    +0.000 N 
ATOM      2  C   UNL     1      -4.277  12.296  18.704  0.00  0.00    +0.000 A 
ATOM      3  N   UNL     1      -3.417  12.355  19.674  0.00  0.00    +0.000 NA
ATOM      4  N   UNL     1      -2.269  11.708  19.356  0.00  0.00    +0.000 N 
ATOM      5  C   UNL     1      -1.311  11.506  20.330  0.00  0.00    +0.000 A 
ATOM      6  O   UNL     1      -1.288  12.031  21.440  0.00  0.00    +0.000 OA
ATOM      7  C   UNL     1      -0.283  10.518  19.954  0.00  0.00    +0.000 A 
ATOM      8  C   UNL     1       0.581  10.022  20.931  0.00  0.00    +0.000 A 
ATOM      9  C   UNL     1       1.485   9.018  20.594  0.00  0.00    +0.000 A 
ATOM     10  C   UNL     1       1.564   8.530  19.278  0.00  0.00    +0.000 A 
ATOM     11  C   UNL     1       0.694   9.053  18.304  0.00  0.00    +0.000 A 
ATOM     12  C   UNL     1      -0.266  10.022  18.641  0.00  0.00    +0.000 A 
ATOM     13  N   UNL     1      -1.256  10.375  17.688  0.00  0.00    +0.000 NA
ATOM     14  C   UNL     1      -2.211  11.135  18.116  0.00  0.00    +0.000 A 
ATOM     15  S   UNL     1      -3.657  11.542  17.233  0.00  0.00    +0.000 S 
ATOM     16  H   UNL     1      -6.190  12.394  17.980  0.00  0.00    +0.000 HD
ENDROOT
BRANCH   1  22
ATOM     17  C   UNL     1      -6.713  14.321  20.217  0.00  0.00    +0.000 A 
ATOM     18  C   UNL     1      -7.495  14.578  21.357  0.00  0.00    +0.000 A 
ATOM     19  C   UNL     1      -7.901  13.542  22.197  0.00  0.00    +0.000 A 
ATOM     20  C   UNL     1      -7.492  12.245  21.934  0.00  0.00    +0.000 A 
ATOM     21  C   UNL     1      -6.683  11.986  20.828  0.00  0.00    +0.000 A 
ATOM     22  C   UNL     1      -6.307  12.998  19.926  0.00  0.00    +0.000 A 
BRANCH  17  24
ATOM     23  C   UNL     1      -7.319  15.851  18.505  0.00  0.00    +0.000 C 
ATOM     24  O   UNL     1      -6.300  15.298  19.339  0.00  0.00    +0.000 OA
ENDBRANCH  17  24
ENDBRANCH   1  22
BRANCH  10  25
ATOM     25  C   UNL     1       2.566   7.440  19.029  0.00  0.00    +0.000 C 
ATOM     26  O   UNL     1       2.732   6.574  19.884  0.00  0.00    +0.000 OA
ATOM     27  N   UNL     1       3.277   7.443  17.846  0.00  0.00    +0.000 N 
ATOM     28  H   UNL     1       3.058   8.104  17.118  0.00  0.00    +0.000 HD
BRANCH  27  29
ATOM     29  C   UNL     1       4.243   6.387  17.529  0.00  0.00    +0.000 C 
ATOM     30  C   UNL     1       5.179   6.852  16.407  0.00  0.00    +0.000 C 
ATOM     31  C   UNL     1       6.151   5.756  15.975  0.00  0.00    +0.000 C 
ATOM     32  C   UNL     1       5.406   4.481  15.561  0.00  0.00    +0.000 C 
ATOM     33  C   UNL     1       6.389   3.394  15.129  0.00  0.00    +0.000 C 
ATOM     34  C   UNL     1       4.512   3.994  16.707  0.00  0.00    +0.000 C 
ATOM     35  C   UNL     1       3.531   5.079  17.156  0.00  0.00    +0.000 C 
ENDBRANCH  27  29
ENDBRANCH  10  25
TORSDOF 4
ENDMDL
MODEL 8
REMARK VINA RESULT:      -7.5      1.414      1.566
REMARK  Name = 
REMARK  6 active torsions:
REMARK  status: ('A' for Active; 'I' for Inactive)
REMARK    1  A    between atoms: C_1  and  O_2
REMARK    2  A    between atoms: O_2  and  C_3
REMARK    3  A    between atoms: C_8  and  N_9
REMARK    4  A    between atoms: C_18  and  C_19
REMARK    5  A    between atoms: N_21  and  C_22
REMARK    6  A    between atoms: C_25  and  C_26
REMARK                            x       y       z     vdW  Elec       q    Type
REMARK                         _______ _______ _______ _____ _____    ______ ____
ROOT
ATOM      1  N   UNL     1      -3.065  15.460  21.175  0.00  0.00    +0.000 N 
ATOM      2  C   UNL     1      -2.076  14.508  21.123  0.00  0.00    +0.000 A 
ATOM      3  N   UNL     1      -1.854  13.563  21.984  0.00  0.00    +0.000 NA
ATOM      4  N   UNL     1      -0.908  12.700  21.537  0.00  0.00    +0.000 N 
ATOM      5  C   UNL     1      -0.672  11.531  22.232  0.00  0.00    +0.000 A 
ATOM      6  O   UNL     1      -1.094  11.260  23.354  0.00  0.00    +0.000 OA
ATOM      7  C   UNL     1       0.120  10.542  21.479  0.00  0.00    +0.000 A 
ATOM      8  C   UNL     1       0.204   9.230  21.946  0.00  0.00    +0.000 A 
ATOM      9  C   UNL     1       0.869   8.276  21.182  0.00  0.00    +0.000 A 
ATOM     10  C   UNL     1       1.490   8.627  19.969  0.00  0.00    +0.000 A 
ATOM     11  C   UNL     1       1.406   9.958  19.522  0.00  0.00    +0.000 A 
ATOM     12  C   UNL     1       0.685  10.920  20.251  0.00  0.00    +0.000 A 
ATOM     13  N   UNL     1       0.450  12.193  19.670  0.00  0.00    +0.000 NA
ATOM     14  C   UNL     1      -0.366  12.966  20.311  0.00  0.00    +0.000 A 
ATOM     15  S   UNL     1      -0.998  14.481  19.725  0.00  0.00    +0.000 S 
ATOM     16  H   UNL     1      -3.250  15.985  20.328  0.00  0.00    +0.000 HD
ENDROOT
BRANCH   1  22
ATOM     17  C   UNL     1      -5.321  14.608  21.683  0.00  0.00    +0.000 A 
ATOM     18  C   UNL     1      -6.395  14.482  22.582  0.00  0.00    +0.000 A 
ATOM     19  C   UNL     1      -6.360  15.099  23.832  0.00  0.00    +0.000 A 
ATOM     20  C   UNL     1      -5.274  15.885  24.179  0.00  0.00    +0.000 A 
ATOM     21  C   UNL     1      -4.222  16.047  23.278  0.00  0.00    +0.000 A 
ATOM     22  C   UNL     1      -4.196  15.390  22.035  0.00  0.00    +0.000 A 
BRANCH  17  24
ATOM     23  C   UNL     1      -5.339  12.578  20.450  0.00  0.00    +0.000 C 
ATOM     24  O   UNL     1      -5.288  14.006  20.445  0.00  0.00    +0.000 OA
ENDBRANCH  17  24
ENDBRANCH   1  22
BRANCH  10  25
ATOM     25  C   UNL     1       2.170   7.517  19.222  0.00  0.00    +0.000 C 
ATOM     26  O   UNL     1       2.914   7.795  18.285  0.00  0.00    +0.000 OA
ATOM     27  N   UNL     1       1.938   6.212  19.608  0.00  0.00    +0.000 N 
ATOM     28  H   UNL     1       1.404   6.010  20.437  0.00  0.00    +0.000 HD
BRANCH  27  29
ATOM     29  C   UNL     1       2.600   5.086  18.941  0.00  0.00    +0.000 C 
ATOM     30  C   UNL     1       1.590   3.961  18.687  0.00  0.00    +0.000 C 
ATOM     31  C   UNL     1       2.246   2.725  18.074  0.00  0.00    +0.000 C 
ATOM     32  C   UNL     1       3.407   2.222  18.939  0.00  0.00    +0.000 C 
ATOM     33  C   UNL     1       4.052   0.984  18.317  0.00  0.00    +0.000 C 
ATOM     34  C   UNL     1       4.438   3.338  19.146  0.00  0.00    +0.000 C 
ATOM     35  C   UNL     1       3.800   4.587  19.759  0.00  0.00    +0.000 C 
ENDBRANCH  27  29
ENDBRANCH  10  25
TORSDOF 4
ENDMDL
MODEL 9
REMARK VINA RESULT:      -7.5      1.459      1.980
REMARK  Name = 
REMARK  6 active torsions:
REMARK  status: ('A' for Active; 'I' for Inactive)
REMARK    1  A    between atoms: C_1  and  O_2
REMARK    2  A    between atoms: O_2  and  C_3
REMARK    3  A    between atoms: C_8  and  N_9
REMARK    4  A    between atoms: C_18  and  C_19
REMARK    5  A    between atoms: N_21  and  C_22
REMARK    6  A    between atoms: C_25  and  C_26
REMARK                            x       y       z     vdW  Elec       q    Type
REMARK                         _______ _______ _______ _____ _____    ______ ____
ROOT
ATOM      1  N   UNL     1      -6.135  13.344  20.320  0.00  0.00    +0.000 N 
ATOM      2  C   UNL     1      -4.859  12.936  20.018  0.00  0.00    +0.000 A 
ATOM      3  N   UNL     1      -3.816  12.993  20.789  0.00  0.00    +0.000 NA
ATOM      4  N   UNL     1      -2.758  12.350  20.236  0.00  0.00    +0.000 N 
ATOM      5  C   UNL     1      -1.619  12.146  20.989  0.00  0.00    +0.000 A 
ATOM      6  O   UNL     1      -1.366  12.667  22.072  0.00  0.00    +0.000 OA
ATOM      7  C   UNL     1      -0.690  11.161  20.404  0.00  0.00    +0.000 A 
ATOM      8  C   UNL     1       0.359  10.663  21.178  0.00  0.00    +0.000 A 
ATOM      9  C   UNL     1       1.174   9.663  20.658  0.00  0.00    +0.000 A 
ATOM     10  C   UNL     1       0.978   9.179  19.351  0.00  0.00    +0.000 A 
ATOM     11  C   UNL     1      -0.076   9.704  18.581  0.00  0.00    +0.000 A 
ATOM     12  C   UNL     1      -0.946  10.670  19.114  0.00  0.00    +0.000 A 
ATOM     13  N   UNL     1      -2.112  11.024  18.389  0.00  0.00    +0.000 NA
ATOM     14  C   UNL     1      -2.959  11.781  19.009  0.00  0.00    +0.000 A 
ATOM     15  S   UNL     1      -4.557  12.188  18.447  0.00  0.00    +0.000 S 
ATOM     16  H   UNL     1      -6.880  13.033  19.708  0.00  0.00    +0.000 HD
ENDROOT
BRANCH   1  22
ATOM     17  C   UNL     1      -6.668  14.964  22.100  0.00  0.00    +0.000 A 
ATOM     18  C   UNL     1      -7.200  15.235  23.373  0.00  0.00    +0.000 A 
ATOM     19  C   UNL     1      -7.679  14.206  24.183  0.00  0.00    +0.000 A 
ATOM     20  C   UNL     1      -7.590  12.894  23.750  0.00  0.00    +0.000 A 
ATOM     21  C   UNL     1      -7.028  12.613  22.505  0.00  0.00    +0.000 A 
ATOM     22  C   UNL     1      -6.591  13.630  21.637  0.00  0.00    +0.000 A 
BRANCH  17  24
ATOM     23  C   UNL     1      -6.990  17.124  21.167  0.00  0.00    +0.000 C 
ATOM     24  O   UNL     1      -6.199  15.938  21.246  0.00  0.00    +0.000 OA
ENDBRANCH  17  24
ENDBRANCH   1  22
BRANCH  10  25
ATOM     25  C   UNL     1       1.908   8.092  18.896  0.00  0.00    +0.000 C 
ATOM     26  O   UNL     1       2.829   8.373  18.135  0.00  0.00    +0.000 OA
ATOM     27  N   UNL     1       1.701   6.804  19.346  0.00  0.00    +0.000 N 
ATOM     28  H   UNL     1       1.003   6.611  20.045  0.00  0.00    +0.000 HD
BRANCH  27  29
ATOM     29  C   UNL     1       2.595   5.706  18.967  0.00  0.00    +0.000 C 
ATOM     30  C   UNL     1       1.984   4.909  17.808  0.00  0.00    +0.000 C 
ATOM     31  C   UNL     1       2.833   3.697  17.430  0.00  0.00    +0.000 C 
ATOM     32  C   UNL     1       3.077   2.787  18.640  0.00  0.00    +0.000 C 
ATOM     33  C   UNL     1       3.925   1.577  18.249  0.00  0.00    +0.000 C 
ATOM     34  C   UNL     1       3.735   3.579  19.776  0.00  0.00    +0.000 C 
ATOM     35  C   UNL     1       2.900   4.800  20.169  0.00  0.00    +0.000 C 
ENDBRANCH  27  29
ENDBRANCH  10  25
TORSDOF 4
ENDMDL
