MODEL 1
REMARK VINA RESULT:      -9.1      0.000      0.000
REMARK  Name = 
REMARK  7 active torsions:
REMARK  status: ('A' for Active; 'I' for Inactive)
REMARK    1  A    between atoms: C_1  and  N_2
REMARK    2  A    between atoms: C_3  and  N_4
REMARK    3  A    between atoms: N_7  and  C_8
REMARK    4  A    between atoms: C_11  and  C_12
REMARK    5  A    between atoms: C_12  and  O_14
REMARK    6  A    between atoms: N_20  and  C_21
REMARK    7  A    between atoms: C_21  and  C_22
REMARK                            x       y       z     vdW  Elec       q    Type
REMARK                         _______ _______ _______ _____ _____    ______ ____
ROOT
ATOM      1  C   UNL     1       8.276   5.593  19.833  0.00  0.00    +0.000 C 
ATOM      2  N   UNL     1       7.539   6.021  18.652  0.00  0.00    +0.000 N 
ATOM      3  C   UNL     1       7.647   7.313  18.128  0.00  0.00    +0.000 A 
ATOM      4  C   UNL     1       6.892   7.624  17.066  0.00  0.00    +0.000 A 
ATOM      5  C   UNL     1       5.944   6.684  16.466  0.00  0.00    +0.000 A 
ATOM      6  O   UNL     1       5.299   7.041  15.483  0.00  0.00    +0.000 OA
ATOM      7  N   UNL     1       5.862   5.454  17.062  0.00  0.00    +0.000 N 
ATOM      8  C   UNL     1       6.638   5.064  18.140  0.00  0.00    +0.000 A 
ATOM      9  O   UNL     1       6.552   3.932  18.621  0.00  0.00    +0.000 OA
ENDROOT
BRANCH   3  10
ATOM     10  N   UNL     1       8.536   8.237  18.681  0.00  0.00    +0.000 N 
ATOM     11  C   UNL     1       8.653   9.581  18.342  0.00  0.00    +0.000 C 
ATOM     12  O   UNL     1       7.916  10.162  17.555  0.00  0.00    +0.000 OA
ATOM     13  N   UNL     1       9.745  10.209  18.941  0.00  0.00    +0.000 N 
ATOM     14  H   UNL     1       9.074   7.958  19.486  0.00  0.00    +0.000 HD
ATOM     15  H   UNL     1      10.565   9.627  19.042  0.00  0.00    +0.000 HD
BRANCH  13  16
ATOM     16  C   UNL     1       9.983  11.579  18.634  0.00  0.00    +0.000 A 
ATOM     17  C   UNL     1       9.259  12.593  19.276  0.00  0.00    +0.000 A 
ATOM     18  C   UNL     1       9.332  13.913  18.829  0.00  0.00    +0.000 A 
ATOM     19  C   UNL     1      10.137  14.233  17.733  0.00  0.00    +0.000 A 
ATOM     20  C   UNL     1      10.943  13.241  17.153  0.00  0.00    +0.000 A 
ATOM     21  C   UNL     1      10.879  11.916  17.617  0.00  0.00    +0.000 A 
BRANCH  19  22
ATOM     22  C   UNL     1      10.104  15.634  17.238  0.00  0.00    +0.000 C 
ATOM     23  O   UNL     1       9.510  16.528  17.816  0.00  0.00    +0.000 OA
BRANCH  22  24
ATOM     24  O   UNL     1      10.743  15.813  16.063  0.00  0.00    +0.000 OA
ATOM     25  H   UNL     1      10.200  15.657  15.269  0.00  0.00    +0.000 HD
ENDBRANCH  22  24
ENDBRANCH  19  22
ENDBRANCH  13  16
ENDBRANCH   3  10
BRANCH   7  26
ATOM     26  C   UNL     1       4.880   4.518  16.518  0.00  0.00    +0.000 C 
BRANCH  26  27
ATOM     27  C   UNL     1       3.826   4.149  17.547  0.00  0.00    +0.000 A 
ATOM     28  C   UNL     1       3.290   2.854  17.592  0.00  0.00    +0.000 A 
ATOM     29  C   UNL     1       2.242   2.547  18.465  0.00  0.00    +0.000 A 
ATOM     30  C   UNL     1       1.717   3.532  19.304  0.00  0.00    +0.000 A 
ATOM     31 CL   UNL     1       0.373   3.106  20.303  0.00  0.00    +0.000 Cl
ATOM     32  C   UNL     1       2.267   4.818  19.295  0.00  0.00    +0.000 A 
ATOM     33 CL   UNL     1       1.683   6.083  20.317  0.00  0.00    +0.000 Cl
ATOM     34  C   UNL     1       3.319   5.122  18.422  0.00  0.00    +0.000 A 
ENDBRANCH  26  27
ENDBRANCH   7  26
TORSDOF 6
ENDMDL
MODEL 2
REMARK VINA RESULT:      -9.1      0.560      1.264
REMARK  Name = 
REMARK  7 active torsions:
REMARK  status: ('A' for Active; 'I' for Inactive)
REMARK    1  A    between atoms: C_1  and  N_2
REMARK    2  A    between atoms: C_3  and  N_4
REMARK    3  A    between atoms: N_7  and  C_8
REMARK    4  A    between atoms: C_11  and  C_12
REMARK    5  A    between atoms: C_12  and  O_14
REMARK    6  A    between atoms: N_20  and  C_21
REMARK    7  A    between atoms: C_21  and  C_22
REMARK                            x       y       z     vdW  Elec       q    Type
REMARK                         _______ _______ _______ _____ _____    ______ ____
ROOT
ATOM      1  C   UNL     1       8.329   5.695  19.879  0.00  0.00    +0.000 C 
ATOM      2  N   UNL     1       7.616   6.118  18.681  0.00  0.00    +0.000 N 
ATOM      3  C   UNL     1       7.724   7.411  18.161  0.00  0.00    +0.000 A 
ATOM      4  C   UNL     1       6.992   7.717  17.082  0.00  0.00    +0.000 A 
ATOM      5  C   UNL     1       6.067   6.769  16.459  0.00  0.00    +0.000 A 
ATOM      6  O   UNL     1       5.442   7.122  15.461  0.00  0.00    +0.000 OA
ATOM      7  N   UNL     1       5.982   5.538  17.051  0.00  0.00    +0.000 N 
ATOM      8  C   UNL     1       6.736   5.154  18.147  0.00  0.00    +0.000 A 
ATOM      9  O   UNL     1       6.648   4.021  18.624  0.00  0.00    +0.000 OA
ENDROOT
BRANCH   3  10
ATOM     10  N   UNL     1       8.592   8.343  18.736  0.00  0.00    +0.000 N 
ATOM     11  C   UNL     1       8.729   9.679  18.377  0.00  0.00    +0.000 C 
ATOM     12  O   UNL     1       8.031  10.248  17.548  0.00  0.00    +0.000 OA
ATOM     13  N   UNL     1       9.797  10.315  19.013  0.00  0.00    +0.000 N 
ATOM     14  H   UNL     1       9.093   8.078  19.569  0.00  0.00    +0.000 HD
ATOM     15  H   UNL     1      10.609   9.732  19.160  0.00  0.00    +0.000 HD
BRANCH  13  16
ATOM     16  C   UNL     1      10.054  11.678  18.691  0.00  0.00    +0.000 A 
ATOM     17  C   UNL     1       9.395  12.711  19.371  0.00  0.00    +0.000 A 
ATOM     18  C   UNL     1       9.479  14.029  18.919  0.00  0.00    +0.000 A 
ATOM     19  C   UNL     1      10.229  14.328  17.780  0.00  0.00    +0.000 A 
ATOM     20  C   UNL     1      10.973  13.314  17.156  0.00  0.00    +0.000 A 
ATOM     21  C   UNL     1      10.900  11.991  17.624  0.00  0.00    +0.000 A 
BRANCH  19  22
ATOM     22  C   UNL     1      10.206  15.729  17.285  0.00  0.00    +0.000 C 
ATOM     23  O   UNL     1       9.649  16.634  17.883  0.00  0.00    +0.000 OA
BRANCH  22  24
ATOM     24  O   UNL     1      10.807  15.896  16.089  0.00  0.00    +0.000 OA
ATOM     25  H   UNL     1      11.234  15.099  15.725  0.00  0.00    +0.000 HD
ENDBRANCH  22  24
ENDBRANCH  19  22
ENDBRANCH  13  16
ENDBRANCH   3  10
BRANCH   7  26
ATOM     26  C   UNL     1       5.021   4.594  16.483  0.00  0.00    +0.000 C 
BRANCH  26  27
ATOM     27  C   UNL     1       3.807   4.423  17.378  0.00  0.00    +0.000 A 
ATOM     28  C   UNL     1       3.171   5.537  17.945  0.00  0.00    +0.000 A 
ATOM     29  C   UNL     1       2.123   5.372  18.856  0.00  0.00    +0.000 A 
ATOM     30  C   UNL     1       1.698   4.090  19.212  0.00  0.00    +0.000 A 
ATOM     31 CL   UNL     1       0.451   3.957  20.399  0.00  0.00    +0.000 Cl
ATOM     32  C   UNL     1       2.299   2.972  18.625  0.00  0.00    +0.000 A 
ATOM     33 CL   UNL     1       1.815   1.356  19.001  0.00  0.00    +0.000 Cl
ATOM     34  C   UNL     1       3.346   3.140  17.710  0.00  0.00    +0.000 A 
ENDBRANCH  26  27
ENDBRANCH   7  26
TORSDOF 6
ENDMDL
MODEL 3
REMARK VINA RESULT:      -8.7      0.582      1.043
REMARK  Name = 
REMARK  7 active torsions:
REMARK  status: ('A' for Active; 'I' for Inactive)
REMARK    1  A    between atoms: C_1  and  N_2
REMARK    2  A    between atoms: C_3  and  N_4
REMARK    3  A    between atoms: N_7  and  C_8
REMARK    4  A    between atoms: C_11  and  C_12
REMARK    5  A    between atoms: C_12  and  O_14
REMARK    6  A    between atoms: N_20  and  C_21
REMARK    7  A    between atoms: C_21  and  C_22
REMARK                            x       y       z     vdW  Elec       q    Type
REMARK                         _______ _______ _______ _____ _____    ______ ____
ROOT
ATOM      1  C   UNL     1       8.201   5.560  19.862  0.00  0.00    +0.000 C 
ATOM      2  N   UNL     1       7.478   5.976  18.668  0.00  0.00    +0.000 N 
ATOM      3  C   UNL     1       7.590   7.262  18.133  0.00  0.00    +0.000 A 
ATOM      4  C   UNL     1       6.848   7.562  17.059  0.00  0.00    +0.000 A 
ATOM      5  C   UNL     1       5.909   6.615  16.457  0.00  0.00    +0.000 A 
ATOM      6  O   UNL     1       5.276   6.961  15.462  0.00  0.00    +0.000 OA
ATOM      7  N   UNL     1       5.822   5.390  17.063  0.00  0.00    +0.000 N 
ATOM      8  C   UNL     1       6.585   5.013  18.155  0.00  0.00    +0.000 A 
ATOM      9  O   UNL     1       6.494   3.885  18.645  0.00  0.00    +0.000 OA
ENDROOT
BRANCH   3  10
ATOM     10  N   UNL     1       8.471   8.193  18.688  0.00  0.00    +0.000 N 
ATOM     11  C   UNL     1       8.623   9.522  18.305  0.00  0.00    +0.000 C 
ATOM     12  O   UNL     1       7.928  10.084  17.469  0.00  0.00    +0.000 OA
ATOM     13  N   UNL     1       9.701  10.156  18.925  0.00  0.00    +0.000 N 
ATOM     14  H   UNL     1       8.973   7.937  19.523  0.00  0.00    +0.000 HD
ATOM     15  H   UNL     1      10.507   9.566  19.080  0.00  0.00    +0.000 HD
BRANCH  13  16
ATOM     16  C   UNL     1       9.973  11.510  18.579  0.00  0.00    +0.000 A 
ATOM     17  C   UNL     1      10.861  11.819  17.540  0.00  0.00    +0.000 A 
ATOM     18  C   UNL     1      11.294  13.130  17.339  0.00  0.00    +0.000 A 
ATOM     19  C   UNL     1      10.839  14.150  18.177  0.00  0.00    +0.000 A 
ATOM     20  C   UNL     1       9.871  13.863  19.152  0.00  0.00    +0.000 A 
ATOM     21  C   UNL     1       9.425  12.544  19.341  0.00  0.00    +0.000 A 
BRANCH  19  22
ATOM     22  C   UNL     1      11.406  15.509  17.982  0.00  0.00    +0.000 C 
ATOM     23  O   UNL     1      11.566  16.298  18.898  0.00  0.00    +0.000 OA
BRANCH  22  24
ATOM     24  O   UNL     1      11.676  15.810  16.695  0.00  0.00    +0.000 OA
ATOM     25  H   UNL     1      12.542  15.504  16.371  0.00  0.00    +0.000 HD
ENDBRANCH  22  24
ENDBRANCH  19  22
ENDBRANCH  13  16
ENDBRANCH   3  10
BRANCH   7  26
ATOM     26  C   UNL     1       4.847   4.448  16.517  0.00  0.00    +0.000 C 
BRANCH  26  27
ATOM     27  C   UNL     1       3.795   4.069  17.544  0.00  0.00    +0.000 A 
ATOM     28  C   UNL     1       3.226   2.787  17.548  0.00  0.00    +0.000 A 
ATOM     29  C   UNL     1       2.180   2.476  18.422  0.00  0.00    +0.000 A 
ATOM     30  C   UNL     1       1.689   3.443  19.302  0.00  0.00    +0.000 A 
ATOM     31 CL   UNL     1       0.345   3.015  20.300  0.00  0.00    +0.000 Cl
ATOM     32  C   UNL     1       2.273   4.713  19.333  0.00  0.00    +0.000 A 
ATOM     33 CL   UNL     1       1.733   5.955  20.407  0.00  0.00    +0.000 Cl
ATOM     34  C   UNL     1       3.323   5.022  18.460  0.00  0.00    +0.000 A 
ENDBRANCH  26  27
ENDBRANCH   7  26
TORSDOF 6
ENDMDL
MODEL 4
REMARK VINA RESULT:      -8.6      7.127     10.078
REMARK  Name = 
REMARK  7 active torsions:
REMARK  status: ('A' for Active; 'I' for Inactive)
REMARK    1  A    between atoms: C_1  and  N_2
REMARK    2  A    between atoms: C_3  and  N_4
REMARK    3  A    between atoms: N_7  and  C_8
REMARK    4  A    between atoms: C_11  and  C_12
REMARK    5  A    between atoms: C_12  and  O_14
REMARK    6  A    between atoms: N_20  and  C_21
REMARK    7  A    between atoms: C_21  and  C_22
REMARK                            x       y       z     vdW  Elec       q    Type
REMARK                         _______ _______ _______ _____ _____    ______ ____
ROOT
ATOM      1  C   UNL     1       0.840   9.294  23.219  0.00  0.00    +0.000 C 
ATOM      2  N   UNL     1       0.406   9.730  21.898  0.00  0.00    +0.000 N 
ATOM      3  C   UNL     1       0.727   9.027  20.733  0.00  0.00    +0.000 A 
ATOM      4  C   UNL     1       0.322   9.535  19.562  0.00  0.00    +0.000 A 
ATOM      5  C   UNL     1      -0.405  10.801  19.458  0.00  0.00    +0.000 A 
ATOM      6  O   UNL     1      -0.758  11.192  18.347  0.00  0.00    +0.000 OA
ATOM      7  N   UNL     1      -0.645  11.453  20.638  0.00  0.00    +0.000 N 
ATOM      8  C   UNL     1      -0.277  10.963  21.880  0.00  0.00    +0.000 A 
ATOM      9  O   UNL     1      -0.545  11.572  22.918  0.00  0.00    +0.000 OA
ENDROOT
BRANCH   3  10
ATOM     10  N   UNL     1       1.427   7.820  20.796  0.00  0.00    +0.000 N 
ATOM     11  C   UNL     1       2.329   7.334  19.856  0.00  0.00    +0.000 C 
ATOM     12  O   UNL     1       2.700   7.956  18.868  0.00  0.00    +0.000 OA
ATOM     13  N   UNL     1       2.737   6.023  20.106  0.00  0.00    +0.000 N 
ATOM     14  H   UNL     1       1.380   7.285  21.649  0.00  0.00    +0.000 HD
ATOM     15  H   UNL     1       2.021   5.425  20.495  0.00  0.00    +0.000 HD
BRANCH  13  16
ATOM     16  C   UNL     1       3.633   5.411  19.184  0.00  0.00    +0.000 A 
ATOM     17  C   UNL     1       5.015   5.421  19.416  0.00  0.00    +0.000 A 
ATOM     18  C   UNL     1       5.907   5.018  18.420  0.00  0.00    +0.000 A 
ATOM     19  C   UNL     1       5.422   4.596  17.180  0.00  0.00    +0.000 A 
ATOM     20  C   UNL     1       4.037   4.487  16.980  0.00  0.00    +0.000 A 
ATOM     21  C   UNL     1       3.142   4.878  17.990  0.00  0.00    +0.000 A 
BRANCH  19  22
ATOM     22  C   UNL     1       6.416   4.272  16.124  0.00  0.00    +0.000 C 
ATOM     23  O   UNL     1       7.595   4.571  16.209  0.00  0.00    +0.000 OA
BRANCH  22  24
ATOM     24  O   UNL     1       5.885   3.666  15.041  0.00  0.00    +0.000 OA
ATOM     25  H   UNL     1       6.524   3.429  14.345  0.00  0.00    +0.000 HD
ENDBRANCH  22  24
ENDBRANCH  19  22
ENDBRANCH  13  16
ENDBRANCH   3  10
BRANCH   7  26
ATOM     26  C   UNL     1      -1.317  12.749  20.555  0.00  0.00    +0.000 C 
BRANCH  26  27
ATOM     27  C   UNL     1      -2.821  12.612  20.709  0.00  0.00    +0.000 A 
ATOM     28  C   UNL     1      -3.634  12.349  19.597  0.00  0.00    +0.000 A 
ATOM     29  C   UNL     1      -5.027  12.334  19.721  0.00  0.00    +0.000 A 
ATOM     30  C   UNL     1      -5.623  12.582  20.958  0.00  0.00    +0.000 A 
ATOM     31 CL   UNL     1      -7.350  12.624  21.026  0.00  0.00    +0.000 Cl
ATOM     32  C   UNL     1      -4.823  12.809  22.082  0.00  0.00    +0.000 A 
ATOM     33 CL   UNL     1      -5.488  13.105  23.650  0.00  0.00    +0.000 Cl
ATOM     34  C   UNL     1      -3.428  12.820  21.956  0.00  0.00    +0.000 A 
ENDBRANCH  26  27
ENDBRANCH   7  26
TORSDOF 6
ENDMDL
MODEL 5
REMARK VINA RESULT:      -8.5      0.806      1.723
REMARK  Name = 
REMARK  7 active torsions:
REMARK  status: ('A' for Active; 'I' for Inactive)
REMARK    1  A    between atoms: C_1  and  N_2
REMARK    2  A    between atoms: C_3  and  N_4
REMARK    3  A    between atoms: N_7  and  C_8
REMARK    4  A    between atoms: C_11  and  C_12
REMARK    5  A    between atoms: C_12  and  O_14
REMARK    6  A    between atoms: N_20  and  C_21
REMARK    7  A    between atoms: C_21  and  C_22
REMARK                            x       y       z     vdW  Elec       q    Type
REMARK                         _______ _______ _______ _____ _____    ______ ____
ROOT
ATOM      1  C   UNL     1       8.160   5.640  19.926  0.00  0.00    +0.000 C 
ATOM      2  N   UNL     1       7.514   6.018  18.676  0.00  0.00    +0.000 N 
ATOM      3  C   UNL     1       7.690   7.275  18.091  0.00  0.00    +0.000 A 
ATOM      4  C   UNL     1       7.015   7.544  16.965  0.00  0.00    +0.000 A 
ATOM      5  C   UNL     1       6.083   6.593  16.356  0.00  0.00    +0.000 A 
ATOM      6  O   UNL     1       5.514   6.908  15.314  0.00  0.00    +0.000 OA
ATOM      7  N   UNL     1       5.930   5.400  17.011  0.00  0.00    +0.000 N 
ATOM      8  C   UNL     1       6.623   5.055  18.159  0.00  0.00    +0.000 A 
ATOM      9  O   UNL     1       6.475   3.954  18.694  0.00  0.00    +0.000 OA
ENDROOT
BRANCH   3  10
ATOM     10  N   UNL     1       8.565   8.209  18.651  0.00  0.00    +0.000 N 
ATOM     11  C   UNL     1       8.623   9.568  18.362  0.00  0.00    +0.000 C 
ATOM     12  O   UNL     1       7.839  10.153  17.626  0.00  0.00    +0.000 OA
ATOM     13  N   UNL     1       9.714  10.212  18.949  0.00  0.00    +0.000 N 
ATOM     14  H   UNL     1       9.141   7.918  19.424  0.00  0.00    +0.000 HD
ATOM     15  H   UNL     1      10.556   9.656  18.998  0.00  0.00    +0.000 HD
BRANCH  13  16
ATOM     16  C   UNL     1       9.893  11.601  18.690  0.00  0.00    +0.000 A 
ATOM     17  C   UNL     1      10.603  12.033  17.563  0.00  0.00    +0.000 A 
ATOM     18  C   UNL     1      10.965  13.373  17.419  0.00  0.00    +0.000 A 
ATOM     19  C   UNL     1      10.615  14.298  18.404  0.00  0.00    +0.000 A 
ATOM     20  C   UNL     1       9.815  13.889  19.483  0.00  0.00    +0.000 A 
ATOM     21  C   UNL     1       9.439  12.543  19.616  0.00  0.00    +0.000 A 
BRANCH  19  22
ATOM     22  C   UNL     1      11.109  15.691  18.251  0.00  0.00    +0.000 C 
ATOM     23  O   UNL     1      11.444  16.161  17.177  0.00  0.00    +0.000 OA
BRANCH  22  24
ATOM     24  O   UNL     1      11.204  16.369  19.414  0.00  0.00    +0.000 OA
ATOM     25  H   UNL     1      12.063  16.800  19.572  0.00  0.00    +0.000 HD
ENDBRANCH  22  24
ENDBRANCH  19  22
ENDBRANCH  13  16
ENDBRANCH   3  10
BRANCH   7  26
ATOM     26  C   UNL     1       4.961   4.458  16.455  0.00  0.00    +0.000 C 
BRANCH  26  27
ATOM     27  C   UNL     1       3.742   4.314  17.349  0.00  0.00    +0.000 A 
ATOM     28  C   UNL     1       3.132   5.442  17.917  0.00  0.00    +0.000 A 
ATOM     29  C   UNL     1       2.079   5.300  18.827  0.00  0.00    +0.000 A 
ATOM     30  C   UNL     1       1.625   4.028  19.180  0.00  0.00    +0.000 A 
ATOM     31 CL   UNL     1       0.373   3.922  20.367  0.00  0.00    +0.000 Cl
ATOM     32  C   UNL     1       2.200   2.897  18.593  0.00  0.00    +0.000 A 
ATOM     33 CL   UNL     1       1.678   1.292  18.966  0.00  0.00    +0.000 Cl
ATOM     34  C   UNL     1       3.251   3.042  17.679  0.00  0.00    +0.000 A 
ENDBRANCH  26  27
ENDBRANCH   7  26
TORSDOF 6
ENDMDL
MODEL 6
REMARK VINA RESULT:      -8.3      7.158      9.957
REMARK  Name = 
REMARK  7 active torsions:
REMARK  status: ('A' for Active; 'I' for Inactive)
REMARK    1  A    between atoms: C_1  and  N_2
REMARK    2  A    between atoms: C_3  and  N_4
REMARK    3  A    between atoms: N_7  and  C_8
REMARK    4  A    between atoms: C_11  and  C_12
REMARK    5  A    between atoms: C_12  and  O_14
REMARK    6  A    between atoms: N_20  and  C_21
REMARK    7  A    between atoms: C_21  and  C_22
REMARK                            x       y       z     vdW  Elec       q    Type
REMARK                         _______ _______ _______ _____ _____    ______ ____
ROOT
ATOM      1  C   UNL     1       0.354   9.162  22.518  0.00  0.00    +0.000 C 
ATOM      2  N   UNL     1       0.070   9.882  21.284  0.00  0.00    +0.000 N 
ATOM      3  C   UNL     1       0.628   9.516  20.056  0.00  0.00    +0.000 A 
ATOM      4  C   UNL     1       0.343  10.271  18.986  0.00  0.00    +0.000 A 
ATOM      5  C   UNL     1      -0.493  11.470  19.065  0.00  0.00    +0.000 A 
ATOM      6  O   UNL     1      -0.722  12.100  18.035  0.00  0.00    +0.000 OA
ATOM      7  N   UNL     1      -0.966  11.790  20.309  0.00  0.00    +0.000 N 
ATOM      8  C   UNL     1      -0.731  11.032  21.444  0.00  0.00    +0.000 A 
ATOM      9  O   UNL     1      -1.208  11.344  22.537  0.00  0.00    +0.000 OA
ENDROOT
BRANCH   3  10
ATOM     10  N   UNL     1       1.436   8.381  19.947  0.00  0.00    +0.000 N 
ATOM     11  C   UNL     1       2.230   8.030  18.861  0.00  0.00    +0.000 C 
ATOM     12  O   UNL     1       2.394   8.729  17.870  0.00  0.00    +0.000 OA
ATOM     13  N   UNL     1       2.787   6.755  18.973  0.00  0.00    +0.000 N 
ATOM     14  H   UNL     1       1.563   7.807  20.765  0.00  0.00    +0.000 HD
ATOM     15  H   UNL     1       2.194   6.073  19.423  0.00  0.00    +0.000 HD
BRANCH  13  16
ATOM     16  C   UNL     1       3.590   6.277  17.899  0.00  0.00    +0.000 A 
ATOM     17  C   UNL     1       3.550   4.928  17.521  0.00  0.00    +0.000 A 
ATOM     18  C   UNL     1       4.484   4.412  16.622  0.00  0.00    +0.000 A 
ATOM     19  C   UNL     1       5.469   5.245  16.087  0.00  0.00    +0.000 A 
ATOM     20  C   UNL     1       5.450   6.617  16.382  0.00  0.00    +0.000 A 
ATOM     21  C   UNL     1       4.498   7.136  17.275  0.00  0.00    +0.000 A 
BRANCH  19  22
ATOM     22  C   UNL     1       6.497   4.625  15.211  0.00  0.00    +0.000 C 
ATOM     23  O   UNL     1       7.577   5.145  14.986  0.00  0.00    +0.000 OA
BRANCH  22  24
ATOM     24  O   UNL     1       6.106   3.464  14.645  0.00  0.00    +0.000 OA
ATOM     25  H   UNL     1       6.808   2.795  14.547  0.00  0.00    +0.000 HD
ENDBRANCH  22  24
ENDBRANCH  19  22
ENDBRANCH  13  16
ENDBRANCH   3  10
BRANCH   7  26
ATOM     26  C   UNL     1      -1.753  13.016  20.424  0.00  0.00    +0.000 C 
BRANCH  26  27
ATOM     27  C   UNL     1      -3.244  12.732  20.390  0.00  0.00    +0.000 A 
ATOM     28  C   UNL     1      -4.038  12.932  21.529  0.00  0.00    +0.000 A 
ATOM     29  C   UNL     1      -5.388  12.566  21.529  0.00  0.00    +0.000 A 
ATOM     30  C   UNL     1      -5.959  11.994  20.390  0.00  0.00    +0.000 A 
ATOM     31 CL   UNL     1      -7.611  11.494  20.484  0.00  0.00    +0.000 Cl
ATOM     32  C   UNL     1      -5.188  11.823  19.237  0.00  0.00    +0.000 A 
ATOM     33 CL   UNL     1      -5.830  11.140  17.785  0.00  0.00    +0.000 Cl
ATOM     34  C   UNL     1      -3.837  12.195  19.238  0.00  0.00    +0.000 A 
ENDBRANCH  26  27
ENDBRANCH   7  26
TORSDOF 6
ENDMDL
MODEL 7
REMARK VINA RESULT:      -8.3      7.128      9.895
REMARK  Name = 
REMARK  7 active torsions:
REMARK  status: ('A' for Active; 'I' for Inactive)
REMARK    1  A    between atoms: C_1  and  N_2
REMARK    2  A    between atoms: C_3  and  N_4
REMARK    3  A    between atoms: N_7  and  C_8
REMARK    4  A    between atoms: C_11  and  C_12
REMARK    5  A    between atoms: C_12  and  O_14
REMARK    6  A    between atoms: N_20  and  C_21
REMARK    7  A    between atoms: C_21  and  C_22
REMARK                            x       y       z     vdW  Elec       q    Type
REMARK                         _______ _______ _______ _____ _____    ______ ____
ROOT
ATOM      1  C   UNL     1       0.745   9.670  22.784  0.00  0.00    +0.000 C 
ATOM      2  N   UNL     1       0.214  10.014  21.472  0.00  0.00    +0.000 N 
ATOM      3  C   UNL     1       0.489   9.257  20.329  0.00  0.00    +0.000 A 
ATOM      4  C   UNL     1      -0.007   9.682  19.160  0.00  0.00    +0.000 A 
ATOM      5  C   UNL     1      -0.786  10.915  19.033  0.00  0.00    +0.000 A 
ATOM      6  O   UNL     1      -1.220  11.229  17.926  0.00  0.00    +0.000 OA
ATOM      7  N   UNL     1      -0.976  11.626  20.187  0.00  0.00    +0.000 N 
ATOM      8  C   UNL     1      -0.514  11.221  21.428  0.00  0.00    +0.000 A 
ATOM      9  O   UNL     1      -0.740  11.879  22.446  0.00  0.00    +0.000 OA
ENDROOT
BRANCH   3  10
ATOM     10  N   UNL     1       1.236   8.079  20.414  0.00  0.00    +0.000 N 
ATOM     11  C   UNL     1       2.249   7.676  19.552  0.00  0.00    +0.000 C 
ATOM     12  O   UNL     1       2.687   8.357  18.633  0.00  0.00    +0.000 OA
ATOM     13  N   UNL     1       2.692   6.374  19.789  0.00  0.00    +0.000 N 
ATOM     14  H   UNL     1       1.130   7.506  21.235  0.00  0.00    +0.000 HD
ATOM     15  H   UNL     1       1.970   5.728  20.079  0.00  0.00    +0.000 HD
BRANCH  13  16
ATOM     16  C   UNL     1       3.704   5.843  18.940  0.00  0.00    +0.000 A 
ATOM     17  C   UNL     1       4.813   5.176  19.477  0.00  0.00    +0.000 A 
ATOM     18  C   UNL     1       5.905   4.847  18.673  0.00  0.00    +0.000 A 
ATOM     19  C   UNL     1       5.896   5.180  17.317  0.00  0.00    +0.000 A 
ATOM     20  C   UNL     1       4.746   5.755  16.753  0.00  0.00    +0.000 A 
ATOM     21  C   UNL     1       3.643   6.070  17.563  0.00  0.00    +0.000 A 
BRANCH  19  22
ATOM     22  C   UNL     1       7.123   4.896  16.528  0.00  0.00    +0.000 C 
ATOM     23  O   UNL     1       7.255   5.234  15.364  0.00  0.00    +0.000 OA
BRANCH  22  24
ATOM     24  O   UNL     1       8.051   4.182  17.198  0.00  0.00    +0.000 OA
ATOM     25  H   UNL     1       7.822   3.248  17.353  0.00  0.00    +0.000 HD
ENDBRANCH  22  24
ENDBRANCH  19  22
ENDBRANCH  13  16
ENDBRANCH   3  10
BRANCH   7  26
ATOM     26  C   UNL     1      -1.699  12.891  20.076  0.00  0.00    +0.000 C 
BRANCH  26  27
ATOM     27  C   UNL     1      -3.195  12.700  20.252  0.00  0.00    +0.000 A 
ATOM     28  C   UNL     1      -3.808  12.948  21.488  0.00  0.00    +0.000 A 
ATOM     29  C   UNL     1      -5.165  12.666  21.679  0.00  0.00    +0.000 A 
ATOM     30  C   UNL     1      -5.924  12.132  20.636  0.00  0.00    +0.000 A 
ATOM     31 CL   UNL     1      -7.574  11.736  20.962  0.00  0.00    +0.000 Cl
ATOM     32  C   UNL     1      -5.332  11.915  19.388  0.00  0.00    +0.000 A 
ATOM     33 CL   UNL     1      -6.212  11.275  18.044  0.00  0.00    +0.000 Cl
ATOM     34  C   UNL     1      -3.975  12.202  19.197  0.00  0.00    +0.000 A 
ENDBRANCH  26  27
ENDBRANCH   7  26
TORSDOF 6
ENDMDL
MODEL 8
REMARK VINA RESULT:      -8.2      6.872      9.883
REMARK  Name = 
REMARK  7 active torsions:
REMARK  status: ('A' for Active; 'I' for Inactive)
REMARK    1  A    between atoms: C_1  and  N_2
REMARK    2  A    between atoms: C_3  and  N_4
REMARK    3  A    between atoms: N_7  and  C_8
REMARK    4  A    between atoms: C_11  and  C_12
REMARK    5  A    between atoms: C_12  and  O_14
REMARK    6  A    between atoms: N_20  and  C_21
REMARK    7  A    between atoms: C_21  and  C_22
REMARK                            x       y       z     vdW  Elec       q    Type
REMARK                         _______ _______ _______ _____ _____    ______ ____
ROOT
ATOM      1  C   UNL     1      -0.120   8.724  22.818  0.00  0.00    +0.000 C 
ATOM      2  N   UNL     1       0.028   9.470  21.576  0.00  0.00    +0.000 N 
ATOM      3  C   UNL     1       0.867   9.046  20.541  0.00  0.00    +0.000 A 
ATOM      4  C   UNL     1       0.973   9.826  19.458  0.00  0.00    +0.000 A 
ATOM      5  C   UNL     1       0.277  11.108  19.336  0.00  0.00    +0.000 A 
ATOM      6  O   UNL     1       0.412  11.759  18.302  0.00  0.00    +0.000 OA
ATOM      7  N   UNL     1      -0.491  11.478  20.408  0.00  0.00    +0.000 N 
ATOM      8  C   UNL     1      -0.662  10.700  21.541  0.00  0.00    +0.000 A 
ATOM      9  O   UNL     1      -1.392  11.060  22.466  0.00  0.00    +0.000 OA
ENDROOT
BRANCH   3  10
ATOM     10  N   UNL     1       1.552   7.831  20.629  0.00  0.00    +0.000 N 
ATOM     11  C   UNL     1       2.460   7.323  19.706  0.00  0.00    +0.000 C 
ATOM     12  O   UNL     1       2.850   7.927  18.715  0.00  0.00    +0.000 OA
ATOM     13  N   UNL     1       2.849   6.010  19.978  0.00  0.00    +0.000 N 
ATOM     14  H   UNL     1       1.488   7.308  21.487  0.00  0.00    +0.000 HD
ATOM     15  H   UNL     1       2.121   5.426  20.365  0.00  0.00    +0.000 HD
BRANCH  13  16
ATOM     16  C   UNL     1       3.748   5.376  19.075  0.00  0.00    +0.000 A 
ATOM     17  C   UNL     1       5.126   5.361  19.330  0.00  0.00    +0.000 A 
ATOM     18  C   UNL     1       6.027   4.936  18.352  0.00  0.00    +0.000 A 
ATOM     19  C   UNL     1       5.555   4.515  17.107  0.00  0.00    +0.000 A 
ATOM     20  C   UNL     1       4.172   4.430  16.884  0.00  0.00    +0.000 A 
ATOM     21  C   UNL     1       3.268   4.844  17.876  0.00  0.00    +0.000 A 
BRANCH  19  22
ATOM     22  C   UNL     1       6.560   4.165  16.070  0.00  0.00    +0.000 C 
ATOM     23  O   UNL     1       7.710   4.571  16.096  0.00  0.00    +0.000 OA
BRANCH  22  24
ATOM     24  O   UNL     1       6.071   3.404  15.069  0.00  0.00    +0.000 OA
ATOM     25  H   UNL     1       6.676   3.269  14.318  0.00  0.00    +0.000 HD
ENDBRANCH  22  24
ENDBRANCH  19  22
ENDBRANCH  13  16
ENDBRANCH   3  10
BRANCH   7  26
ATOM     26  C   UNL     1      -1.148  12.782  20.336  0.00  0.00    +0.000 C 
BRANCH  26  27
ATOM     27  C   UNL     1      -2.618  12.651  19.982  0.00  0.00    +0.000 A 
ATOM     28  C   UNL     1      -3.611  13.080  20.875  0.00  0.00    +0.000 A 
ATOM     29  C   UNL     1      -4.963  12.858  20.596  0.00  0.00    +0.000 A 
ATOM     30  C   UNL     1      -5.339  12.203  19.422  0.00  0.00    +0.000 A 
ATOM     31 CL   UNL     1      -7.021  11.893  19.176  0.00  0.00    +0.000 Cl
ATOM     32  C   UNL     1      -4.361  11.802  18.507  0.00  0.00    +0.000 A 
ATOM     33 CL   UNL     1      -4.750  11.004  17.024  0.00  0.00    +0.000 Cl
ATOM     34  C   UNL     1      -3.007  12.029  18.786  0.00  0.00    +0.000 A 
ENDBRANCH  26  27
ENDBRANCH   7  26
TORSDOF 6
ENDMDL
MODEL 9
REMARK VINA RESULT:      -8.2      7.497     10.900
REMARK  Name = 
REMARK  7 active torsions:
REMARK  status: ('A' for Active; 'I' for Inactive)
REMARK    1  A    between atoms: C_1  and  N_2
REMARK    2  A    between atoms: C_3  and  N_4
REMARK    3  A    between atoms: N_7  and  C_8
REMARK    4  A    between atoms: C_11  and  C_12
REMARK    5  A    between atoms: C_12  and  O_14
REMARK    6  A    between atoms: N_20  and  C_21
REMARK    7  A    between atoms: C_21  and  C_22
REMARK                            x       y       z     vdW  Elec       q    Type
REMARK                         _______ _______ _______ _____ _____    ______ ____
ROOT
ATOM      1  C   UNL     1      -1.288  10.351  17.798  0.00  0.00    +0.000 C 
ATOM      2  N   UNL     1      -0.387  11.269  18.482  0.00  0.00    +0.000 N 
ATOM      3  C   UNL     1       0.985  11.029  18.595  0.00  0.00    +0.000 A 
ATOM      4  C   UNL     1       1.722  11.909  19.285  0.00  0.00    +0.000 A 
ATOM      5  C   UNL     1       1.142  13.079  19.947  0.00  0.00    +0.000 A 
ATOM      6  O   UNL     1       1.888  13.849  20.548  0.00  0.00    +0.000 OA
ATOM      7  N   UNL     1      -0.214  13.222  19.830  0.00  0.00    +0.000 N 
ATOM      8  C   UNL     1      -1.023  12.363  19.105  0.00  0.00    +0.000 A 
ATOM      9  O   UNL     1      -2.236  12.554  19.001  0.00  0.00    +0.000 OA
ENDROOT
BRANCH   3  10
ATOM     10  N   UNL     1       1.570   9.918  17.981  0.00  0.00    +0.000 N 
ATOM     11  C   UNL     1       1.744   8.657  18.542  0.00  0.00    +0.000 C 
ATOM     12  O   UNL     1       1.321   8.325  19.642  0.00  0.00    +0.000 OA
ATOM     13  N   UNL     1       2.514   7.803  17.752  0.00  0.00    +0.000 N 
ATOM     14  H   UNL     1       1.789   9.976  17.000  0.00  0.00    +0.000 HD
ATOM     15  H   UNL     1       3.265   8.254  17.248  0.00  0.00    +0.000 HD
BRANCH  13  16
ATOM     16  C   UNL     1       2.788   6.496  18.246  0.00  0.00    +0.000 A 
ATOM     17  C   UNL     1       3.954   6.238  18.979  0.00  0.00    +0.000 A 
ATOM     18  C   UNL     1       4.332   4.928  19.278  0.00  0.00    +0.000 A 
ATOM     19  C   UNL     1       3.542   3.860  18.848  0.00  0.00    +0.000 A 
ATOM     20  C   UNL     1       2.321   4.118  18.204  0.00  0.00    +0.000 A 
ATOM     21  C   UNL     1       1.936   5.438  17.920  0.00  0.00    +0.000 A 
BRANCH  19  22
ATOM     22  C   UNL     1       4.040   2.484  19.107  0.00  0.00    +0.000 C 
ATOM     23  O   UNL     1       3.464   1.485  18.710  0.00  0.00    +0.000 OA
BRANCH  22  24
ATOM     24  O   UNL     1       5.154   2.439  19.868  0.00  0.00    +0.000 OA
ATOM     25  H   UNL     1       5.814   1.777  19.595  0.00  0.00    +0.000 HD
ENDBRANCH  22  24
ENDBRANCH  19  22
ENDBRANCH  13  16
ENDBRANCH   3  10
BRANCH   7  26
ATOM     26  C   UNL     1      -0.825  14.349  20.533  0.00  0.00    +0.000 C 
BRANCH  26  27
ATOM     27  C   UNL     1      -1.699  13.885  21.684  0.00  0.00    +0.000 A 
ATOM     28  C   UNL     1      -1.347  12.760  22.443  0.00  0.00    +0.000 A 
ATOM     29  C   UNL     1      -2.208  12.269  23.430  0.00  0.00    +0.000 A 
ATOM     30  C   UNL     1      -3.432  12.898  23.669  0.00  0.00    +0.000 A 
ATOM     31 CL   UNL     1      -4.481  12.195  24.849  0.00  0.00    +0.000 Cl
ATOM     32  C   UNL     1      -3.778  14.042  22.944  0.00  0.00    +0.000 A 
ATOM     33 CL   UNL     1      -5.266  14.885  23.197  0.00  0.00    +0.000 Cl
ATOM     34  C   UNL     1      -2.913  14.534  21.959  0.00  0.00    +0.000 A 
ENDBRANCH  26  27
ENDBRANCH   7  26
TORSDOF 6
ENDMDL
