MODEL 1
REMARK VINA RESULT:      -7.3      0.000      0.000
REMARK  Name = 
REMARK  6 active torsions:
REMARK  status: ('A' for Active; 'I' for Inactive)
REMARK    1  A    between atoms: C_1  and  N_2
REMARK    2  A    between atoms: C_3  and  C_5
REMARK    3  A    between atoms: C_9  and  N_10
REMARK    4  A    between atoms: N_13  and  C_14
REMARK    5  A    between atoms: C_14  and  C_15
REMARK    6  A    between atoms: C_14  and  C_16
REMARK                            x       y       z     vdW  Elec       q    Type
REMARK                         _______ _______ _______ _____ _____    ______ ____
ROOT
ATOM      1  N   UNL     1       4.098   5.622  17.228  0.00  0.00    +0.000 N 
ATOM      2  C   UNL     1       3.869   6.029  18.521  0.00  0.00    +0.000 C 
ATOM      3  O   UNL     1       4.637   5.810  19.448  0.00  0.00    +0.000 OA
ATOM      4  N   UNL     1       2.691   6.713  18.649  0.00  0.00    +0.000 N 
ATOM      5  H   UNL     1       3.387   5.789  16.531  0.00  0.00    +0.000 HD
ATOM      6  H   UNL     1       2.092   6.789  17.844  0.00  0.00    +0.000 HD
ENDROOT
BRANCH   1  11
ATOM      7  C   UNL     1       6.406   5.762  16.258  0.00  0.00    +0.000 C 
ATOM      8  C   UNL     1       7.217   4.786  15.405  0.00  0.00    +0.000 C 
ATOM      9  C   UNL     1       6.164   3.898  14.767  0.00  0.00    +0.000 C 
ATOM     10  C   UNL     1       5.006   3.846  15.758  0.00  0.00    +0.000 C 
ATOM     11  C   UNL     1       5.299   4.886  16.856  0.00  0.00    +0.000 C 
BRANCH   7  14
ATOM     12  C   UNL     1       8.205   8.642  18.006  0.00  0.00    +0.000 C 
ATOM     13  N   UNL     1       7.454   7.849  17.065  0.00  0.00    +0.000 N 
ATOM     14  C   UNL     1       7.293   6.497  17.253  0.00  0.00    +0.000 C 
ATOM     15  O   UNL     1       7.786   5.901  18.210  0.00  0.00    +0.000 OA
ATOM     16  H   UNL     1       7.192   8.276  16.186  0.00  0.00    +0.000 HD
ENDBRANCH   7  14
ENDBRANCH   1  11
BRANCH   4  17
ATOM     17  C   UNL     1       2.219   7.247  19.922  0.00  0.00    +0.000 C 
ATOM     18  C   UNL     1       1.365   6.222  20.682  0.00  0.00    +0.000 C 
BRANCH  17  19
ATOM     19  C   UNL     1       1.437   8.532  19.687  0.00  0.00    +0.000 A 
ATOM     20  C   UNL     1       1.138   8.926  18.365  0.00  0.00    +0.000 A 
ATOM     21  C   UNL     1       0.401  10.081  18.102  0.00  0.00    +0.000 A 
ATOM     22  C   UNL     1      -0.045  10.869  19.156  0.00  0.00    +0.000 A 
ATOM     23 CL   UNL     1      -0.971  12.282  18.829  0.00  0.00    +0.000 Cl
ATOM     24  C   UNL     1       0.244  10.515  20.468  0.00  0.00    +0.000 A 
ATOM     25  C   UNL     1       0.983   9.355  20.734  0.00  0.00    +0.000 A 
ATOM     26 CL   UNL     1       1.292   9.002  22.399  0.00  0.00    +0.000 Cl
ENDBRANCH  17  19
ENDBRANCH   4  17
TORSDOF 4
ENDMDL
MODEL 2
REMARK VINA RESULT:      -7.1      1.185      1.532
REMARK  Name = 
REMARK  6 active torsions:
REMARK  status: ('A' for Active; 'I' for Inactive)
REMARK    1  A    between atoms: C_1  and  N_2
REMARK    2  A    between atoms: C_3  and  C_5
REMARK    3  A    between atoms: C_9  and  N_10
REMARK    4  A    between atoms: N_13  and  C_14
REMARK    5  A    between atoms: C_14  and  C_15
REMARK    6  A    between atoms: C_14  and  C_16
REMARK                            x       y       z     vdW  Elec       q    Type
REMARK                         _______ _______ _______ _____ _____    ______ ____
ROOT
ATOM      1  N   UNL     1       4.127   5.562  17.306  0.00  0.00    +0.000 N 
ATOM      2  C   UNL     1       3.915   5.786  18.646  0.00  0.00    +0.000 C 
ATOM      3  O   UNL     1       4.698   5.449  19.523  0.00  0.00    +0.000 OA
ATOM      4  N   UNL     1       2.734   6.436  18.882  0.00  0.00    +0.000 N 
ATOM      5  H   UNL     1       3.404   5.817  16.649  0.00  0.00    +0.000 HD
ATOM      6  H   UNL     1       2.123   6.617  18.104  0.00  0.00    +0.000 HD
ENDROOT
BRANCH   1  11
ATOM      7  C   UNL     1       6.375   5.847  16.231  0.00  0.00    +0.000 C 
ATOM      8  C   UNL     1       7.165   4.962  15.268  0.00  0.00    +0.000 C 
ATOM      9  C   UNL     1       6.106   4.088  14.621  0.00  0.00    +0.000 C 
ATOM     10  C   UNL     1       5.005   3.927  15.664  0.00  0.00    +0.000 C 
ATOM     11  C   UNL     1       5.327   4.894  16.820  0.00  0.00    +0.000 C 
BRANCH   7  14
ATOM     12  C   UNL     1       8.246   8.644  18.036  0.00  0.00    +0.000 C 
ATOM     13  N   UNL     1       7.465   7.893  17.085  0.00  0.00    +0.000 N 
ATOM     14  C   UNL     1       7.292   6.537  17.231  0.00  0.00    +0.000 C 
ATOM     15  O   UNL     1       7.799   5.902  18.155  0.00  0.00    +0.000 OA
ATOM     16  H   UNL     1       7.188   8.353  16.228  0.00  0.00    +0.000 HD
ENDBRANCH   7  14
ENDBRANCH   1  11
BRANCH   4  17
ATOM     17  C   UNL     1       2.279   6.787  20.224  0.00  0.00    +0.000 C 
ATOM     18  C   UNL     1       1.481   5.643  20.866  0.00  0.00    +0.000 C 
BRANCH  17  19
ATOM     19  C   UNL     1       1.446   8.061  20.172  0.00  0.00    +0.000 A 
ATOM     20  C   UNL     1       0.627   8.396  21.272  0.00  0.00    +0.000 A 
ATOM     21  C   UNL     1      -0.134   9.564  21.280  0.00  0.00    +0.000 A 
ATOM     22  C   UNL     1      -0.096  10.419  20.185  0.00  0.00    +0.000 A 
ATOM     23 CL   UNL     1      -1.020  11.870  20.206  0.00  0.00    +0.000 Cl
ATOM     24  C   UNL     1       0.689  10.110  19.081  0.00  0.00    +0.000 A 
ATOM     25  C   UNL     1       1.454   8.937  19.071  0.00  0.00    +0.000 A 
ATOM     26 CL   UNL     1       2.397   8.642  17.652  0.00  0.00    +0.000 Cl
ENDBRANCH  17  19
ENDBRANCH   4  17
TORSDOF 4
ENDMDL
MODEL 3
REMARK VINA RESULT:      -7.1      2.241      3.586
REMARK  Name = 
REMARK  6 active torsions:
REMARK  status: ('A' for Active; 'I' for Inactive)
REMARK    1  A    between atoms: C_1  and  N_2
REMARK    2  A    between atoms: C_3  and  C_5
REMARK    3  A    between atoms: C_9  and  N_10
REMARK    4  A    between atoms: N_13  and  C_14
REMARK    5  A    between atoms: C_14  and  C_15
REMARK    6  A    between atoms: C_14  and  C_16
REMARK                            x       y       z     vdW  Elec       q    Type
REMARK                         _______ _______ _______ _____ _____    ______ ____
ROOT
ATOM      1  N   UNL     1       3.094   5.325  20.266  0.00  0.00    +0.000 N 
ATOM      2  C   UNL     1       2.414   6.135  19.387  0.00  0.00    +0.000 C 
ATOM      3  O   UNL     1       2.070   5.784  18.267  0.00  0.00    +0.000 OA
ATOM      4  N   UNL     1       2.161   7.372  19.913  0.00  0.00    +0.000 N 
ATOM      5  H   UNL     1       3.396   5.708  21.150  0.00  0.00    +0.000 HD
ATOM      6  H   UNL     1       2.539   7.594  20.819  0.00  0.00    +0.000 HD
ENDROOT
BRANCH   1  11
ATOM      7  C   UNL     1       4.004   3.798  18.497  0.00  0.00    +0.000 C 
ATOM      8  C   UNL     1       3.712   2.335  18.161  0.00  0.00    +0.000 C 
ATOM      9  C   UNL     1       2.340   2.089  18.762  0.00  0.00    +0.000 C 
ATOM     10  C   UNL     1       2.240   3.017  19.968  0.00  0.00    +0.000 C 
ATOM     11  C   UNL     1       3.460   3.957  19.922  0.00  0.00    +0.000 C 
BRANCH   7  14
ATOM     12  C   UNL     1       7.316   4.459  16.716  0.00  0.00    +0.000 C 
ATOM     13  N   UNL     1       5.958   4.077  17.012  0.00  0.00    +0.000 N 
ATOM     14  C   UNL     1       5.475   4.130  18.298  0.00  0.00    +0.000 C 
ATOM     15  O   UNL     1       6.170   4.486  19.249  0.00  0.00    +0.000 OA
ATOM     16  H   UNL     1       5.425   3.617  16.286  0.00  0.00    +0.000 HD
ENDBRANCH   7  14
ENDBRANCH   1  11
BRANCH   4  17
ATOM     17  C   UNL     1       1.455   8.417  19.177  0.00  0.00    +0.000 C 
ATOM     18  C   UNL     1       2.417   9.246  18.313  0.00  0.00    +0.000 C 
BRANCH  17  19
ATOM     19  C   UNL     1       0.696   9.311  20.147  0.00  0.00    +0.000 A 
ATOM     20  C   UNL     1       0.999   9.250  21.524  0.00  0.00    +0.000 A 
ATOM     21  C   UNL     1       0.347  10.069  22.446  0.00  0.00    +0.000 A 
ATOM     22  C   UNL     1      -0.626  10.960  22.010  0.00  0.00    +0.000 A 
ATOM     23 CL   UNL     1      -1.413  11.983  23.148  0.00  0.00    +0.000 Cl
ATOM     24  C   UNL     1      -0.956  11.034  20.663  0.00  0.00    +0.000 A 
ATOM     25  C   UNL     1      -0.303  10.214  19.735  0.00  0.00    +0.000 A 
ATOM     26 CL   UNL     1      -0.785  10.380  18.083  0.00  0.00    +0.000 Cl
ENDBRANCH  17  19
ENDBRANCH   4  17
TORSDOF 4
ENDMDL
MODEL 4
REMARK VINA RESULT:      -7.1      2.201      3.202
REMARK  Name = 
REMARK  6 active torsions:
REMARK  status: ('A' for Active; 'I' for Inactive)
REMARK    1  A    between atoms: C_1  and  N_2
REMARK    2  A    between atoms: C_3  and  C_5
REMARK    3  A    between atoms: C_9  and  N_10
REMARK    4  A    between atoms: N_13  and  C_14
REMARK    5  A    between atoms: C_14  and  C_15
REMARK    6  A    between atoms: C_14  and  C_16
REMARK                            x       y       z     vdW  Elec       q    Type
REMARK                         _______ _______ _______ _____ _____    ______ ____
ROOT
ATOM      1  N   UNL     1       4.575   3.998  15.417  0.00  0.00    +0.000 N 
ATOM      2  C   UNL     1       4.329   3.731  16.743  0.00  0.00    +0.000 C 
ATOM      3  O   UNL     1       5.194   3.393  17.539  0.00  0.00    +0.000 OA
ATOM      4  N   UNL     1       3.011   3.895  17.069  0.00  0.00    +0.000 N 
ATOM      5  H   UNL     1       3.797   4.212  14.810  0.00  0.00    +0.000 HD
ATOM      6  H   UNL     1       2.359   4.113  16.334  0.00  0.00    +0.000 HD
ENDROOT
BRANCH   1  11
ATOM      7  C   UNL     1       6.721   5.199  14.929  0.00  0.00    +0.000 C 
ATOM      8  C   UNL     1       7.728   5.069  13.786  0.00  0.00    +0.000 C 
ATOM      9  C   UNL     1       6.926   4.436  12.663  0.00  0.00    +0.000 C 
ATOM     10  C   UNL     1       5.864   3.577  13.342  0.00  0.00    +0.000 C 
ATOM     11  C   UNL     1       5.913   3.898  14.849  0.00  0.00    +0.000 C 
BRANCH   7  14
ATOM     12  C   UNL     1       7.869   7.081  18.047  0.00  0.00    +0.000 C 
ATOM     13  N   UNL     1       7.315   6.750  16.758  0.00  0.00    +0.000 N 
ATOM     14  C   UNL     1       7.419   5.476  16.253  0.00  0.00    +0.000 C 
ATOM     15  O   UNL     1       7.995   4.572  16.858  0.00  0.00    +0.000 OA
ATOM     16  H   UNL     1       6.996   7.508  16.169  0.00  0.00    +0.000 HD
ENDBRANCH   7  14
ENDBRANCH   1  11
BRANCH   4  17
ATOM     17  C   UNL     1       2.494   3.670  18.416  0.00  0.00    +0.000 C 
ATOM     18  C   UNL     1       1.216   2.819  18.394  0.00  0.00    +0.000 C 
BRANCH  17  19
ATOM     19  C   UNL     1       2.241   5.005  19.103  0.00  0.00    +0.000 A 
ATOM     20  C   UNL     1       2.369   6.199  18.361  0.00  0.00    +0.000 A 
ATOM     21  C   UNL     1       2.122   7.443  18.941  0.00  0.00    +0.000 A 
ATOM     22  C   UNL     1       1.748   7.518  20.278  0.00  0.00    +0.000 A 
ATOM     23 CL   UNL     1       1.424   9.053  20.985  0.00  0.00    +0.000 Cl
ATOM     24  C   UNL     1       1.627   6.362  21.038  0.00  0.00    +0.000 A 
ATOM     25  C   UNL     1       1.874   5.112  20.457  0.00  0.00    +0.000 A 
ATOM     26 CL   UNL     1       1.698   3.734  21.487  0.00  0.00    +0.000 Cl
ENDBRANCH  17  19
ENDBRANCH   4  17
TORSDOF 4
ENDMDL
MODEL 5
REMARK VINA RESULT:      -6.9      0.988      1.079
REMARK  Name = 
REMARK  6 active torsions:
REMARK  status: ('A' for Active; 'I' for Inactive)
REMARK    1  A    between atoms: C_1  and  N_2
REMARK    2  A    between atoms: C_3  and  C_5
REMARK    3  A    between atoms: C_9  and  N_10
REMARK    4  A    between atoms: N_13  and  C_14
REMARK    5  A    between atoms: C_14  and  C_15
REMARK    6  A    between atoms: C_14  and  C_16
REMARK                            x       y       z     vdW  Elec       q    Type
REMARK                         _______ _______ _______ _____ _____    ______ ____
ROOT
ATOM      1  N   UNL     1       4.062   5.834  17.254  0.00  0.00    +0.000 N 
ATOM      2  C   UNL     1       3.760   6.120  18.564  0.00  0.00    +0.000 C 
ATOM      3  O   UNL     1       4.387   5.681  19.518  0.00  0.00    +0.000 OA
ATOM      4  N   UNL     1       2.683   6.958  18.676  0.00  0.00    +0.000 N 
ATOM      5  H   UNL     1       3.460   6.187  16.525  0.00  0.00    +0.000 HD
ATOM      6  H   UNL     1       2.190   7.217  17.839  0.00  0.00    +0.000 HD
ENDROOT
BRANCH   1  11
ATOM      7  C   UNL     1       6.476   5.726  16.580  0.00  0.00    +0.000 C 
ATOM      8  C   UNL     1       7.239   4.766  15.667  0.00  0.00    +0.000 C 
ATOM      9  C   UNL     1       6.162   4.175  14.775  0.00  0.00    +0.000 C 
ATOM     10  C   UNL     1       4.885   4.171  15.611  0.00  0.00    +0.000 C 
ATOM     11  C   UNL     1       5.179   4.969  16.896  0.00  0.00    +0.000 C 
BRANCH   7  14
ATOM     12  C   UNL     1       8.237   5.527  19.963  0.00  0.00    +0.000 C 
ATOM     13  N   UNL     1       7.393   5.257  18.826  0.00  0.00    +0.000 N 
ATOM     14  C   UNL     1       7.319   6.142  17.776  0.00  0.00    +0.000 C 
ATOM     15  O   UNL     1       7.947   7.200  17.761  0.00  0.00    +0.000 OA
ATOM     16  H   UNL     1       6.737   4.490  18.892  0.00  0.00    +0.000 HD
ENDBRANCH   7  14
ENDBRANCH   1  11
BRANCH   4  17
ATOM     17  C   UNL     1       2.162   7.409  19.963  0.00  0.00    +0.000 C 
ATOM     18  C   UNL     1       1.327   6.316  20.646  0.00  0.00    +0.000 C 
BRANCH  17  19
ATOM     19  C   UNL     1       1.339   8.676  19.773  0.00  0.00    +0.000 A 
ATOM     20  C   UNL     1       0.992   9.084  18.467  0.00  0.00    +0.000 A 
ATOM     21  C   UNL     1       0.218  10.223  18.245  0.00  0.00    +0.000 A 
ATOM     22  C   UNL     1      -0.219  10.980  19.325  0.00  0.00    +0.000 A 
ATOM     23 CL   UNL     1      -1.191  12.373  19.050  0.00  0.00    +0.000 Cl
ATOM     24  C   UNL     1       0.117  10.612  20.622  0.00  0.00    +0.000 A 
ATOM     25  C   UNL     1       0.893   9.468  20.846  0.00  0.00    +0.000 A 
ATOM     26 CL   UNL     1       1.258   9.094  22.495  0.00  0.00    +0.000 Cl
ENDBRANCH  17  19
ENDBRANCH   4  17
TORSDOF 4
ENDMDL
MODEL 6
REMARK VINA RESULT:      -6.8      2.419      3.151
REMARK  Name = 
REMARK  6 active torsions:
REMARK  status: ('A' for Active; 'I' for Inactive)
REMARK    1  A    between atoms: C_1  and  N_2
REMARK    2  A    between atoms: C_3  and  C_5
REMARK    3  A    between atoms: C_9  and  N_10
REMARK    4  A    between atoms: N_13  and  C_14
REMARK    5  A    between atoms: C_14  and  C_15
REMARK    6  A    between atoms: C_14  and  C_16
REMARK                            x       y       z     vdW  Elec       q    Type
REMARK                         _______ _______ _______ _____ _____    ______ ____
ROOT
ATOM      1  N   UNL     1       3.002   7.362  17.825  0.00  0.00    +0.000 N 
ATOM      2  C   UNL     1       2.172   8.013  18.707  0.00  0.00    +0.000 C 
ATOM      3  O   UNL     1       1.865   7.569  19.805  0.00  0.00    +0.000 OA
ATOM      4  N   UNL     1       1.736   9.214  18.218  0.00  0.00    +0.000 N 
ATOM      5  H   UNL     1       3.158   7.766  16.914  0.00  0.00    +0.000 HD
ATOM      6  H   UNL     1       1.988   9.468  17.278  0.00  0.00    +0.000 HD
ENDROOT
BRANCH   1  11
ATOM      7  C   UNL     1       4.841   5.736  17.312  0.00  0.00    +0.000 C 
ATOM      8  C   UNL     1       4.887   4.208  17.328  0.00  0.00    +0.000 C 
ATOM      9  C   UNL     1       3.432   3.796  17.190  0.00  0.00    +0.000 C 
ATOM     10  C   UNL     1       2.620   4.913  17.838  0.00  0.00    +0.000 C 
ATOM     11  C   UNL     1       3.594   6.068  18.141  0.00  0.00    +0.000 C 
BRANCH   7  14
ATOM     12  C   UNL     1       7.816   8.117  17.561  0.00  0.00    +0.000 C 
ATOM     13  N   UNL     1       6.628   7.430  17.118  0.00  0.00    +0.000 N 
ATOM     14  C   UNL     1       6.152   6.336  17.799  0.00  0.00    +0.000 C 
ATOM     15  O   UNL     1       6.713   5.884  18.797  0.00  0.00    +0.000 OA
ATOM     16  H   UNL     1       6.252   7.668  16.209  0.00  0.00    +0.000 HD
ENDBRANCH   7  14
ENDBRANCH   1  11
BRANCH   4  17
ATOM     17  C   UNL     1       0.841  10.094  18.963  0.00  0.00    +0.000 C 
ATOM     18  C   UNL     1      -0.542  10.183  18.301  0.00  0.00    +0.000 C 
BRANCH  17  19
ATOM     19  C   UNL     1       1.465  11.477  19.094  0.00  0.00    +0.000 A 
ATOM     20  C   UNL     1       2.352  11.931  18.095  0.00  0.00    +0.000 A 
ATOM     21  C   UNL     1       2.928  13.200  18.159  0.00  0.00    +0.000 A 
ATOM     22  C   UNL     1       2.633  14.037  19.228  0.00  0.00    +0.000 A 
ATOM     23 CL   UNL     1       3.329  15.610  19.294  0.00  0.00    +0.000 Cl
ATOM     24  C   UNL     1       1.775  13.614  20.235  0.00  0.00    +0.000 A 
ATOM     25  C   UNL     1       1.196  12.340  20.172  0.00  0.00    +0.000 A 
ATOM     26 CL   UNL     1       0.143  11.906  21.474  0.00  0.00    +0.000 Cl
ENDBRANCH  17  19
ENDBRANCH   4  17
TORSDOF 4
ENDMDL
MODEL 7
REMARK VINA RESULT:      -6.6      3.813      8.001
REMARK  Name = 
REMARK  6 active torsions:
REMARK  status: ('A' for Active; 'I' for Inactive)
REMARK    1  A    between atoms: C_1  and  N_2
REMARK    2  A    between atoms: C_3  and  C_5
REMARK    3  A    between atoms: C_9  and  N_10
REMARK    4  A    between atoms: N_13  and  C_14
REMARK    5  A    between atoms: C_14  and  C_15
REMARK    6  A    between atoms: C_14  and  C_16
REMARK                            x       y       z     vdW  Elec       q    Type
REMARK                         _______ _______ _______ _____ _____    ______ ____
ROOT
ATOM      1  N   UNL     1       0.996   9.439  18.029  0.00  0.00    +0.000 N 
ATOM      2  C   UNL     1       1.963   8.578  18.491  0.00  0.00    +0.000 C 
ATOM      3  O   UNL     1       2.105   8.285  19.670  0.00  0.00    +0.000 OA
ATOM      4  N   UNL     1       2.742   8.084  17.480  0.00  0.00    +0.000 N 
ATOM      5  H   UNL     1       0.983   9.678  17.048  0.00  0.00    +0.000 HD
ATOM      6  H   UNL     1       2.594   8.431  16.548  0.00  0.00    +0.000 HD
ENDROOT
BRANCH   1  11
ATOM      7  C   UNL     1      -0.760  11.212  18.281  0.00  0.00    +0.000 C 
ATOM      8  C   UNL     1      -1.161  12.092  19.465  0.00  0.00    +0.000 C 
ATOM      9  C   UNL     1       0.071  12.095  20.352  0.00  0.00    +0.000 C 
ATOM     10  C   UNL     1       0.757  10.752  20.117  0.00  0.00    +0.000 C 
ATOM     11  C   UNL     1       0.044  10.078  18.929  0.00  0.00    +0.000 C 
BRANCH   7  14
ATOM     12  C   UNL     1      -4.163  11.418  16.561  0.00  0.00    +0.000 C 
ATOM     13  N   UNL     1      -3.010  11.692  17.381  0.00  0.00    +0.000 N 
ATOM     14  C   UNL     1      -1.975  10.793  17.465  0.00  0.00    +0.000 C 
ATOM     15  O   UNL     1      -1.985   9.718  16.866  0.00  0.00    +0.000 OA
ATOM     16  H   UNL     1      -3.055  12.478  18.017  0.00  0.00    +0.000 HD
ENDBRANCH   7  14
ENDBRANCH   1  11
BRANCH   4  17
ATOM     17  C   UNL     1       3.841   7.151  17.712  0.00  0.00    +0.000 C 
ATOM     18  C   UNL     1       4.736   7.017  16.471  0.00  0.00    +0.000 C 
BRANCH  17  19
ATOM     19  C   UNL     1       3.290   5.794  18.127  0.00  0.00    +0.000 A 
ATOM     20  C   UNL     1       1.989   5.424  17.723  0.00  0.00    +0.000 A 
ATOM     21  C   UNL     1       1.453   4.181  18.059  0.00  0.00    +0.000 A 
ATOM     22  C   UNL     1       2.204   3.286  18.811  0.00  0.00    +0.000 A 
ATOM     23 CL   UNL     1       1.547   1.745  19.206  0.00  0.00    +0.000 Cl
ATOM     24  C   UNL     1       3.483   3.626  19.235  0.00  0.00    +0.000 A 
ATOM     25  C   UNL     1       4.023   4.874  18.899  0.00  0.00    +0.000 A 
ATOM     26 CL   UNL     1       5.620   5.203  19.475  0.00  0.00    +0.000 Cl
ENDBRANCH  17  19
ENDBRANCH   4  17
TORSDOF 4
ENDMDL
MODEL 8
REMARK VINA RESULT:      -6.6      2.952      4.823
REMARK  Name = 
REMARK  6 active torsions:
REMARK  status: ('A' for Active; 'I' for Inactive)
REMARK    1  A    between atoms: C_1  and  N_2
REMARK    2  A    between atoms: C_3  and  C_5
REMARK    3  A    between atoms: C_9  and  N_10
REMARK    4  A    between atoms: N_13  and  C_14
REMARK    5  A    between atoms: C_14  and  C_15
REMARK    6  A    between atoms: C_14  and  C_16
REMARK                            x       y       z     vdW  Elec       q    Type
REMARK                         _______ _______ _______ _____ _____    ______ ____
ROOT
ATOM      1  N   UNL     1       2.487   7.398  18.708  0.00  0.00    +0.000 N 
ATOM      2  C   UNL     1       2.017   8.599  18.232  0.00  0.00    +0.000 C 
ATOM      3  O   UNL     1       2.140   8.965  17.071  0.00  0.00    +0.000 OA
ATOM      4  N   UNL     1       1.389   9.331  19.202  0.00  0.00    +0.000 N 
ATOM      5  H   UNL     1       2.399   7.196  19.693  0.00  0.00    +0.000 HD
ATOM      6  H   UNL     1       1.391   8.979  20.144  0.00  0.00    +0.000 HD
ENDROOT
BRANCH   1  11
ATOM      7  C   UNL     1       3.243   5.026  18.412  0.00  0.00    +0.000 C 
ATOM      8  C   UNL     1       4.475   4.423  17.735  0.00  0.00    +0.000 C 
ATOM      9  C   UNL     1       5.480   5.560  17.725  0.00  0.00    +0.000 C 
ATOM     10  C   UNL     1       4.657   6.843  17.648  0.00  0.00    +0.000 C 
ATOM     11  C   UNL     1       3.181   6.450  17.846  0.00  0.00    +0.000 C 
BRANCH   7  14
ATOM     12  C   UNL     1       0.719   2.202  18.896  0.00  0.00    +0.000 C 
ATOM     13  N   UNL     1       1.893   3.034  18.973  0.00  0.00    +0.000 N 
ATOM     14  C   UNL     1       2.011   4.160  18.194  0.00  0.00    +0.000 C 
ATOM     15  O   UNL     1       1.141   4.502  17.393  0.00  0.00    +0.000 OA
ATOM     16  H   UNL     1       2.692   2.684  19.485  0.00  0.00    +0.000 HD
ENDBRANCH   7  14
ENDBRANCH   1  11
BRANCH   4  17
ATOM     17  C   UNL     1       0.805  10.645  18.949  0.00  0.00    +0.000 C 
ATOM     18  C   UNL     1       1.889  11.717  18.765  0.00  0.00    +0.000 C 
BRANCH  17  19
ATOM     19  C   UNL     1      -0.136  11.021  20.086  0.00  0.00    +0.000 A 
ATOM     20  C   UNL     1       0.181  10.627  21.403  0.00  0.00    +0.000 A 
ATOM     21  C   UNL     1      -0.637  10.970  22.479  0.00  0.00    +0.000 A 
ATOM     22  C   UNL     1      -1.793  11.710  22.258  0.00  0.00    +0.000 A 
ATOM     23 CL   UNL     1      -2.790  12.150  23.590  0.00  0.00    +0.000 Cl
ATOM     24  C   UNL     1      -2.139  12.101  20.970  0.00  0.00    +0.000 A 
ATOM     25  C   UNL     1      -1.319  11.758  19.889  0.00  0.00    +0.000 A 
ATOM     26 CL   UNL     1      -1.836  12.291  18.328  0.00  0.00    +0.000 Cl
ENDBRANCH  17  19
ENDBRANCH   4  17
TORSDOF 4
ENDMDL
MODEL 9
REMARK VINA RESULT:      -6.6      2.187      3.239
REMARK  Name = 
REMARK  6 active torsions:
REMARK  status: ('A' for Active; 'I' for Inactive)
REMARK    1  A    between atoms: C_1  and  N_2
REMARK    2  A    between atoms: C_3  and  C_5
REMARK    3  A    between atoms: C_9  and  N_10
REMARK    4  A    between atoms: N_13  and  C_14
REMARK    5  A    between atoms: C_14  and  C_15
REMARK    6  A    between atoms: C_14  and  C_16
REMARK                            x       y       z     vdW  Elec       q    Type
REMARK                         _______ _______ _______ _____ _____    ______ ____
ROOT
ATOM      1  N   UNL     1       2.551   6.899  18.102  0.00  0.00    +0.000 N 
ATOM      2  C   UNL     1       1.990   7.672  19.091  0.00  0.00    +0.000 C 
ATOM      3  O   UNL     1       1.808   7.283  20.236  0.00  0.00    +0.000 OA
ATOM      4  N   UNL     1       1.668   8.926  18.648  0.00  0.00    +0.000 N 
ATOM      5  H   UNL     1       2.612   7.272  17.166  0.00  0.00    +0.000 HD
ATOM      6  H   UNL     1       1.794   9.136  17.672  0.00  0.00    +0.000 HD
ENDROOT
BRANCH   1  11
ATOM      7  C   UNL     1       3.972   4.990  17.310  0.00  0.00    +0.000 C 
ATOM      8  C   UNL     1       3.779   3.475  17.380  0.00  0.00    +0.000 C 
ATOM      9  C   UNL     1       2.280   3.305  17.544  0.00  0.00    +0.000 C 
ATOM     10  C   UNL     1       1.798   4.545  18.289  0.00  0.00    +0.000 C 
ATOM     11  C   UNL     1       2.982   5.529  18.350  0.00  0.00    +0.000 C 
BRANCH   7  14
ATOM     12  C   UNL     1       7.743   4.610  17.774  0.00  0.00    +0.000 C 
ATOM     13  N   UNL     1       6.330   4.346  17.666  0.00  0.00    +0.000 N 
ATOM     14  C   UNL     1       5.431   5.374  17.509  0.00  0.00    +0.000 C 
ATOM     15  O   UNL     1       5.779   6.553  17.470  0.00  0.00    +0.000 OA
ATOM     16  H   UNL     1       6.004   3.410  17.871  0.00  0.00    +0.000 HD
ENDBRANCH   7  14
ENDBRANCH   1  11
BRANCH   4  17
ATOM     17  C   UNL     1       1.056   9.936  19.506  0.00  0.00    +0.000 C 
ATOM     18  C   UNL     1       0.827   9.402  20.928  0.00  0.00    +0.000 C 
BRANCH  17  19
ATOM     19  C   UNL     1      -0.253  10.414  18.893  0.00  0.00    +0.000 A 
ATOM     20  C   UNL     1      -0.795   9.716  17.793  0.00  0.00    +0.000 A 
ATOM     21  C   UNL     1      -2.004  10.101  17.214  0.00  0.00    +0.000 A 
ATOM     22  C   UNL     1      -2.692  11.197  17.721  0.00  0.00    +0.000 A 
ATOM     23 CL   UNL     1      -4.194  11.658  17.018  0.00  0.00    +0.000 Cl
ATOM     24  C   UNL     1      -2.178  11.913  18.795  0.00  0.00    +0.000 A 
ATOM     25  C   UNL     1      -0.964  11.527  19.377  0.00  0.00    +0.000 A 
ATOM     26 CL   UNL     1      -0.408  12.483  20.707  0.00  0.00    +0.000 Cl
ENDBRANCH  17  19
ENDBRANCH   4  17
TORSDOF 4
ENDMDL
