MODEL 1
REMARK VINA RESULT:      -8.0      0.000      0.000
REMARK  Name = 
REMARK  3 active torsions:
REMARK  status: ('A' for Active; 'I' for Inactive)
REMARK    1  A    between atoms: C_1  and  N_2
REMARK    2  A    between atoms: C_4  and  C_5
REMARK    3  A    between atoms: N_15  and  C_16
REMARK                            x       y       z     vdW  Elec       q    Type
REMARK                         _______ _______ _______ _____ _____    ______ ____
ROOT
ATOM      1  C   UNL     1       7.070   5.617  19.161  0.00  0.00    +0.000 C 
ATOM      2  N   UNL     1       6.178   5.041  18.169  0.00  0.00    +0.000 N 
ATOM      3  N   UNL     1       6.662   4.965  16.896  0.00  0.00    +0.000 NA
ATOM      4  C   UNL     1       5.866   4.529  15.962  0.00  0.00    +0.000 A 
ATOM      5  N   UNL     1       4.569   4.120  16.167  0.00  0.00    +0.000 NA
ATOM      6  C   UNL     1       4.092   4.140  17.369  0.00  0.00    +0.000 A 
ATOM      7  C   UNL     1       2.702   3.651  17.649  0.00  0.00    +0.000 A 
ATOM      8  O   UNL     1       2.013   3.215  16.737  0.00  0.00    +0.000 OA
ATOM      9  N   UNL     1       2.329   3.740  18.974  0.00  0.00    +0.000 N 
ATOM     10  C   UNL     1       1.004   3.290  19.354  0.00  0.00    +0.000 C 
ATOM     11  C   UNL     1       3.138   4.250  19.985  0.00  0.00    +0.000 A 
ATOM     12  O   UNL     1       2.718   4.324  21.139  0.00  0.00    +0.000 OA
ATOM     13  N   UNL     1       4.410   4.671  19.701  0.00  0.00    +0.000 NA
ATOM     14  C   UNL     1       4.909   4.637  18.512  0.00  0.00    +0.000 A 
ENDROOT
BRANCH   4  15
ATOM     15  C   UNL     1       6.352   4.434  14.557  0.00  0.00    +0.000 A 
ATOM     16  C   UNL     1       5.724   3.562  13.658  0.00  0.00    +0.000 A 
ATOM     17  C   UNL     1       6.160   3.494  12.335  0.00  0.00    +0.000 A 
ATOM     18  C   UNL     1       7.231   4.280  11.910  0.00  0.00    +0.000 A 
ATOM     19  C   UNL     1       7.868   5.139  12.807  0.00  0.00    +0.000 A 
ATOM     20  C   UNL     1       7.427   5.221  14.127  0.00  0.00    +0.000 A 
ENDBRANCH   4  15
TORSDOF 1
ENDMDL
MODEL 2
REMARK VINA RESULT:      -8.0      0.057      1.084
REMARK  Name = 
REMARK  3 active torsions:
REMARK  status: ('A' for Active; 'I' for Inactive)
REMARK    1  A    between atoms: C_1  and  N_2
REMARK    2  A    between atoms: C_4  and  C_5
REMARK    3  A    between atoms: N_15  and  C_16
REMARK                            x       y       z     vdW  Elec       q    Type
REMARK                         _______ _______ _______ _____ _____    ______ ____
ROOT
ATOM      1  C   UNL     1       7.118   5.578  19.100  0.00  0.00    +0.000 C 
ATOM      2  N   UNL     1       6.208   5.018  18.114  0.00  0.00    +0.000 N 
ATOM      3  N   UNL     1       6.676   4.948  16.834  0.00  0.00    +0.000 NA
ATOM      4  C   UNL     1       5.864   4.527  15.907  0.00  0.00    +0.000 A 
ATOM      5  N   UNL     1       4.567   4.128  16.125  0.00  0.00    +0.000 NA
ATOM      6  C   UNL     1       4.104   4.142  17.333  0.00  0.00    +0.000 A 
ATOM      7  C   UNL     1       2.713   3.663  17.625  0.00  0.00    +0.000 A 
ATOM      8  O   UNL     1       2.009   3.240  16.719  0.00  0.00    +0.000 OA
ATOM      9  N   UNL     1       2.357   3.745  18.956  0.00  0.00    +0.000 N 
ATOM     10  C   UNL     1       1.034   3.304  19.349  0.00  0.00    +0.000 C 
ATOM     11  C   UNL     1       3.184   4.240  19.961  0.00  0.00    +0.000 A 
ATOM     12  O   UNL     1       2.779   4.308  21.121  0.00  0.00    +0.000 OA
ATOM     13  N   UNL     1       4.456   4.652  19.664  0.00  0.00    +0.000 NA
ATOM     14  C   UNL     1       4.939   4.623  18.469  0.00  0.00    +0.000 A 
ENDROOT
BRANCH   4  15
ATOM     15  C   UNL     1       6.333   4.437  14.495  0.00  0.00    +0.000 A 
ATOM     16  C   UNL     1       7.397   5.237  14.060  0.00  0.00    +0.000 A 
ATOM     17  C   UNL     1       7.856   5.133  12.747  0.00  0.00    +0.000 A 
ATOM     18  C   UNL     1       7.244   4.244  11.862  0.00  0.00    +0.000 A 
ATOM     19  C   UNL     1       6.174   3.456  12.288  0.00  0.00    +0.000 A 
ATOM     20  C   UNL     1       5.721   3.547  13.604  0.00  0.00    +0.000 A 
ENDBRANCH   4  15
TORSDOF 1
ENDMDL
MODEL 3
REMARK VINA RESULT:      -7.6      2.367      6.118
REMARK  Name = 
REMARK  3 active torsions:
REMARK  status: ('A' for Active; 'I' for Inactive)
REMARK    1  A    between atoms: C_1  and  N_2
REMARK    2  A    between atoms: C_4  and  C_5
REMARK    3  A    between atoms: N_15  and  C_16
REMARK                            x       y       z     vdW  Elec       q    Type
REMARK                         _______ _______ _______ _____ _____    ______ ____
ROOT
ATOM      1  C   UNL     1       7.338   6.472  18.070  0.00  0.00    +0.000 C 
ATOM      2  N   UNL     1       6.373   5.684  17.321  0.00  0.00    +0.000 N 
ATOM      3  N   UNL     1       5.270   5.269  18.010  0.00  0.00    +0.000 NA
ATOM      4  C   UNL     1       4.421   4.494  17.398  0.00  0.00    +0.000 A 
ATOM      5  N   UNL     1       4.543   4.073  16.095  0.00  0.00    +0.000 NA
ATOM      6  C   UNL     1       5.555   4.482  15.400  0.00  0.00    +0.000 A 
ATOM      7  C   UNL     1       5.700   4.093  13.958  0.00  0.00    +0.000 A 
ATOM      8  O   UNL     1       4.849   3.395  13.425  0.00  0.00    +0.000 OA
ATOM      9  N   UNL     1       6.832   4.597  13.351  0.00  0.00    +0.000 N 
ATOM     10  C   UNL     1       7.067   4.285  11.954  0.00  0.00    +0.000 C 
ATOM     11  C   UNL     1       7.784   5.384  13.992  0.00  0.00    +0.000 A 
ATOM     12  O   UNL     1       8.783   5.769  13.385  0.00  0.00    +0.000 OA
ATOM     13  N   UNL     1       7.613   5.737  15.304  0.00  0.00    +0.000 NA
ATOM     14  C   UNL     1       6.599   5.357  16.004  0.00  0.00    +0.000 A 
ENDROOT
BRANCH   4  15
ATOM     15  C   UNL     1       3.205   4.014  18.114  0.00  0.00    +0.000 A 
ATOM     16  C   UNL     1       2.616   2.797  17.751  0.00  0.00    +0.000 A 
ATOM     17  C   UNL     1       1.495   2.333  18.441  0.00  0.00    +0.000 A 
ATOM     18  C   UNL     1       0.952   3.089  19.480  0.00  0.00    +0.000 A 
ATOM     19  C   UNL     1       1.528   4.309  19.835  0.00  0.00    +0.000 A 
ATOM     20  C   UNL     1       2.657   4.770  19.158  0.00  0.00    +0.000 A 
ENDBRANCH   4  15
TORSDOF 1
ENDMDL
MODEL 4
REMARK VINA RESULT:      -7.6      2.353      6.180
REMARK  Name = 
REMARK  3 active torsions:
REMARK  status: ('A' for Active; 'I' for Inactive)
REMARK    1  A    between atoms: C_1  and  N_2
REMARK    2  A    between atoms: C_4  and  C_5
REMARK    3  A    between atoms: N_15  and  C_16
REMARK                            x       y       z     vdW  Elec       q    Type
REMARK                         _______ _______ _______ _____ _____    ______ ____
ROOT
ATOM      1  C   UNL     1       7.344   6.487  18.101  0.00  0.00    +0.000 C 
ATOM      2  N   UNL     1       6.380   5.692  17.357  0.00  0.00    +0.000 N 
ATOM      3  N   UNL     1       5.283   5.271  18.052  0.00  0.00    +0.000 NA
ATOM      4  C   UNL     1       4.436   4.490  17.445  0.00  0.00    +0.000 A 
ATOM      5  N   UNL     1       4.555   4.069  16.141  0.00  0.00    +0.000 NA
ATOM      6  C   UNL     1       5.561   4.483  15.441  0.00  0.00    +0.000 A 
ATOM      7  C   UNL     1       5.701   4.094  13.999  0.00  0.00    +0.000 A 
ATOM      8  O   UNL     1       4.853   3.390  13.471  0.00  0.00    +0.000 OA
ATOM      9  N   UNL     1       6.827   4.604  13.386  0.00  0.00    +0.000 N 
ATOM     10  C   UNL     1       7.058   4.292  11.989  0.00  0.00    +0.000 C 
ATOM     11  C   UNL     1       7.778   5.397  14.022  0.00  0.00    +0.000 A 
ATOM     12  O   UNL     1       8.771   5.788  13.410  0.00  0.00    +0.000 OA
ATOM     13  N   UNL     1       7.610   5.751  15.335  0.00  0.00    +0.000 NA
ATOM     14  C   UNL     1       6.602   5.365  16.040  0.00  0.00    +0.000 A 
ENDROOT
BRANCH   4  15
ATOM     15  C   UNL     1       3.227   4.004  18.167  0.00  0.00    +0.000 A 
ATOM     16  C   UNL     1       2.692   4.756  19.220  0.00  0.00    +0.000 A 
ATOM     17  C   UNL     1       1.543   4.317  19.876  0.00  0.00    +0.000 A 
ATOM     18  C   UNL     1       0.935   3.120  19.496  0.00  0.00    +0.000 A 
ATOM     19  C   UNL     1       1.472   2.361  18.456  0.00  0.00    +0.000 A 
ATOM     20  C   UNL     1       2.613   2.803  17.787  0.00  0.00    +0.000 A 
ENDBRANCH   4  15
TORSDOF 1
ENDMDL
MODEL 5
REMARK VINA RESULT:      -7.3      3.708      4.518
REMARK  Name = 
REMARK  3 active torsions:
REMARK  status: ('A' for Active; 'I' for Inactive)
REMARK    1  A    between atoms: C_1  and  N_2
REMARK    2  A    between atoms: C_4  and  C_5
REMARK    3  A    between atoms: N_15  and  C_16
REMARK                            x       y       z     vdW  Elec       q    Type
REMARK                         _______ _______ _______ _____ _____    ______ ____
ROOT
ATOM      1  C   UNL     1       2.385   4.720  21.147  0.00  0.00    +0.000 C 
ATOM      2  N   UNL     1       2.612   5.572  19.991  0.00  0.00    +0.000 N 
ATOM      3  N   UNL     1       3.407   5.056  19.010  0.00  0.00    +0.000 NA
ATOM      4  C   UNL     1       3.700   5.817  17.995  0.00  0.00    +0.000 A 
ATOM      5  N   UNL     1       3.251   7.105  17.827  0.00  0.00    +0.000 NA
ATOM      6  C   UNL     1       2.461   7.612  18.718  0.00  0.00    +0.000 A 
ATOM      7  C   UNL     1       1.902   8.993  18.549  0.00  0.00    +0.000 A 
ATOM      8  O   UNL     1       2.181   9.648  17.554  0.00  0.00    +0.000 OA
ATOM      9  N   UNL     1       1.083   9.400  19.582  0.00  0.00    +0.000 N 
ATOM     10  C   UNL     1       0.486  10.719  19.516  0.00  0.00    +0.000 C 
ATOM     11  C   UNL     1       0.794   8.630  20.705  0.00  0.00    +0.000 A 
ATOM     12  O   UNL     1       0.077   9.079  21.598  0.00  0.00    +0.000 OA
ATOM     13  N   UNL     1       1.305   7.364  20.820  0.00  0.00    +0.000 NA
ATOM     14  C   UNL     1       2.075   6.837  19.931  0.00  0.00    +0.000 A 
ENDROOT
BRANCH   4  15
ATOM     15  C   UNL     1       4.568   5.295  16.902  0.00  0.00    +0.000 A 
ATOM     16  C   UNL     1       4.820   3.920  16.806  0.00  0.00    +0.000 A 
ATOM     17  C   UNL     1       5.608   3.428  15.766  0.00  0.00    +0.000 A 
ATOM     18  C   UNL     1       6.159   4.304  14.831  0.00  0.00    +0.000 A 
ATOM     19  C   UNL     1       5.922   5.676  14.932  0.00  0.00    +0.000 A 
ATOM     20  C   UNL     1       5.123   6.171  15.962  0.00  0.00    +0.000 A 
ENDBRANCH   4  15
TORSDOF 1
ENDMDL
MODEL 6
REMARK VINA RESULT:      -7.3      3.722      4.608
REMARK  Name = 
REMARK  3 active torsions:
REMARK  status: ('A' for Active; 'I' for Inactive)
REMARK    1  A    between atoms: C_1  and  N_2
REMARK    2  A    between atoms: C_4  and  C_5
REMARK    3  A    between atoms: N_15  and  C_16
REMARK                            x       y       z     vdW  Elec       q    Type
REMARK                         _______ _______ _______ _____ _____    ______ ____
ROOT
ATOM      1  C   UNL     1       2.400   4.756  21.148  0.00  0.00    +0.000 C 
ATOM      2  N   UNL     1       2.618   5.597  19.982  0.00  0.00    +0.000 N 
ATOM      3  N   UNL     1       3.400   5.068  18.997  0.00  0.00    +0.000 NA
ATOM      4  C   UNL     1       3.686   5.819  17.971  0.00  0.00    +0.000 A 
ATOM      5  N   UNL     1       3.240   7.108  17.797  0.00  0.00    +0.000 NA
ATOM      6  C   UNL     1       2.462   7.625  18.692  0.00  0.00    +0.000 A 
ATOM      7  C   UNL     1       1.907   9.008  18.516  0.00  0.00    +0.000 A 
ATOM      8  O   UNL     1       2.178   9.652  17.512  0.00  0.00    +0.000 OA
ATOM      9  N   UNL     1       1.101   9.427  19.554  0.00  0.00    +0.000 N 
ATOM     10  C   UNL     1       0.508  10.748  19.483  0.00  0.00    +0.000 C 
ATOM     11  C   UNL     1       0.820   8.668  20.687  0.00  0.00    +0.000 A 
ATOM     12  O   UNL     1       0.114   9.128  21.584  0.00  0.00    +0.000 OA
ATOM     13  N   UNL     1       1.327   7.402  20.808  0.00  0.00    +0.000 NA
ATOM     14  C   UNL     1       2.085   6.863  19.916  0.00  0.00    +0.000 A 
ENDROOT
BRANCH   4  15
ATOM     15  C   UNL     1       4.540   5.284  16.874  0.00  0.00    +0.000 A 
ATOM     16  C   UNL     1       5.139   6.162  15.963  0.00  0.00    +0.000 A 
ATOM     17  C   UNL     1       5.963   5.664  14.954  0.00  0.00    +0.000 A 
ATOM     18  C   UNL     1       6.177   4.290  14.842  0.00  0.00    +0.000 A 
ATOM     19  C   UNL     1       5.571   3.410  15.740  0.00  0.00    +0.000 A 
ATOM     20  C   UNL     1       4.758   3.905  16.759  0.00  0.00    +0.000 A 
ENDBRANCH   4  15
TORSDOF 1
ENDMDL
MODEL 7
REMARK VINA RESULT:      -7.1      1.475      1.884
REMARK  Name = 
REMARK  3 active torsions:
REMARK  status: ('A' for Active; 'I' for Inactive)
REMARK    1  A    between atoms: C_1  and  N_2
REMARK    2  A    between atoms: C_4  and  C_5
REMARK    3  A    between atoms: N_15  and  C_16
REMARK                            x       y       z     vdW  Elec       q    Type
REMARK                         _______ _______ _______ _____ _____    ______ ____
ROOT
ATOM      1  C   UNL     1       4.209   7.865  17.529  0.00  0.00    +0.000 C 
ATOM      2  N   UNL     1       4.366   6.457  17.203  0.00  0.00    +0.000 N 
ATOM      3  N   UNL     1       5.015   6.178  16.036  0.00  0.00    +0.000 NA
ATOM      4  C   UNL     1       5.106   4.933  15.667  0.00  0.00    +0.000 A 
ATOM      5  N   UNL     1       4.610   3.867  16.380  0.00  0.00    +0.000 NA
ATOM      6  C   UNL     1       4.025   4.092  17.513  0.00  0.00    +0.000 A 
ATOM      7  C   UNL     1       3.518   2.957  18.351  0.00  0.00    +0.000 A 
ATOM      8  O   UNL     1       3.667   1.803  17.972  0.00  0.00    +0.000 OA
ATOM      9  N   UNL     1       2.911   3.351  19.526  0.00  0.00    +0.000 N 
ATOM     10  C   UNL     1       2.389   2.331  20.413  0.00  0.00    +0.000 C 
ATOM     11  C   UNL     1       2.752   4.676  19.921  0.00  0.00    +0.000 A 
ATOM     12  O   UNL     1       2.172   4.945  20.972  0.00  0.00    +0.000 OA
ATOM     13  N   UNL     1       3.244   5.690  19.142  0.00  0.00    +0.000 NA
ATOM     14  C   UNL     1       3.848   5.481  18.023  0.00  0.00    +0.000 A 
ENDROOT
BRANCH   4  15
ATOM     15  C   UNL     1       5.803   4.583  14.397  0.00  0.00    +0.000 A 
ATOM     16  C   UNL     1       7.061   5.132  14.117  0.00  0.00    +0.000 A 
ATOM     17  C   UNL     1       7.727   4.782  12.943  0.00  0.00    +0.000 A 
ATOM     18  C   UNL     1       7.135   3.900  12.040  0.00  0.00    +0.000 A 
ATOM     19  C   UNL     1       5.876   3.362  12.309  0.00  0.00    +0.000 A 
ATOM     20  C   UNL     1       5.212   3.698  13.488  0.00  0.00    +0.000 A 
ENDBRANCH   4  15
TORSDOF 1
ENDMDL
MODEL 8
REMARK VINA RESULT:      -7.1      1.580      1.691
REMARK  Name = 
REMARK  3 active torsions:
REMARK  status: ('A' for Active; 'I' for Inactive)
REMARK    1  A    between atoms: C_1  and  N_2
REMARK    2  A    between atoms: C_4  and  C_5
REMARK    3  A    between atoms: N_15  and  C_16
REMARK                            x       y       z     vdW  Elec       q    Type
REMARK                         _______ _______ _______ _____ _____    ______ ____
ROOT
ATOM      1  C   UNL     1       3.848   7.961  17.471  0.00  0.00    +0.000 C 
ATOM      2  N   UNL     1       4.148   6.558  17.238  0.00  0.00    +0.000 N 
ATOM      3  N   UNL     1       4.839   6.271  16.098  0.00  0.00    +0.000 NA
ATOM      4  C   UNL     1       5.058   5.020  15.812  0.00  0.00    +0.000 A 
ATOM      5  N   UNL     1       4.658   3.958  16.588  0.00  0.00    +0.000 NA
ATOM      6  C   UNL     1       4.037   4.195  17.697  0.00  0.00    +0.000 A 
ATOM      7  C   UNL     1       3.630   3.070  18.603  0.00  0.00    +0.000 A 
ATOM      8  O   UNL     1       3.898   1.916  18.301  0.00  0.00    +0.000 OA
ATOM      9  N   UNL     1       2.969   3.477  19.744  0.00  0.00    +0.000 N 
ATOM     10  C   UNL     1       2.536   2.469  20.691  0.00  0.00    +0.000 C 
ATOM     11  C   UNL     1       2.674   4.802  20.051  0.00  0.00    +0.000 A 
ATOM     12  O   UNL     1       2.054   5.078  21.077  0.00  0.00    +0.000 OA
ATOM     13  N   UNL     1       3.076   5.808  19.213  0.00  0.00    +0.000 NA
ATOM     14  C   UNL     1       3.716   5.589  18.115  0.00  0.00    +0.000 A 
ENDROOT
BRANCH   4  15
ATOM     15  C   UNL     1       5.806   4.661  14.574  0.00  0.00    +0.000 A 
ATOM     16  C   UNL     1       5.236   3.784  13.642  0.00  0.00    +0.000 A 
ATOM     17  C   UNL     1       5.923   3.472  12.469  0.00  0.00    +0.000 A 
ATOM     18  C   UNL     1       7.184   4.019  12.231  0.00  0.00    +0.000 A 
ATOM     19  C   UNL     1       7.761   4.882  13.163  0.00  0.00    +0.000 A 
ATOM     20  C   UNL     1       7.072   5.208  14.331  0.00  0.00    +0.000 A 
ENDBRANCH   4  15
TORSDOF 1
ENDMDL
MODEL 9
REMARK VINA RESULT:      -7.1      1.993      2.521
REMARK  Name = 
REMARK  3 active torsions:
REMARK  status: ('A' for Active; 'I' for Inactive)
REMARK    1  A    between atoms: C_1  and  N_2
REMARK    2  A    between atoms: C_4  and  C_5
REMARK    3  A    between atoms: N_15  and  C_16
REMARK                            x       y       z     vdW  Elec       q    Type
REMARK                         _______ _______ _______ _____ _____    ______ ____
ROOT
ATOM      1  C   UNL     1       3.708   1.797  18.498  0.00  0.00    +0.000 C 
ATOM      2  N   UNL     1       3.907   3.085  17.855  0.00  0.00    +0.000 N 
ATOM      3  N   UNL     1       4.640   3.076  16.704  0.00  0.00    +0.000 NA
ATOM      4  C   UNL     1       4.908   4.219  16.139  0.00  0.00    +0.000 A 
ATOM      5  N   UNL     1       4.490   5.441  16.609  0.00  0.00    +0.000 NA
ATOM      6  C   UNL     1       3.757   5.482  17.675  0.00  0.00    +0.000 A 
ATOM      7  C   UNL     1       3.232   6.789  18.192  0.00  0.00    +0.000 A 
ATOM      8  O   UNL     1       3.484   7.827  17.597  0.00  0.00    +0.000 OA
ATOM      9  N   UNL     1       2.475   6.676  19.340  0.00  0.00    +0.000 N 
ATOM     10  C   UNL     1       1.914   7.880  19.922  0.00  0.00    +0.000 C 
ATOM     11  C   UNL     1       2.215   5.476  19.995  0.00  0.00    +0.000 A 
ATOM     12  O   UNL     1       1.553   5.466  21.033  0.00  0.00    +0.000 OA
ATOM     13  N   UNL     1       2.693   4.298  19.487  0.00  0.00    +0.000 NA
ATOM     14  C   UNL     1       3.405   4.237  18.413  0.00  0.00    +0.000 A 
ENDROOT
BRANCH   4  15
ATOM     15  C   UNL     1       5.709   4.256  14.883  0.00  0.00    +0.000 A 
ATOM     16  C   UNL     1       5.275   3.545  13.757  0.00  0.00    +0.000 A 
ATOM     17  C   UNL     1       6.008   3.603  12.572  0.00  0.00    +0.000 A 
ATOM     18  C   UNL     1       7.182   4.356  12.513  0.00  0.00    +0.000 A 
ATOM     19  C   UNL     1       7.624   5.054  13.637  0.00  0.00    +0.000 A 
ATOM     20  C   UNL     1       6.887   5.010  14.820  0.00  0.00    +0.000 A 
ENDBRANCH   4  15
TORSDOF 1
ENDMDL
