MODEL 1
REMARK VINA RESULT:      -8.8      0.000      0.000
REMARK  Name = 
REMARK  5 active torsions:
REMARK  status: ('A' for Active; 'I' for Inactive)
REMARK    1  A    between atoms: C_5  and  C_6
REMARK    2  A    between atoms: C_9  and  C_10
REMARK    3  A    between atoms: C_13  and  O_14
REMARK    4  A    between atoms: C_15  and  C_16
REMARK    5  A    between atoms: C_16  and  O_18
REMARK                            x       y       z     vdW  Elec       q    Type
REMARK                         _______ _______ _______ _____ _____    ______ ____
ROOT
ATOM      1  C   UNL     1       1.408   9.236  19.326  0.00  0.00    +0.000 A 
ATOM      2  C   UNL     1       1.922   9.426  18.049  0.00  0.00    +0.000 A 
ATOM      3  C   UNL     1       2.631   8.258  17.688  0.00  0.00    +0.000 A 
ATOM      4  C   UNL     1       2.529   7.391  18.753  0.00  0.00    +0.000 A 
ATOM      5  O   UNL     1       1.802   7.983  19.737  0.00  0.00    +0.000 OA
ENDROOT
BRANCH   1  10
ATOM      6  N   UNL     1      -3.596  11.732  17.762  0.00  0.00    +0.000 NA
ATOM      7  C   UNL     1      -2.637  11.535  18.595  0.00  0.00    +0.000 C 
ATOM      8  S   UNL     1      -1.351  10.460  18.147  0.00  0.00    +0.000 S 
ATOM      9  C   UNL     1      -0.535  10.694  19.641  0.00  0.00    +0.000 C 
ATOM     10  C   UNL     1       0.597  10.129  20.081  0.00  0.00    +0.000 C 
ATOM     11  C   UNL     1      -1.292  11.662  20.496  0.00  0.00    +0.000 C 
ATOM     12  O   UNL     1      -0.908  11.929  21.628  0.00  0.00    +0.000 OA
ATOM     13  N   UNL     1      -2.423  12.093  19.825  0.00  0.00    +0.000 N 
ATOM     14  C   UNL     1      -3.338  12.992  20.355  0.00  0.00    +0.000 A 
ATOM     15  N   UNL     1      -4.583  13.150  19.959  0.00  0.00    +0.000 NA
ATOM     16  C   UNL     1      -5.201  14.165  20.659  0.00  0.00    +0.000 A 
ATOM     17  C   UNL     1      -4.411  14.806  21.582  0.00  0.00    +0.000 A 
ATOM     18  S   UNL     1      -2.859  14.091  21.595  0.00  0.00    +0.000 S 
ATOM     19  H   UNL     1      -3.416  11.154  16.932  0.00  0.00    +0.000 HD
ENDBRANCH   1  10
BRANCH   4  20
ATOM     20  C   UNL     1       2.996   6.029  18.999  0.00  0.00    +0.000 A 
ATOM     21  C   UNL     1       4.042   5.513  18.219  0.00  0.00    +0.000 A 
ATOM     22  C   UNL     1       4.477   4.198  18.366  0.00  0.00    +0.000 A 
ATOM     23  C   UNL     1       3.869   3.371  19.308  0.00  0.00    +0.000 A 
ATOM     24  C   UNL     1       2.841   3.856  20.126  0.00  0.00    +0.000 A 
ATOM     25  C   UNL     1       2.416   5.191  19.966  0.00  0.00    +0.000 A 
BRANCH  23  26
ATOM     26  O   UNL     1       4.289   2.069  19.414  0.00  0.00    +0.000 OA
ATOM     27  H   UNL     1       4.270   1.811  20.356  0.00  0.00    +0.000 HD
ENDBRANCH  23  26
BRANCH  24  28
ATOM     28  C   UNL     1       2.146   3.028  21.157  0.00  0.00    +0.000 C 
ATOM     29  O   UNL     1       2.740   2.476  22.069  0.00  0.00    +0.000 OA
BRANCH  28  30
ATOM     30  O   UNL     1       0.805   2.937  21.019  0.00  0.00    +0.000 OA
ATOM     31  H   UNL     1       0.335   2.985  21.881  0.00  0.00    +0.000 HD
ENDBRANCH  28  30
ENDBRANCH  24  28
ENDBRANCH   4  20
TORSDOF 5
ENDMDL
MODEL 2
REMARK VINA RESULT:      -8.7      2.580      3.760
REMARK  Name = 
REMARK  5 active torsions:
REMARK  status: ('A' for Active; 'I' for Inactive)
REMARK    1  A    between atoms: C_5  and  C_6
REMARK    2  A    between atoms: C_9  and  C_10
REMARK    3  A    between atoms: C_13  and  O_14
REMARK    4  A    between atoms: C_15  and  C_16
REMARK    5  A    between atoms: C_16  and  O_18
REMARK                            x       y       z     vdW  Elec       q    Type
REMARK                         _______ _______ _______ _____ _____    ______ ____
ROOT
ATOM      1  C   UNL     1       1.586   7.101  20.581  0.00  0.00    +0.000 A 
ATOM      2  C   UNL     1       1.382   5.732  20.712  0.00  0.00    +0.000 A 
ATOM      3  C   UNL     1       2.349   5.073  19.920  0.00  0.00    +0.000 A 
ATOM      4  C   UNL     1       3.112   6.056  19.330  0.00  0.00    +0.000 A 
ATOM      5  O   UNL     1       2.648   7.271  19.722  0.00  0.00    +0.000 OA
ENDROOT
BRANCH   1  10
ATOM      6  N   UNL     1      -0.186  12.143  18.310  0.00  0.00    +0.000 NA
ATOM      7  C   UNL     1      -0.063  11.320  19.290  0.00  0.00    +0.000 C 
ATOM      8  S   UNL     1       0.743   9.809  19.013  0.00  0.00    +0.000 S 
ATOM      9  C   UNL     1       0.524   9.308  20.641  0.00  0.00    +0.000 C 
ATOM     10  C   UNL     1       0.874   8.153  21.223  0.00  0.00    +0.000 C 
ATOM     11  C   UNL     1      -0.181  10.376  21.419  0.00  0.00    +0.000 C 
ATOM     12  O   UNL     1      -0.484  10.198  22.593  0.00  0.00    +0.000 OA
ATOM     13  N   UNL     1      -0.441  11.458  20.597  0.00  0.00    +0.000 N 
ATOM     14  C   UNL     1      -1.092  12.608  21.020  0.00  0.00    +0.000 A 
ATOM     15  N   UNL     1      -1.695  13.485  20.244  0.00  0.00    +0.000 NA
ATOM     16  C   UNL     1      -2.192  14.539  20.979  0.00  0.00    +0.000 A 
ATOM     17  C   UNL     1      -1.944  14.482  22.330  0.00  0.00    +0.000 A 
ATOM     18  S   UNL     1      -1.091  13.044  22.689  0.00  0.00    +0.000 S 
ATOM     19  H   UNL     1       0.230  11.708  17.478  0.00  0.00    +0.000 HD
ENDBRANCH   1  10
BRANCH   4  20
ATOM     20  C   UNL     1       4.275   6.042  18.445  0.00  0.00    +0.000 A 
ATOM     21  C   UNL     1       4.140   6.516  17.132  0.00  0.00    +0.000 A 
ATOM     22  C   UNL     1       5.198   6.461  16.228  0.00  0.00    +0.000 A 
ATOM     23  C   UNL     1       6.422   5.928  16.629  0.00  0.00    +0.000 A 
ATOM     24  C   UNL     1       6.606   5.471  17.940  0.00  0.00    +0.000 A 
ATOM     25  C   UNL     1       5.524   5.538  18.843  0.00  0.00    +0.000 A 
BRANCH  23  26
ATOM     26  O   UNL     1       7.441   5.851  15.714  0.00  0.00    +0.000 OA
ATOM     27  H   UNL     1       8.176   6.419  16.017  0.00  0.00    +0.000 HD
ENDBRANCH  23  26
BRANCH  24  28
ATOM     28  C   UNL     1       7.889   4.890  18.439  0.00  0.00    +0.000 C 
ATOM     29  O   UNL     1       8.520   4.053  17.814  0.00  0.00    +0.000 OA
BRANCH  28  30
ATOM     30  O   UNL     1       8.312   5.362  19.632  0.00  0.00    +0.000 OA
ATOM     31  H   UNL     1       7.615   5.317  20.323  0.00  0.00    +0.000 HD
ENDBRANCH  28  30
ENDBRANCH  24  28
ENDBRANCH   4  20
TORSDOF 5
ENDMDL
MODEL 3
REMARK VINA RESULT:      -8.6      1.384      1.511
REMARK  Name = 
REMARK  5 active torsions:
REMARK  status: ('A' for Active; 'I' for Inactive)
REMARK    1  A    between atoms: C_5  and  C_6
REMARK    2  A    between atoms: C_9  and  C_10
REMARK    3  A    between atoms: C_13  and  O_14
REMARK    4  A    between atoms: C_15  and  C_16
REMARK    5  A    between atoms: C_16  and  O_18
REMARK                            x       y       z     vdW  Elec       q    Type
REMARK                         _______ _______ _______ _____ _____    ______ ____
ROOT
ATOM      1  C   UNL     1       1.493   9.073  19.577  0.00  0.00    +0.000 A 
ATOM      2  C   UNL     1       1.792   9.504  18.290  0.00  0.00    +0.000 A 
ATOM      3  C   UNL     1       2.366   8.417  17.591  0.00  0.00    +0.000 A 
ATOM      4  C   UNL     1       2.399   7.358  18.471  0.00  0.00    +0.000 A 
ATOM      5  O   UNL     1       1.882   7.755  19.662  0.00  0.00    +0.000 OA
ENDROOT
BRANCH   1  10
ATOM      6  N   UNL     1      -3.157  12.535  19.241  0.00  0.00    +0.000 NA
ATOM      7  C   UNL     1      -2.193  11.989  19.893  0.00  0.00    +0.000 C 
ATOM      8  S   UNL     1      -1.112  10.927  19.047  0.00  0.00    +0.000 S 
ATOM      9  C   UNL     1      -0.186  10.622  20.462  0.00  0.00    +0.000 C 
ATOM     10  C   UNL     1       0.871   9.814  20.621  0.00  0.00    +0.000 C 
ATOM     11  C   UNL     1      -0.737  11.399  21.617  0.00  0.00    +0.000 C 
ATOM     12  O   UNL     1      -0.254  11.283  22.737  0.00  0.00    +0.000 OA
ATOM     13  N   UNL     1      -1.827  12.144  21.201  0.00  0.00    +0.000 N 
ATOM     14  C   UNL     1      -2.563  12.967  22.042  0.00  0.00    +0.000 A 
ATOM     15  N   UNL     1      -3.791  13.391  21.826  0.00  0.00    +0.000 NA
ATOM     16  C   UNL     1      -4.207  14.238  22.831  0.00  0.00    +0.000 A 
ATOM     17  C   UNL     1      -3.278  14.484  23.813  0.00  0.00    +0.000 A 
ATOM     18  S   UNL     1      -1.853  13.600  23.480  0.00  0.00    +0.000 S 
ATOM     19  H   UNL     1      -3.114  12.197  18.272  0.00  0.00    +0.000 HD
ENDBRANCH   1  10
BRANCH   4  20
ATOM     20  C   UNL     1       2.827   5.964  18.363  0.00  0.00    +0.000 A 
ATOM     21  C   UNL     1       3.967   5.656  17.607  0.00  0.00    +0.000 A 
ATOM     22  C   UNL     1       4.377   4.338  17.416  0.00  0.00    +0.000 A 
ATOM     23  C   UNL     1       3.646   3.299  17.987  0.00  0.00    +0.000 A 
ATOM     24  C   UNL     1       2.518   3.566  18.773  0.00  0.00    +0.000 A 
ATOM     25  C   UNL     1       2.120   4.907  18.959  0.00  0.00    +0.000 A 
BRANCH  23  26
ATOM     26  O   UNL     1       4.047   2.006  17.759  0.00  0.00    +0.000 OA
ATOM     27  H   UNL     1       4.702   2.006  17.035  0.00  0.00    +0.000 HD
ENDBRANCH  23  26
BRANCH  24  28
ATOM     28  C   UNL     1       1.689   2.503  19.417  0.00  0.00    +0.000 C 
ATOM     29  O   UNL     1       1.320   2.568  20.578  0.00  0.00    +0.000 OA
BRANCH  28  30
ATOM     30  O   UNL     1       1.364   1.461  18.621  0.00  0.00    +0.000 OA
ATOM     31  H   UNL     1       1.035   0.687  19.130  0.00  0.00    +0.000 HD
ENDBRANCH  28  30
ENDBRANCH  24  28
ENDBRANCH   4  20
TORSDOF 5
ENDMDL
MODEL 4
REMARK VINA RESULT:      -8.6      1.842      2.494
REMARK  Name = 
REMARK  5 active torsions:
REMARK  status: ('A' for Active; 'I' for Inactive)
REMARK    1  A    between atoms: C_5  and  C_6
REMARK    2  A    between atoms: C_9  and  C_10
REMARK    3  A    between atoms: C_13  and  O_14
REMARK    4  A    between atoms: C_15  and  C_16
REMARK    5  A    between atoms: C_16  and  O_18
REMARK                            x       y       z     vdW  Elec       q    Type
REMARK                         _______ _______ _______ _____ _____    ______ ____
ROOT
ATOM      1  C   UNL     1       1.269   9.416  19.612  0.00  0.00    +0.000 A 
ATOM      2  C   UNL     1       1.370   9.814  18.284  0.00  0.00    +0.000 A 
ATOM      3  C   UNL     1       2.024   8.784  17.571  0.00  0.00    +0.000 A 
ATOM      4  C   UNL     1       2.301   7.789  18.482  0.00  0.00    +0.000 A 
ATOM      5  O   UNL     1       1.854   8.174  19.707  0.00  0.00    +0.000 OA
ENDROOT
BRANCH   1  10
ATOM      6  N   UNL     1      -3.465  12.774  19.463  0.00  0.00    +0.000 NA
ATOM      7  C   UNL     1      -2.474  12.236  20.079  0.00  0.00    +0.000 C 
ATOM      8  S   UNL     1      -1.389  11.220  19.185  0.00  0.00    +0.000 S 
ATOM      9  C   UNL     1      -0.425  10.904  20.571  0.00  0.00    +0.000 C 
ATOM     10  C   UNL     1       0.654  10.117  20.687  0.00  0.00    +0.000 C 
ATOM     11  C   UNL     1      -0.968  11.640  21.756  0.00  0.00    +0.000 C 
ATOM     12  O   UNL     1      -0.456  11.509  22.862  0.00  0.00    +0.000 OA
ATOM     13  N   UNL     1      -2.083  12.369  21.383  0.00  0.00    +0.000 N 
ATOM     14  C   UNL     1      -2.819  13.154  22.259  0.00  0.00    +0.000 A 
ATOM     15  N   UNL     1      -4.061  13.554  22.081  0.00  0.00    +0.000 NA
ATOM     16  C   UNL     1      -4.474  14.366  23.115  0.00  0.00    +0.000 A 
ATOM     17  C   UNL     1      -3.528  14.611  24.082  0.00  0.00    +0.000 A 
ATOM     18  S   UNL     1      -2.092  13.769  23.696  0.00  0.00    +0.000 S 
ATOM     19  H   UNL     1      -3.437  12.461  18.485  0.00  0.00    +0.000 HD
ENDBRANCH   1  10
BRANCH   4  20
ATOM     20  C   UNL     1       2.915   6.467  18.384  0.00  0.00    +0.000 A 
ATOM     21  C   UNL     1       2.107   5.358  18.095  0.00  0.00    +0.000 A 
ATOM     22  C   UNL     1       2.630   4.067  18.059  0.00  0.00    +0.000 A 
ATOM     23  C   UNL     1       3.986   3.865  18.311  0.00  0.00    +0.000 A 
ATOM     24  C   UNL     1       4.832   4.949  18.577  0.00  0.00    +0.000 A 
ATOM     25  C   UNL     1       4.285   6.249  18.605  0.00  0.00    +0.000 A 
BRANCH  23  26
ATOM     26  O   UNL     1       4.475   2.583  18.305  0.00  0.00    +0.000 OA
ATOM     27  H   UNL     1       3.891   2.023  18.852  0.00  0.00    +0.000 HD
ENDBRANCH  23  26
BRANCH  24  28
ATOM     28  C   UNL     1       6.293   4.807  18.855  0.00  0.00    +0.000 C 
ATOM     29  O   UNL     1       6.824   5.281  19.847  0.00  0.00    +0.000 OA
BRANCH  28  30
ATOM     30  O   UNL     1       6.992   4.105  17.936  0.00  0.00    +0.000 OA
ATOM     31  H   UNL     1       6.773   4.370  17.015  0.00  0.00    +0.000 HD
ENDBRANCH  28  30
ENDBRANCH  24  28
ENDBRANCH   4  20
TORSDOF 5
ENDMDL
MODEL 5
REMARK VINA RESULT:      -8.5      1.997      2.513
REMARK  Name = 
REMARK  5 active torsions:
REMARK  status: ('A' for Active; 'I' for Inactive)
REMARK    1  A    between atoms: C_5  and  C_6
REMARK    2  A    between atoms: C_9  and  C_10
REMARK    3  A    between atoms: C_13  and  O_14
REMARK    4  A    between atoms: C_15  and  C_16
REMARK    5  A    between atoms: C_16  and  O_18
REMARK                            x       y       z     vdW  Elec       q    Type
REMARK                         _______ _______ _______ _____ _____    ______ ____
ROOT
ATOM      1  C   UNL     1       1.999   8.622  18.272  0.00  0.00    +0.000 A 
ATOM      2  C   UNL     1       3.148   8.726  17.497  0.00  0.00    +0.000 A 
ATOM      3  C   UNL     1       3.729   7.440  17.410  0.00  0.00    +0.000 A 
ATOM      4  C   UNL     1       2.919   6.592  18.131  0.00  0.00    +0.000 A 
ATOM      5  O   UNL     1       1.886   7.305  18.653  0.00  0.00    +0.000 OA
ENDROOT
BRANCH   1  10
ATOM      6  N   UNL     1      -0.097  10.032  23.500  0.00  0.00    +0.000 NA
ATOM      7  C   UNL     1      -0.028  10.185  22.226  0.00  0.00    +0.000 C 
ATOM      8  S   UNL     1       1.025   9.148  21.318  0.00  0.00    +0.000 S 
ATOM      9  C   UNL     1       0.608   9.901  19.831  0.00  0.00    +0.000 C 
ATOM     10  C   UNL     1       1.074   9.653  18.600  0.00  0.00    +0.000 C 
ATOM     11  C   UNL     1      -0.404  10.979  20.066  0.00  0.00    +0.000 C 
ATOM     12  O   UNL     1      -0.799  11.679  19.140  0.00  0.00    +0.000 OA
ATOM     13  N   UNL     1      -0.714  11.044  21.413  0.00  0.00    +0.000 N 
ATOM     14  C   UNL     1      -1.618  11.949  21.952  0.00  0.00    +0.000 A 
ATOM     15  N   UNL     1      -1.679  12.320  23.214  0.00  0.00    +0.000 NA
ATOM     16  C   UNL     1      -2.727  13.189  23.426  0.00  0.00    +0.000 A 
ATOM     17  C   UNL     1      -3.492  13.466  22.318  0.00  0.00    +0.000 A 
ATOM     18  S   UNL     1      -2.854  12.636  20.967  0.00  0.00    +0.000 S 
ATOM     19  H   UNL     1       0.551   9.280  23.764  0.00  0.00    +0.000 HD
ENDBRANCH   1  10
BRANCH   4  20
ATOM     20  C   UNL     1       2.937   5.156  18.398  0.00  0.00    +0.000 A 
ATOM     21  C   UNL     1       3.292   4.274  17.367  0.00  0.00    +0.000 A 
ATOM     22  C   UNL     1       3.258   2.893  17.549  0.00  0.00    +0.000 A 
ATOM     23  C   UNL     1       2.868   2.368  18.780  0.00  0.00    +0.000 A 
ATOM     24  C   UNL     1       2.532   3.216  19.843  0.00  0.00    +0.000 A 
ATOM     25  C   UNL     1       2.576   4.611  19.642  0.00  0.00    +0.000 A 
BRANCH  23  26
ATOM     26  O   UNL     1       2.808   1.005  18.928  0.00  0.00    +0.000 OA
ATOM     27  H   UNL     1       3.682   0.629  18.707  0.00  0.00    +0.000 HD
ENDBRANCH  23  26
BRANCH  24  28
ATOM     28  C   UNL     1       2.107   2.724  21.188  0.00  0.00    +0.000 C 
ATOM     29  O   UNL     1       2.896   2.289  22.011  0.00  0.00    +0.000 OA
BRANCH  28  30
ATOM     30  O   UNL     1       0.782   2.803  21.440  0.00  0.00    +0.000 OA
ATOM     31  H   UNL     1       0.561   3.527  22.067  0.00  0.00    +0.000 HD
ENDBRANCH  28  30
ENDBRANCH  24  28
ENDBRANCH   4  20
TORSDOF 5
ENDMDL
MODEL 6
REMARK VINA RESULT:      -8.4      1.222      2.315
REMARK  Name = 
REMARK  5 active torsions:
REMARK  status: ('A' for Active; 'I' for Inactive)
REMARK    1  A    between atoms: C_5  and  C_6
REMARK    2  A    between atoms: C_9  and  C_10
REMARK    3  A    between atoms: C_13  and  O_14
REMARK    4  A    between atoms: C_15  and  C_16
REMARK    5  A    between atoms: C_16  and  O_18
REMARK                            x       y       z     vdW  Elec       q    Type
REMARK                         _______ _______ _______ _____ _____    ______ ____
ROOT
ATOM      1  C   UNL     1       1.313   9.264  19.157  0.00  0.00    +0.000 A 
ATOM      2  C   UNL     1       1.754   9.511  17.862  0.00  0.00    +0.000 A 
ATOM      3  C   UNL     1       2.578   8.431  17.472  0.00  0.00    +0.000 A 
ATOM      4  C   UNL     1       2.616   7.560  18.537  0.00  0.00    +0.000 A 
ATOM      5  O   UNL     1       1.863   8.065  19.549  0.00  0.00    +0.000 OA
ENDROOT
BRANCH   1  10
ATOM      6  N   UNL     1      -3.619  11.853  17.518  0.00  0.00    +0.000 NA
ATOM      7  C   UNL     1      -2.717  11.579  18.391  0.00  0.00    +0.000 C 
ATOM      8  S   UNL     1      -1.381  10.575  17.923  0.00  0.00    +0.000 S 
ATOM      9  C   UNL     1      -0.676  10.655  19.487  0.00  0.00    +0.000 C 
ATOM     10  C   UNL     1       0.434  10.060  19.944  0.00  0.00    +0.000 C 
ATOM     11  C   UNL     1      -1.510  11.515  20.386  0.00  0.00    +0.000 C 
ATOM     12  O   UNL     1      -1.211  11.662  21.565  0.00  0.00    +0.000 OA
ATOM     13  N   UNL     1      -2.600  12.002  19.686  0.00  0.00    +0.000 N 
ATOM     14  C   UNL     1      -3.567  12.827  20.244  0.00  0.00    +0.000 A 
ATOM     15  N   UNL     1      -4.786  13.012  19.780  0.00  0.00    +0.000 NA
ATOM     16  C   UNL     1      -5.471  13.936  20.539  0.00  0.00    +0.000 A 
ATOM     17  C   UNL     1      -4.760  14.482  21.580  0.00  0.00    +0.000 A 
ATOM     18  S   UNL     1      -3.198  13.790  21.626  0.00  0.00    +0.000 S 
ATOM     19  H   UNL     1      -3.371  11.371  16.645  0.00  0.00    +0.000 HD
ENDBRANCH   1  10
BRANCH   4  20
ATOM     20  C   UNL     1       3.245   6.260  18.762  0.00  0.00    +0.000 A 
ATOM     21  C   UNL     1       2.623   5.339  19.616  0.00  0.00    +0.000 A 
ATOM     22  C   UNL     1       3.215   4.114  19.919  0.00  0.00    +0.000 A 
ATOM     23  C   UNL     1       4.449   3.788  19.361  0.00  0.00    +0.000 A 
ATOM     24  C   UNL     1       5.090   4.669  18.481  0.00  0.00    +0.000 A 
ATOM     25  C   UNL     1       4.474   5.902  18.183  0.00  0.00    +0.000 A 
BRANCH  23  26
ATOM     26  O   UNL     1       5.032   2.592  19.698  0.00  0.00    +0.000 OA
ATOM     27  H   UNL     1       4.361   1.886  19.620  0.00  0.00    +0.000 HD
ENDBRANCH  23  26
BRANCH  24  28
ATOM     28  C   UNL     1       6.412   4.385  17.846  0.00  0.00    +0.000 C 
ATOM     29  O   UNL     1       7.466   4.455  18.458  0.00  0.00    +0.000 OA
BRANCH  28  30
ATOM     30  O   UNL     1       6.365   4.033  16.542  0.00  0.00    +0.000 OA
ATOM     31  H   UNL     1       6.327   4.811  15.944  0.00  0.00    +0.000 HD
ENDBRANCH  28  30
ENDBRANCH  24  28
ENDBRANCH   4  20
TORSDOF 5
ENDMDL
MODEL 7
REMARK VINA RESULT:      -8.4      1.182      1.314
REMARK  Name = 
REMARK  5 active torsions:
REMARK  status: ('A' for Active; 'I' for Inactive)
REMARK    1  A    between atoms: C_5  and  C_6
REMARK    2  A    between atoms: C_9  and  C_10
REMARK    3  A    between atoms: C_13  and  O_14
REMARK    4  A    between atoms: C_15  and  C_16
REMARK    5  A    between atoms: C_16  and  O_18
REMARK                            x       y       z     vdW  Elec       q    Type
REMARK                         _______ _______ _______ _____ _____    ______ ____
ROOT
ATOM      1  C   UNL     1       1.156   9.414  20.056  0.00  0.00    +0.000 A 
ATOM      2  C   UNL     1       1.389   9.708  18.717  0.00  0.00    +0.000 A 
ATOM      3  C   UNL     1       1.986   8.573  18.122  0.00  0.00    +0.000 A 
ATOM      4  C   UNL     1       2.098   7.622  19.112  0.00  0.00    +0.000 A 
ATOM      5  O   UNL     1       1.606   8.132  20.272  0.00  0.00    +0.000 OA
ENDROOT
BRANCH   1  10
ATOM      6  N   UNL     1      -3.495  12.837  19.444  0.00  0.00    +0.000 NA
ATOM      7  C   UNL     1      -2.528  12.348  20.136  0.00  0.00    +0.000 C 
ATOM      8  S   UNL     1      -1.451  11.217  19.380  0.00  0.00    +0.000 S 
ATOM      9  C   UNL     1      -0.519  11.035  20.812  0.00  0.00    +0.000 C 
ATOM     10  C   UNL     1       0.539  10.243  21.035  0.00  0.00    +0.000 C 
ATOM     11  C   UNL     1      -1.064  11.909  21.898  0.00  0.00    +0.000 C 
ATOM     12  O   UNL     1      -0.575  11.890  23.021  0.00  0.00    +0.000 OA
ATOM     13  N   UNL     1      -2.155  12.616  21.424  0.00  0.00    +0.000 N 
ATOM     14  C   UNL     1      -2.887  13.510  22.194  0.00  0.00    +0.000 A 
ATOM     15  N   UNL     1      -4.116  13.914  21.949  0.00  0.00    +0.000 NA
ATOM     16  C   UNL     1      -4.528  14.845  22.878  0.00  0.00    +0.000 A 
ATOM     17  C   UNL     1      -3.593  15.174  23.831  0.00  0.00    +0.000 A 
ATOM     18  S   UNL     1      -2.170  14.263  23.569  0.00  0.00    +0.000 S 
ATOM     19  H   UNL     1      -3.457  12.417  18.508  0.00  0.00    +0.000 HD
ENDBRANCH   1  10
BRANCH   4  20
ATOM     20  C   UNL     1       2.583   6.244  19.144  0.00  0.00    +0.000 A 
ATOM     21  C   UNL     1       3.454   5.803  18.137  0.00  0.00    +0.000 A 
ATOM     22  C   UNL     1       3.890   4.481  18.082  0.00  0.00    +0.000 A 
ATOM     23  C   UNL     1       3.459   3.572  19.046  0.00  0.00    +0.000 A 
ATOM     24  C   UNL     1       2.612   3.979  20.084  0.00  0.00    +0.000 A 
ATOM     25  C   UNL     1       2.184   5.323  20.126  0.00  0.00    +0.000 A 
BRANCH  23  26
ATOM     26  O   UNL     1       3.873   2.267  18.955  0.00  0.00    +0.000 OA
ATOM     27  H   UNL     1       3.281   1.794  18.338  0.00  0.00    +0.000 HD
ENDBRANCH  23  26
BRANCH  24  28
ATOM     28  C   UNL     1       2.112   3.060  21.151  0.00  0.00    +0.000 C 
ATOM     29  O   UNL     1       2.856   2.502  21.940  0.00  0.00    +0.000 OA
BRANCH  28  30
ATOM     30  O   UNL     1       0.772   2.896  21.192  0.00  0.00    +0.000 OA
ATOM     31  H   UNL     1       0.421   2.470  20.378  0.00  0.00    +0.000 HD
ENDBRANCH  28  30
ENDBRANCH  24  28
ENDBRANCH   4  20
TORSDOF 5
ENDMDL
MODEL 8
REMARK VINA RESULT:      -8.4      1.388      1.578
REMARK  Name = 
REMARK  5 active torsions:
REMARK  status: ('A' for Active; 'I' for Inactive)
REMARK    1  A    between atoms: C_5  and  C_6
REMARK    2  A    between atoms: C_9  and  C_10
REMARK    3  A    between atoms: C_13  and  O_14
REMARK    4  A    between atoms: C_15  and  C_16
REMARK    5  A    between atoms: C_16  and  O_18
REMARK                            x       y       z     vdW  Elec       q    Type
REMARK                         _______ _______ _______ _____ _____    ______ ____
ROOT
ATOM      1  C   UNL     1       1.703   8.506  19.661  0.00  0.00    +0.000 A 
ATOM      2  C   UNL     1       2.179   8.866  18.406  0.00  0.00    +0.000 A 
ATOM      3  C   UNL     1       2.686   7.702  17.785  0.00  0.00    +0.000 A 
ATOM      4  C   UNL     1       2.503   6.668  18.676  0.00  0.00    +0.000 A 
ATOM      5  O   UNL     1       1.920   7.155  19.804  0.00  0.00    +0.000 OA
ENDROOT
BRANCH   1  10
ATOM      6  N   UNL     1      -2.625  12.292  18.851  0.00  0.00    +0.000 NA
ATOM      7  C   UNL     1      -1.753  11.705  19.591  0.00  0.00    +0.000 C 
ATOM      8  S   UNL     1      -0.705  10.525  18.871  0.00  0.00    +0.000 S 
ATOM      9  C   UNL     1       0.096  10.219  20.359  0.00  0.00    +0.000 C 
ATOM     10  C   UNL     1       1.073   9.342  20.626  0.00  0.00    +0.000 C 
ATOM     11  C   UNL     1      -0.468  11.090  21.438  0.00  0.00    +0.000 C 
ATOM     12  O   UNL     1      -0.071  10.992  22.593  0.00  0.00    +0.000 OA
ATOM     13  N   UNL     1      -1.464  11.895  20.914  0.00  0.00    +0.000 N 
ATOM     14  C   UNL     1      -2.188  12.812  21.665  0.00  0.00    +0.000 A 
ATOM     15  N   UNL     1      -3.361  13.317  21.346  0.00  0.00    +0.000 NA
ATOM     16  C   UNL     1      -3.776  14.240  22.282  0.00  0.00    +0.000 A 
ATOM     17  C   UNL     1      -2.898  14.462  23.315  0.00  0.00    +0.000 A 
ATOM     18  S   UNL     1      -1.528  13.456  23.122  0.00  0.00    +0.000 S 
ATOM     19  H   UNL     1      -2.544  11.905  17.902  0.00  0.00    +0.000 HD
ENDBRANCH   1  10
BRANCH   4  20
ATOM     20  C   UNL     1       2.769   5.232  18.632  0.00  0.00    +0.000 A 
ATOM     21  C   UNL     1       2.552   4.534  17.435  0.00  0.00    +0.000 A 
ATOM     22  C   UNL     1       2.723   3.153  17.358  0.00  0.00    +0.000 A 
ATOM     23  C   UNL     1       3.121   2.444  18.489  0.00  0.00    +0.000 A 
ATOM     24  C   UNL     1       3.375   3.107  19.696  0.00  0.00    +0.000 A 
ATOM     25  C   UNL     1       3.200   4.506  19.754  0.00  0.00    +0.000 A 
BRANCH  23  26
ATOM     26  O   UNL     1       3.251   1.080  18.402  0.00  0.00    +0.000 OA
ATOM     27  H   UNL     1       4.202   0.858  18.386  0.00  0.00    +0.000 HD
ENDBRANCH  23  26
BRANCH  24  28
ATOM     28  C   UNL     1       3.804   2.411  20.947  0.00  0.00    +0.000 C 
ATOM     29  O   UNL     1       4.900   1.887  21.065  0.00  0.00    +0.000 OA
BRANCH  28  30
ATOM     30  O   UNL     1       2.898   2.409  21.949  0.00  0.00    +0.000 OA
ATOM     31  H   UNL     1       3.318   2.347  22.835  0.00  0.00    +0.000 HD
ENDBRANCH  28  30
ENDBRANCH  24  28
ENDBRANCH   4  20
TORSDOF 5
ENDMDL
MODEL 9
REMARK VINA RESULT:      -8.3      3.999      5.938
REMARK  Name = 
REMARK  5 active torsions:
REMARK  status: ('A' for Active; 'I' for Inactive)
REMARK    1  A    between atoms: C_5  and  C_6
REMARK    2  A    between atoms: C_9  and  C_10
REMARK    3  A    between atoms: C_13  and  O_14
REMARK    4  A    between atoms: C_15  and  C_16
REMARK    5  A    between atoms: C_16  and  O_18
REMARK                            x       y       z     vdW  Elec       q    Type
REMARK                         _______ _______ _______ _____ _____    ______ ____
ROOT
ATOM      1  C   UNL     1       3.306   5.001  18.859  0.00  0.00    +0.000 A 
ATOM      2  C   UNL     1       3.530   3.654  19.117  0.00  0.00    +0.000 A 
ATOM      3  C   UNL     1       4.402   3.161  18.119  0.00  0.00    +0.000 A 
ATOM      4  C   UNL     1       4.683   4.220  17.285  0.00  0.00    +0.000 A 
ATOM      5  O   UNL     1       4.019   5.320  17.726  0.00  0.00    +0.000 OA
ENDROOT
BRANCH   1  10
ATOM      6  N   UNL     1       1.879  10.472  17.533  0.00  0.00    +0.000 NA
ATOM      7  C   UNL     1       1.868   9.454  18.318  0.00  0.00    +0.000 C 
ATOM      8  S   UNL     1       2.693   8.010  17.823  0.00  0.00    +0.000 S 
ATOM      9  C   UNL     1       2.260   7.180  19.263  0.00  0.00    +0.000 C 
ATOM     10  C   UNL     1       2.522   5.915  19.619  0.00  0.00    +0.000 C 
ATOM     11  C   UNL     1       1.465   8.079  20.158  0.00  0.00    +0.000 C 
ATOM     12  O   UNL     1       1.010   7.664  21.217  0.00  0.00    +0.000 OA
ATOM     13  N   UNL     1       1.322   9.321  19.565  0.00  0.00    +0.000 N 
ATOM     14  C   UNL     1       0.629  10.375  20.142  0.00  0.00    +0.000 A 
ATOM     15  N   UNL     1       0.138  11.418  19.505  0.00  0.00    +0.000 NA
ATOM     16  C   UNL     1      -0.444  12.307  20.383  0.00  0.00    +0.000 A 
ATOM     17  C   UNL     1      -0.376  11.952  21.708  0.00  0.00    +0.000 A 
ATOM     18  S   UNL     1       0.413  10.442  21.852  0.00  0.00    +0.000 S 
ATOM     19  H   UNL     1       2.398  10.211  16.686  0.00  0.00    +0.000 HD
ENDBRANCH   1  10
BRANCH   4  20
ATOM     20  C   UNL     1       5.534   4.385  16.108  0.00  0.00    +0.000 A 
ATOM     21  C   UNL     1       6.651   5.229  16.185  0.00  0.00    +0.000 A 
ATOM     22  C   UNL     1       7.454   5.475  15.073  0.00  0.00    +0.000 A 
ATOM     23  C   UNL     1       7.149   4.870  13.855  0.00  0.00    +0.000 A 
ATOM     24  C   UNL     1       6.059   3.998  13.743  0.00  0.00    +0.000 A 
ATOM     25  C   UNL     1       5.260   3.758  14.881  0.00  0.00    +0.000 A 
BRANCH  23  26
ATOM     26  O   UNL     1       7.932   5.152  12.764  0.00  0.00    +0.000 OA
ATOM     27  H   UNL     1       8.790   4.697  12.869  0.00  0.00    +0.000 HD
ENDBRANCH  23  26
BRANCH  24  28
ATOM     28  C   UNL     1       5.675   3.315  12.472  0.00  0.00    +0.000 C 
ATOM     29  O   UNL     1       4.573   3.440  11.963  0.00  0.00    +0.000 OA
BRANCH  28  30
ATOM     30  O   UNL     1       6.639   2.552  11.911  0.00  0.00    +0.000 OA
ATOM     31  H   UNL     1       7.256   3.076  11.354  0.00  0.00    +0.000 HD
ENDBRANCH  28  30
ENDBRANCH  24  28
ENDBRANCH   4  20
TORSDOF 5
ENDMDL
