MODEL 1
REMARK VINA RESULT:      -8.1      0.000      0.000
REMARK  Name = 
REMARK  8 active torsions:
REMARK  status: ('A' for Active; 'I' for Inactive)
REMARK    1  A    between atoms: N_1  and  C_2
REMARK    2  A    between atoms: N_11  and  C_12
REMARK    3  A    between atoms: C_12  and  N_13
REMARK    4  A    between atoms: C_12  and  C_25
REMARK    5  A    between atoms: C_14  and  O_16
REMARK    6  A    between atoms: O_16  and  C_17
REMARK    7  A    between atoms: C_17  and  C_18
REMARK    8  A    between atoms: C_18  and  C_19
REMARK                            x       y       z     vdW  Elec       q    Type
REMARK                         _______ _______ _______ _____ _____    ______ ____
ROOT
ATOM      1  C   UNL     1       3.262   4.450  19.897  0.00  0.00    +0.000 C 
ENDROOT
BRANCH   1  11
ATOM      2  C   UNL     1       6.895   4.867  16.682  0.00  0.00    +0.000 A 
ATOM      3  N   UNL     1       7.833   5.202  17.589  0.00  0.00    +0.000 NA
ATOM      4  C   UNL     1       7.466   5.329  18.884  0.00  0.00    +0.000 A 
ATOM      5  F   UNL     1       8.447   5.651  19.743  0.00  0.00    +0.000 F 
ATOM      6  N   UNL     1       6.236   5.171  19.421  0.00  0.00    +0.000 NA
ATOM      7  C   UNL     1       5.339   4.840  18.482  0.00  0.00    +0.000 A 
ATOM      8  C   UNL     1       5.571   4.692  17.122  0.00  0.00    +0.000 A 
ATOM      9  N   UNL     1       4.405   4.395  16.457  0.00  0.00    +0.000 NA
ATOM     10  C   UNL     1       3.490   4.317  17.396  0.00  0.00    +0.000 A 
ATOM     11  N   UNL     1       4.013   4.551  18.646  0.00  0.00    +0.000 N 
BRANCH   2  12
ATOM     12  N   UNL     1       7.270   4.726  15.352  0.00  0.00    +0.000 N 
ATOM     13  H   UNL     1       6.802   5.374  14.734  0.00  0.00    +0.000 HD
ATOM     14  H   UNL     1       7.395   3.772  15.049  0.00  0.00    +0.000 HD
ENDBRANCH   2  12
ENDBRANCH   1  11
BRANCH   1  15
ATOM     15  N   UNL     1       2.076   5.315  19.955  0.00  0.00    +0.000 N 
ATOM     16  C   UNL     1       2.085   6.667  20.048  0.00  0.00    +0.000 C 
ATOM     17  O   UNL     1       1.294   7.266  20.756  0.00  0.00    +0.000 OA
ATOM     18  H   UNL     1       1.253   4.911  20.391  0.00  0.00    +0.000 HD
BRANCH  16  19
ATOM     19  O   UNL     1       2.911   7.240  19.138  0.00  0.00    +0.000 OA
BRANCH  19  20
ATOM     20  C   UNL     1       2.174   7.784  18.026  0.00  0.00    +0.000 C 
BRANCH  20  21
ATOM     21  C   UNL     1       2.260   9.300  17.962  0.00  0.00    +0.000 C 
BRANCH  21  22
ATOM     22  C   UNL     1       0.988   9.911  18.498  0.00  0.00    +0.000 A 
ATOM     23  C   UNL     1      -0.226   9.721  17.842  0.00  0.00    +0.000 A 
ATOM     24  C   UNL     1      -1.372  10.329  18.354  0.00  0.00    +0.000 A 
ATOM     25  C   UNL     1      -1.275  11.115  19.494  0.00  0.00    +0.000 A 
ATOM     26  C   UNL     1      -0.028  11.266  20.075  0.00  0.00    +0.000 A 
ATOM     27  N   UNL     1       1.100  10.689  19.601  0.00  0.00    +0.000 NA
ENDBRANCH  21  22
ENDBRANCH  20  21
ENDBRANCH  19  20
ENDBRANCH  16  19
ENDBRANCH   1  15
BRANCH   1  28
ATOM     28  C   UNL     1       2.922   2.962  20.337  0.00  0.00    +0.000 C 
ATOM     29 CL   UNL     1       1.812   2.064  19.244  0.00  0.00    +0.000 Cl
ATOM     30 CL   UNL     1       4.456   2.006  20.436  0.00  0.00    +0.000 Cl
ATOM     31 CL   UNL     1       2.168   2.892  21.988  0.00  0.00    +0.000 Cl
ENDBRANCH   1  28
TORSDOF 8
ENDMDL
MODEL 2
REMARK VINA RESULT:      -7.7      0.735      1.383
REMARK  Name = 
REMARK  8 active torsions:
REMARK  status: ('A' for Active; 'I' for Inactive)
REMARK    1  A    between atoms: N_1  and  C_2
REMARK    2  A    between atoms: N_11  and  C_12
REMARK    3  A    between atoms: C_12  and  N_13
REMARK    4  A    between atoms: C_12  and  C_25
REMARK    5  A    between atoms: C_14  and  O_16
REMARK    6  A    between atoms: O_16  and  C_17
REMARK    7  A    between atoms: C_17  and  C_18
REMARK    8  A    between atoms: C_18  and  C_19
REMARK                            x       y       z     vdW  Elec       q    Type
REMARK                         _______ _______ _______ _____ _____    ______ ____
ROOT
ATOM      1  C   UNL     1       3.341   4.252  19.821  0.00  0.00    +0.000 C 
ENDROOT
BRANCH   1  11
ATOM      2  C   UNL     1       6.877   4.832  16.524  0.00  0.00    +0.000 A 
ATOM      3  N   UNL     1       7.824   5.193  17.411  0.00  0.00    +0.000 NA
ATOM      4  C   UNL     1       7.485   5.295  18.716  0.00  0.00    +0.000 A 
ATOM      5  F   UNL     1       8.474   5.645  19.554  0.00  0.00    +0.000 F 
ATOM      6  N   UNL     1       6.275   5.087  19.281  0.00  0.00    +0.000 NA
ATOM      7  C   UNL     1       5.368   4.731  18.361  0.00  0.00    +0.000 A 
ATOM      8  C   UNL     1       5.571   4.604  16.994  0.00  0.00    +0.000 A 
ATOM      9  N   UNL     1       4.401   4.271  16.354  0.00  0.00    +0.000 NA
ATOM     10  C   UNL     1       3.513   4.150  17.315  0.00  0.00    +0.000 A 
ATOM     11  N   UNL     1       4.058   4.391  18.553  0.00  0.00    +0.000 N 
BRANCH   2  12
ATOM     12  N   UNL     1       7.224   4.717  15.184  0.00  0.00    +0.000 N 
ATOM     13  H   UNL     1       7.295   3.759  14.871  0.00  0.00    +0.000 HD
ATOM     14  H   UNL     1       7.915   5.382  14.870  0.00  0.00    +0.000 HD
ENDBRANCH   2  12
ENDBRANCH   1  11
BRANCH   1  15
ATOM     15  N   UNL     1       2.100   5.033  19.897  0.00  0.00    +0.000 N 
ATOM     16  C   UNL     1       2.015   6.362  20.152  0.00  0.00    +0.000 C 
ATOM     17  O   UNL     1       1.143   6.822  20.869  0.00  0.00    +0.000 OA
ATOM     18  H   UNL     1       1.279   4.533  20.222  0.00  0.00    +0.000 HD
BRANCH  16  19
ATOM     19  O   UNL     1       2.858   7.089  19.379  0.00  0.00    +0.000 OA
BRANCH  19  20
ATOM     20  C   UNL     1       2.220   7.514  18.160  0.00  0.00    +0.000 C 
BRANCH  20  21
ATOM     21  C   UNL     1       2.705   8.880  17.700  0.00  0.00    +0.000 C 
BRANCH  21  22
ATOM     22  C   UNL     1       1.779   9.954  18.214  0.00  0.00    +0.000 A 
ATOM     23  C   UNL     1       2.167  11.292  18.212  0.00  0.00    +0.000 A 
ATOM     24  C   UNL     1       1.292  12.249  18.726  0.00  0.00    +0.000 A 
ATOM     25  C   UNL     1       0.065  11.848  19.235  0.00  0.00    +0.000 A 
ATOM     26  C   UNL     1      -0.237  10.497  19.214  0.00  0.00    +0.000 A 
ATOM     27  N   UNL     1       0.590   9.547  18.723  0.00  0.00    +0.000 NA
ENDBRANCH  21  22
ENDBRANCH  20  21
ENDBRANCH  19  20
ENDBRANCH  16  19
ENDBRANCH   1  15
BRANCH   1  28
ATOM     28  C   UNL     1       3.115   2.748  20.281  0.00  0.00    +0.000 C 
ATOM     29 CL   UNL     1       4.605   1.755  20.449  0.00  0.00    +0.000 Cl
ATOM     30 CL   UNL     1       2.286   2.736  21.889  0.00  0.00    +0.000 Cl
ATOM     31 CL   UNL     1       2.031   1.840  19.140  0.00  0.00    +0.000 Cl
ENDBRANCH   1  28
TORSDOF 8
ENDMDL
MODEL 3
REMARK VINA RESULT:      -7.6      2.903      6.995
REMARK  Name = 
REMARK  8 active torsions:
REMARK  status: ('A' for Active; 'I' for Inactive)
REMARK    1  A    between atoms: N_1  and  C_2
REMARK    2  A    between atoms: N_11  and  C_12
REMARK    3  A    between atoms: C_12  and  N_13
REMARK    4  A    between atoms: C_12  and  C_25
REMARK    5  A    between atoms: C_14  and  O_16
REMARK    6  A    between atoms: O_16  and  C_17
REMARK    7  A    between atoms: C_17  and  C_18
REMARK    8  A    between atoms: C_18  and  C_19
REMARK                            x       y       z     vdW  Elec       q    Type
REMARK                         _______ _______ _______ _____ _____    ______ ____
ROOT
ATOM      1  C   UNL     1       3.855   5.629  18.407  0.00  0.00    +0.000 C 
ENDROOT
BRANCH   1  11
ATOM      2  C   UNL     1       1.215   9.669  19.057  0.00  0.00    +0.000 A 
ATOM      3  N   UNL     1       0.900   9.413  20.341  0.00  0.00    +0.000 NA
ATOM      4  C   UNL     1       1.333   8.259  20.898  0.00  0.00    +0.000 A 
ATOM      5  F   UNL     1       0.999   8.065  22.184  0.00  0.00    +0.000 F 
ATOM      6  N   UNL     1       2.062   7.278  20.321  0.00  0.00    +0.000 NA
ATOM      7  C   UNL     1       2.350   7.577  19.047  0.00  0.00    +0.000 A 
ATOM      8  C   UNL     1       1.959   8.710  18.347  0.00  0.00    +0.000 A 
ATOM      9  N   UNL     1       2.397   8.655  17.044  0.00  0.00    +0.000 NA
ATOM     10  C   UNL     1       3.080   7.536  16.964  0.00  0.00    +0.000 A 
ATOM     11  N   UNL     1       3.105   6.861  18.161  0.00  0.00    +0.000 N 
BRANCH   2  12
ATOM     12  N   UNL     1       0.780  10.857  18.485  0.00  0.00    +0.000 N 
ATOM     13  H   UNL     1       0.913  10.891  17.484  0.00  0.00    +0.000 HD
ATOM     14  H   UNL     1       0.978  11.684  19.029  0.00  0.00    +0.000 HD
ENDBRANCH   2  12
ENDBRANCH   1  11
BRANCH   1  15
ATOM     15  N   UNL     1       4.949   5.777  19.375  0.00  0.00    +0.000 N 
ATOM     16  C   UNL     1       6.257   5.510  19.138  0.00  0.00    +0.000 C 
ATOM     17  O   UNL     1       6.961   4.966  19.972  0.00  0.00    +0.000 OA
ATOM     18  H   UNL     1       4.704   5.631  20.349  0.00  0.00    +0.000 HD
BRANCH  16  19
ATOM     19  O   UNL     1       6.701   6.086  17.994  0.00  0.00    +0.000 OA
BRANCH  19  20
ATOM     20  C   UNL     1       7.241   5.106  17.086  0.00  0.00    +0.000 C 
BRANCH  20  21
ATOM     21  C   UNL     1       6.164   4.448  16.238  0.00  0.00    +0.000 C 
BRANCH  21  22
ATOM     22  C   UNL     1       6.557   4.492  14.783  0.00  0.00    +0.000 A 
ATOM     23  C   UNL     1       5.928   3.673  13.848  0.00  0.00    +0.000 A 
ATOM     24  C   UNL     1       6.345   3.723  12.518  0.00  0.00    +0.000 A 
ATOM     25  C   UNL     1       7.379   4.576  12.159  0.00  0.00    +0.000 A 
ATOM     26  C   UNL     1       7.961   5.345  13.152  0.00  0.00    +0.000 A 
ATOM     27  N   UNL     1       7.580   5.317  14.449  0.00  0.00    +0.000 NA
ENDBRANCH  21  22
ENDBRANCH  20  21
ENDBRANCH  19  20
ENDBRANCH  16  19
ENDBRANCH   1  15
BRANCH   1  28
ATOM     28  C   UNL     1       2.947   4.368  18.740  0.00  0.00    +0.000 C 
ATOM     29 CL   UNL     1       3.686   2.766  18.385  0.00  0.00    +0.000 Cl
ATOM     30 CL   UNL     1       2.531   4.381  20.500  0.00  0.00    +0.000 Cl
ATOM     31 CL   UNL     1       1.369   4.404  17.840  0.00  0.00    +0.000 Cl
ENDBRANCH   1  28
TORSDOF 8
ENDMDL
MODEL 4
REMARK VINA RESULT:      -7.5      0.921      1.260
REMARK  Name = 
REMARK  8 active torsions:
REMARK  status: ('A' for Active; 'I' for Inactive)
REMARK    1  A    between atoms: N_1  and  C_2
REMARK    2  A    between atoms: N_11  and  C_12
REMARK    3  A    between atoms: C_12  and  N_13
REMARK    4  A    between atoms: C_12  and  C_25
REMARK    5  A    between atoms: C_14  and  O_16
REMARK    6  A    between atoms: O_16  and  C_17
REMARK    7  A    between atoms: C_17  and  C_18
REMARK    8  A    between atoms: C_18  and  C_19
REMARK                            x       y       z     vdW  Elec       q    Type
REMARK                         _______ _______ _______ _____ _____    ______ ____
ROOT
ATOM      1  C   UNL     1       3.281   4.378  19.713  0.00  0.00    +0.000 C 
ENDROOT
BRANCH   1  11
ATOM      2  C   UNL     1       6.955   4.782  16.543  0.00  0.00    +0.000 A 
ATOM      3  N   UNL     1       7.865   5.187  17.450  0.00  0.00    +0.000 NA
ATOM      4  C   UNL     1       7.471   5.356  18.732  0.00  0.00    +0.000 A 
ATOM      5  F   UNL     1       8.425   5.748  19.592  0.00  0.00    +0.000 F 
ATOM      6  N   UNL     1       6.238   5.179  19.255  0.00  0.00    +0.000 NA
ATOM      7  C   UNL     1       5.369   4.778  18.317  0.00  0.00    +0.000 A 
ATOM      8  C   UNL     1       5.629   4.580  16.969  0.00  0.00    +0.000 A 
ATOM      9  N   UNL     1       4.486   4.216  16.298  0.00  0.00    +0.000 NA
ATOM     10  C   UNL     1       3.558   4.147  17.225  0.00  0.00    +0.000 A 
ATOM     11  N   UNL     1       4.051   4.451  18.471  0.00  0.00    +0.000 N 
BRANCH   2  12
ATOM     12  N   UNL     1       7.358   4.597  15.227  0.00  0.00    +0.000 N 
ATOM     13  H   UNL     1       7.577   5.462  14.751  0.00  0.00    +0.000 HD
ATOM     14  H   UNL     1       6.848   3.885  14.726  0.00  0.00    +0.000 HD
ENDBRANCH   2  12
ENDBRANCH   1  11
BRANCH   1  15
ATOM     15  N   UNL     1       2.074   5.215  19.720  0.00  0.00    +0.000 N 
ATOM     16  C   UNL     1       2.010   6.509  20.116  0.00  0.00    +0.000 C 
ATOM     17  O   UNL     1       1.070   6.936  20.764  0.00  0.00    +0.000 OA
ATOM     18  H   UNL     1       1.197   4.728  19.875  0.00  0.00    +0.000 HD
BRANCH  16  19
ATOM     19  O   UNL     1       2.978   7.270  19.548  0.00  0.00    +0.000 OA
BRANCH  19  20
ATOM     20  C   UNL     1       2.667   7.582  18.177  0.00  0.00    +0.000 C 
BRANCH  20  21
ATOM     21  C   UNL     1       1.344   8.318  18.038  0.00  0.00    +0.000 C 
BRANCH  21  22
ATOM     22  C   UNL     1       1.511   9.758  18.452  0.00  0.00    +0.000 A 
ATOM     23  C   UNL     1       0.823  10.270  19.551  0.00  0.00    +0.000 A 
ATOM     24  C   UNL     1       0.982  11.615  19.880  0.00  0.00    +0.000 A 
ATOM     25  C   UNL     1       1.810  12.414  19.104  0.00  0.00    +0.000 A 
ATOM     26  C   UNL     1       2.444  11.832  18.020  0.00  0.00    +0.000 A 
ATOM     27  N   UNL     1       2.308  10.531  17.676  0.00  0.00    +0.000 NA
ENDBRANCH  21  22
ENDBRANCH  20  21
ENDBRANCH  19  20
ENDBRANCH  16  19
ENDBRANCH   1  15
BRANCH   1  28
ATOM     28  C   UNL     1       2.970   2.899  20.202  0.00  0.00    +0.000 C 
ATOM     29 CL   UNL     1       1.824   1.967  19.176  0.00  0.00    +0.000 Cl
ATOM     30 CL   UNL     1       4.513   1.956  20.264  0.00  0.00    +0.000 Cl
ATOM     31 CL   UNL     1       2.281   2.865  21.883  0.00  0.00    +0.000 Cl
ENDBRANCH   1  28
TORSDOF 8
ENDMDL
MODEL 5
REMARK VINA RESULT:      -7.5      2.791      6.827
REMARK  Name = 
REMARK  8 active torsions:
REMARK  status: ('A' for Active; 'I' for Inactive)
REMARK    1  A    between atoms: N_1  and  C_2
REMARK    2  A    between atoms: N_11  and  C_12
REMARK    3  A    between atoms: C_12  and  N_13
REMARK    4  A    between atoms: C_12  and  C_25
REMARK    5  A    between atoms: C_14  and  O_16
REMARK    6  A    between atoms: O_16  and  C_17
REMARK    7  A    between atoms: C_17  and  C_18
REMARK    8  A    between atoms: C_18  and  C_19
REMARK                            x       y       z     vdW  Elec       q    Type
REMARK                         _______ _______ _______ _____ _____    ______ ____
ROOT
ATOM      1  C   UNL     1       4.006   5.310  18.316  0.00  0.00    +0.000 C 
ENDROOT
BRANCH   1  11
ATOM      2  C   UNL     1       1.496   9.454  18.808  0.00  0.00    +0.000 A 
ATOM      3  N   UNL     1       1.078   9.204  20.064  0.00  0.00    +0.000 NA
ATOM      4  C   UNL     1       1.422   8.031  20.640  0.00  0.00    +0.000 A 
ATOM      5  F   UNL     1       0.988   7.844  21.897  0.00  0.00    +0.000 F 
ATOM      6  N   UNL     1       2.149   7.023  20.109  0.00  0.00    +0.000 NA
ATOM      7  C   UNL     1       2.541   7.316  18.862  0.00  0.00    +0.000 A 
ATOM      8  C   UNL     1       2.249   8.468  18.144  0.00  0.00    +0.000 A 
ATOM      9  N   UNL     1       2.777   8.401  16.877  0.00  0.00    +0.000 NA
ATOM     10  C   UNL     1       3.417   7.255  16.836  0.00  0.00    +0.000 A 
ATOM     11  N   UNL     1       3.328   6.573  18.027  0.00  0.00    +0.000 N 
BRANCH   2  12
ATOM     12  N   UNL     1       1.153  10.662  18.216  0.00  0.00    +0.000 N 
ATOM     13  H   UNL     1       1.945  11.269  18.059  0.00  0.00    +0.000 HD
ATOM     14  H   UNL     1       0.292  11.066  18.552  0.00  0.00    +0.000 HD
ENDBRANCH   2  12
ENDBRANCH   1  11
BRANCH   1  15
ATOM     15  N   UNL     1       5.021   5.403  19.374  0.00  0.00    +0.000 N 
ATOM     16  C   UNL     1       6.347   5.608  19.182  0.00  0.00    +0.000 C 
ATOM     17  O   UNL     1       7.188   5.022  19.842  0.00  0.00    +0.000 OA
ATOM     18  H   UNL     1       4.839   4.862  20.213  0.00  0.00    +0.000 HD
BRANCH  16  19
ATOM     19  O   UNL     1       6.592   6.648  18.348  0.00  0.00    +0.000 OA
BRANCH  19  20
ATOM     20  C   UNL     1       7.322   6.226  17.180  0.00  0.00    +0.000 C 
BRANCH  20  21
ATOM     21  C   UNL     1       7.024   4.784  16.802  0.00  0.00    +0.000 C 
BRANCH  21  22
ATOM     22  C   UNL     1       6.939   4.653  15.301  0.00  0.00    +0.000 A 
ATOM     23  C   UNL     1       6.031   3.777  14.711  0.00  0.00    +0.000 A 
ATOM     24  C   UNL     1       6.007   3.664  13.322  0.00  0.00    +0.000 A 
ATOM     25  C   UNL     1       6.892   4.415  12.561  0.00  0.00    +0.000 A 
ATOM     26  C   UNL     1       7.774   5.250  13.226  0.00  0.00    +0.000 A 
ATOM     27  N   UNL     1       7.820   5.380  14.572  0.00  0.00    +0.000 NA
ENDBRANCH  21  22
ENDBRANCH  20  21
ENDBRANCH  19  20
ENDBRANCH  16  19
ENDBRANCH   1  15
BRANCH   1  28
ATOM     28  C   UNL     1       3.026   4.082  18.554  0.00  0.00    +0.000 C 
ATOM     29 CL   UNL     1       2.538   3.798  20.261  0.00  0.00    +0.000 Cl
ATOM     30 CL   UNL     1       1.507   4.341  17.605  0.00  0.00    +0.000 Cl
ATOM     31 CL   UNL     1       3.736   2.517  17.966  0.00  0.00    +0.000 Cl
ENDBRANCH   1  28
TORSDOF 8
ENDMDL
MODEL 6
REMARK VINA RESULT:      -7.4      0.789      1.434
REMARK  Name = 
REMARK  8 active torsions:
REMARK  status: ('A' for Active; 'I' for Inactive)
REMARK    1  A    between atoms: N_1  and  C_2
REMARK    2  A    between atoms: N_11  and  C_12
REMARK    3  A    between atoms: C_12  and  N_13
REMARK    4  A    between atoms: C_12  and  C_25
REMARK    5  A    between atoms: C_14  and  O_16
REMARK    6  A    between atoms: O_16  and  C_17
REMARK    7  A    between atoms: C_17  and  C_18
REMARK    8  A    between atoms: C_18  and  C_19
REMARK                            x       y       z     vdW  Elec       q    Type
REMARK                         _______ _______ _______ _____ _____    ______ ____
ROOT
ATOM      1  C   UNL     1       3.251   4.541  19.917  0.00  0.00    +0.000 C 
ENDROOT
BRANCH   1  11
ATOM      2  C   UNL     1       6.862   5.332  16.748  0.00  0.00    +0.000 A 
ATOM      3  N   UNL     1       7.817   5.512  17.681  0.00  0.00    +0.000 NA
ATOM      4  C   UNL     1       7.466   5.461  18.985  0.00  0.00    +0.000 A 
ATOM      5  F   UNL     1       8.463   5.634  19.869  0.00  0.00    +0.000 F 
ATOM      6  N   UNL     1       6.238   5.255  19.510  0.00  0.00    +0.000 NA
ATOM      7  C   UNL     1       5.324   5.083  18.546  0.00  0.00    +0.000 A 
ATOM      8  C   UNL     1       5.538   5.126  17.175  0.00  0.00    +0.000 A 
ATOM      9  N   UNL     1       4.359   4.955  16.490  0.00  0.00    +0.000 NA
ATOM     10  C   UNL     1       3.452   4.763  17.421  0.00  0.00    +0.000 A 
ATOM     11  N   UNL     1       3.993   4.803  18.683  0.00  0.00    +0.000 N 
BRANCH   2  12
ATOM     12  N   UNL     1       7.220   5.375  15.407  0.00  0.00    +0.000 N 
ATOM     13  H   UNL     1       6.637   5.991  14.857  0.00  0.00    +0.000 HD
ATOM     14  H   UNL     1       7.492   4.486  15.014  0.00  0.00    +0.000 HD
ENDBRANCH   2  12
ENDBRANCH   1  11
BRANCH   1  15
ATOM     15  N   UNL     1       1.982   5.273  20.021  0.00  0.00    +0.000 N 
ATOM     16  C   UNL     1       1.852   6.612  20.183  0.00  0.00    +0.000 C 
ATOM     17  O   UNL     1       1.008   7.089  20.922  0.00  0.00    +0.000 OA
ATOM     18  H   UNL     1       1.209   4.765  20.437  0.00  0.00    +0.000 HD
BRANCH  16  19
ATOM     19  O   UNL     1       2.608   7.313  19.302  0.00  0.00    +0.000 OA
BRANCH  19  20
ATOM     20  C   UNL     1       2.181   8.687  19.218  0.00  0.00    +0.000 C 
BRANCH  20  21
ATOM     21  C   UNL     1       1.351   8.960  17.974  0.00  0.00    +0.000 C 
BRANCH  21  22
ATOM     22  C   UNL     1       0.190   9.859  18.318  0.00  0.00    +0.000 A 
ATOM     23  C   UNL     1       0.203  10.632  19.477  0.00  0.00    +0.000 A 
ATOM     24  C   UNL     1      -0.904  11.426  19.772  0.00  0.00    +0.000 A 
ATOM     25  C   UNL     1      -1.995  11.421  18.913  0.00  0.00    +0.000 A 
ATOM     26  C   UNL     1      -1.935  10.613  17.791  0.00  0.00    +0.000 A 
ATOM     27  N   UNL     1      -0.875   9.832  17.480  0.00  0.00    +0.000 NA
ENDBRANCH  21  22
ENDBRANCH  20  21
ENDBRANCH  19  20
ENDBRANCH  16  19
ENDBRANCH   1  15
BRANCH   1  28
ATOM     28  C   UNL     1       3.066   2.999  20.252  0.00  0.00    +0.000 C 
ATOM     29 CL   UNL     1       4.577   2.024  20.283  0.00  0.00    +0.000 Cl
ATOM     30 CL   UNL     1       2.296   2.833  21.881  0.00  0.00    +0.000 Cl
ATOM     31 CL   UNL     1       1.957   2.172  19.075  0.00  0.00    +0.000 Cl
ENDBRANCH   1  28
TORSDOF 8
ENDMDL
MODEL 7
REMARK VINA RESULT:      -7.4      0.878      1.318
REMARK  Name = 
REMARK  8 active torsions:
REMARK  status: ('A' for Active; 'I' for Inactive)
REMARK    1  A    between atoms: N_1  and  C_2
REMARK    2  A    between atoms: N_11  and  C_12
REMARK    3  A    between atoms: C_12  and  N_13
REMARK    4  A    between atoms: C_12  and  C_25
REMARK    5  A    between atoms: C_14  and  O_16
REMARK    6  A    between atoms: O_16  and  C_17
REMARK    7  A    between atoms: C_17  and  C_18
REMARK    8  A    between atoms: C_18  and  C_19
REMARK                            x       y       z     vdW  Elec       q    Type
REMARK                         _______ _______ _______ _____ _____    ______ ____
ROOT
ATOM      1  C   UNL     1       3.293   4.190  19.720  0.00  0.00    +0.000 C 
ENDROOT
BRANCH   1  11
ATOM      2  C   UNL     1       6.912   4.900  16.540  0.00  0.00    +0.000 A 
ATOM      3  N   UNL     1       7.829   5.251  17.462  0.00  0.00    +0.000 NA
ATOM      4  C   UNL     1       7.451   5.316  18.759  0.00  0.00    +0.000 A 
ATOM      5  F   UNL     1       8.411   5.658  19.633  0.00  0.00    +0.000 F 
ATOM      6  N   UNL     1       6.229   5.077  19.284  0.00  0.00    +0.000 NA
ATOM      7  C   UNL     1       5.353   4.733  18.330  0.00  0.00    +0.000 A 
ATOM      8  C   UNL     1       5.597   4.643  16.967  0.00  0.00    +0.000 A 
ATOM      9  N   UNL     1       4.449   4.310  16.286  0.00  0.00    +0.000 NA
ATOM     10  C   UNL     1       3.536   4.154  17.217  0.00  0.00    +0.000 A 
ATOM     11  N   UNL     1       4.043   4.371  18.476  0.00  0.00    +0.000 N 
BRANCH   2  12
ATOM     12  N   UNL     1       7.298   4.823  15.208  0.00  0.00    +0.000 N 
ATOM     13  H   UNL     1       8.197   4.379  15.077  0.00  0.00    +0.000 HD
ATOM     14  H   UNL     1       7.076   5.639  14.657  0.00  0.00    +0.000 HD
ENDBRANCH   2  12
ENDBRANCH   1  11
BRANCH   1  15
ATOM     15  N   UNL     1       1.970   4.827  19.719  0.00  0.00    +0.000 N 
ATOM     16  C   UNL     1       1.682   6.056  20.213  0.00  0.00    +0.000 C 
ATOM     17  O   UNL     1       0.656   6.273  20.833  0.00  0.00    +0.000 OA
ATOM     18  H   UNL     1       1.175   4.199  19.781  0.00  0.00    +0.000 HD
BRANCH  16  19
ATOM     19  O   UNL     1       2.544   7.004  19.768  0.00  0.00    +0.000 OA
BRANCH  19  20
ATOM     20  C   UNL     1       1.952   8.317  19.814  0.00  0.00    +0.000 C 
BRANCH  20  21
ATOM     21  C   UNL     1       1.960   9.002  18.457  0.00  0.00    +0.000 C 
BRANCH  21  22
ATOM     22  C   UNL     1       1.155  10.276  18.520  0.00  0.00    +0.000 A 
ATOM     23  C   UNL     1      -0.237  10.240  18.574  0.00  0.00    +0.000 A 
ATOM     24  C   UNL     1      -0.942  11.443  18.600  0.00  0.00    +0.000 A 
ATOM     25  C   UNL     1      -0.246  12.643  18.559  0.00  0.00    +0.000 A 
ATOM     26  C   UNL     1       1.135  12.591  18.489  0.00  0.00    +0.000 A 
ATOM     27  N   UNL     1       1.846  11.441  18.463  0.00  0.00    +0.000 NA
ENDBRANCH  21  22
ENDBRANCH  20  21
ENDBRANCH  19  20
ENDBRANCH  16  19
ENDBRANCH   1  15
BRANCH   1  28
ATOM     28  C   UNL     1       3.218   2.686  20.224  0.00  0.00    +0.000 C 
ATOM     29 CL   UNL     1       4.798   1.840  20.380  0.00  0.00    +0.000 Cl
ATOM     30 CL   UNL     1       2.431   2.643  21.853  0.00  0.00    +0.000 Cl
ATOM     31 CL   UNL     1       2.198   1.649  19.135  0.00  0.00    +0.000 Cl
ENDBRANCH   1  28
TORSDOF 8
ENDMDL
MODEL 8
REMARK VINA RESULT:      -7.3      0.796      1.409
REMARK  Name = 
REMARK  8 active torsions:
REMARK  status: ('A' for Active; 'I' for Inactive)
REMARK    1  A    between atoms: N_1  and  C_2
REMARK    2  A    between atoms: N_11  and  C_12
REMARK    3  A    between atoms: C_12  and  N_13
REMARK    4  A    between atoms: C_12  and  C_25
REMARK    5  A    between atoms: C_14  and  O_16
REMARK    6  A    between atoms: O_16  and  C_17
REMARK    7  A    between atoms: C_17  and  C_18
REMARK    8  A    between atoms: C_18  and  C_19
REMARK                            x       y       z     vdW  Elec       q    Type
REMARK                         _______ _______ _______ _____ _____    ______ ____
ROOT
ATOM      1  C   UNL     1       3.315   4.241  19.779  0.00  0.00    +0.000 C 
ENDROOT
BRANCH   1  11
ATOM      2  C   UNL     1       6.910   4.981  16.580  0.00  0.00    +0.000 A 
ATOM      3  N   UNL     1       7.833   5.324  17.499  0.00  0.00    +0.000 NA
ATOM      4  C   UNL     1       7.465   5.378  18.799  0.00  0.00    +0.000 A 
ATOM      5  F   UNL     1       8.431   5.712  19.670  0.00  0.00    +0.000 F 
ATOM      6  N   UNL     1       6.247   5.134  19.331  0.00  0.00    +0.000 NA
ATOM      7  C   UNL     1       5.365   4.798  18.380  0.00  0.00    +0.000 A 
ATOM      8  C   UNL     1       5.598   4.719  17.014  0.00  0.00    +0.000 A 
ATOM      9  N   UNL     1       4.447   4.392  16.339  0.00  0.00    +0.000 NA
ATOM     10  C   UNL     1       3.540   4.227  17.275  0.00  0.00    +0.000 A 
ATOM     11  N   UNL     1       4.056   4.434  18.532  0.00  0.00    +0.000 N 
BRANCH   2  12
ATOM     12  N   UNL     1       7.287   4.916  15.245  0.00  0.00    +0.000 N 
ATOM     13  H   UNL     1       8.187   4.478  15.105  0.00  0.00    +0.000 HD
ATOM     14  H   UNL     1       7.057   5.735  14.702  0.00  0.00    +0.000 HD
ENDBRANCH   2  12
ENDBRANCH   1  11
BRANCH   1  15
ATOM     15  N   UNL     1       2.025   4.942  19.824  0.00  0.00    +0.000 N 
ATOM     16  C   UNL     1       1.849   6.262  20.073  0.00  0.00    +0.000 C 
ATOM     17  O   UNL     1       0.932   6.667  20.768  0.00  0.00    +0.000 OA
ATOM     18  H   UNL     1       1.230   4.390  20.131  0.00  0.00    +0.000 HD
BRANCH  16  19
ATOM     19  O   UNL     1       2.661   7.041  19.317  0.00  0.00    +0.000 OA
BRANCH  19  20
ATOM     20  C   UNL     1       2.209   8.409  19.295  0.00  0.00    +0.000 C 
BRANCH  20  21
ATOM     21  C   UNL     1       1.551   8.778  17.975  0.00  0.00    +0.000 C 
BRANCH  21  22
ATOM     22  C   UNL     1       0.461   9.794  18.210  0.00  0.00    +0.000 A 
ATOM     23  C   UNL     1       0.620  10.808  19.152  0.00  0.00    +0.000 A 
ATOM     24  C   UNL     1      -0.426  11.707  19.359  0.00  0.00    +0.000 A 
ATOM     25  C   UNL     1      -1.600  11.565  18.633  0.00  0.00    +0.000 A 
ATOM     26  C   UNL     1      -1.683  10.521  17.728  0.00  0.00    +0.000 A 
ATOM     27  N   UNL     1      -0.687   9.635  17.506  0.00  0.00    +0.000 NA
ENDBRANCH  21  22
ENDBRANCH  20  21
ENDBRANCH  19  20
ENDBRANCH  16  19
ENDBRANCH   1  15
BRANCH   1  28
ATOM     28  C   UNL     1       3.172   2.723  20.227  0.00  0.00    +0.000 C 
ATOM     29 CL   UNL     1       2.393   2.456  21.825  0.00  0.00    +0.000 Cl
ATOM     30 CL   UNL     1       2.184   1.832  19.000  0.00  0.00    +0.000 Cl
ATOM     31 CL   UNL     1       4.778   1.878  20.302  0.00  0.00    +0.000 Cl
ENDBRANCH   1  28
TORSDOF 8
ENDMDL
MODEL 9
REMARK VINA RESULT:      -7.3      2.856      7.068
REMARK  Name = 
REMARK  8 active torsions:
REMARK  status: ('A' for Active; 'I' for Inactive)
REMARK    1  A    between atoms: N_1  and  C_2
REMARK    2  A    between atoms: N_11  and  C_12
REMARK    3  A    between atoms: C_12  and  N_13
REMARK    4  A    between atoms: C_12  and  C_25
REMARK    5  A    between atoms: C_14  and  O_16
REMARK    6  A    between atoms: O_16  and  C_17
REMARK    7  A    between atoms: C_17  and  C_18
REMARK    8  A    between atoms: C_18  and  C_19
REMARK                            x       y       z     vdW  Elec       q    Type
REMARK                         _______ _______ _______ _____ _____    ______ ____
ROOT
ATOM      1  C   UNL     1       3.628   5.201  18.960  0.00  0.00    +0.000 C 
ENDROOT
BRANCH   1  11
ATOM      2  C   UNL     1       0.795   8.986  20.126  0.00  0.00    +0.000 A 
ATOM      3  N   UNL     1       1.149   9.744  19.069  0.00  0.00    +0.000 NA
ATOM      4  C   UNL     1       2.073   9.263  18.208  0.00  0.00    +0.000 A 
ATOM      5  F   UNL     1       2.376  10.057  17.168  0.00  0.00    +0.000 F 
ATOM      6  N   UNL     1       2.729   8.083  18.263  0.00  0.00    +0.000 NA
ATOM      7  C   UNL     1       2.345   7.367  19.328  0.00  0.00    +0.000 A 
ATOM      8  C   UNL     1       1.425   7.741  20.297  0.00  0.00    +0.000 A 
ATOM      9  N   UNL     1       1.318   6.774  21.269  0.00  0.00    +0.000 NA
ATOM     10  C   UNL     1       2.120   5.810  20.878  0.00  0.00    +0.000 A 
ATOM     11  N   UNL     1       2.743   6.110  19.690  0.00  0.00    +0.000 N 
BRANCH   2  12
ATOM     12  N   UNL     1      -0.161   9.473  21.008  0.00  0.00    +0.000 N 
ATOM     13  H   UNL     1      -0.563  10.353  20.715  0.00  0.00    +0.000 HD
ATOM     14  H   UNL     1       0.061   9.342  21.983  0.00  0.00    +0.000 HD
ENDBRANCH   2  12
ENDBRANCH   1  11
BRANCH   1  15
ATOM     15  N   UNL     1       5.002   5.160  19.475  0.00  0.00    +0.000 N 
ATOM     16  C   UNL     1       6.130   5.276  18.732  0.00  0.00    +0.000 C 
ATOM     17  O   UNL     1       7.116   4.593  18.952  0.00  0.00    +0.000 OA
ATOM     18  H   UNL     1       5.150   4.588  20.300  0.00  0.00    +0.000 HD
BRANCH  16  19
ATOM     19  O   UNL     1       6.086   6.340  17.894  0.00  0.00    +0.000 OA
BRANCH  19  20
ATOM     20  C   UNL     1       6.749   6.056  16.646  0.00  0.00    +0.000 C 
BRANCH  20  21
ATOM     21  C   UNL     1       6.369   4.694  16.088  0.00  0.00    +0.000 C 
BRANCH  21  22
ATOM     22  C   UNL     1       6.677   4.639  14.612  0.00  0.00    +0.000 A 
ATOM     23  C   UNL     1       5.977   3.780  13.768  0.00  0.00    +0.000 A 
ATOM     24  C   UNL     1       6.315   3.739  12.415  0.00  0.00    +0.000 A 
ATOM     25  C   UNL     1       7.343   4.543  11.945  0.00  0.00    +0.000 A 
ATOM     26  C   UNL     1       7.999   5.357  12.852  0.00  0.00    +0.000 A 
ATOM     27  N   UNL     1       7.694   5.418  14.168  0.00  0.00    +0.000 NA
ENDBRANCH  21  22
ENDBRANCH  20  21
ENDBRANCH  19  20
ENDBRANCH  16  19
ENDBRANCH   1  15
BRANCH   1  28
ATOM     28  C   UNL     1       3.036   3.741  18.753  0.00  0.00    +0.000 C 
ATOM     29 CL   UNL     1       3.861   2.740  17.507  0.00  0.00    +0.000 Cl
ATOM     30 CL   UNL     1       3.135   2.832  20.314  0.00  0.00    +0.000 Cl
ATOM     31 CL   UNL     1       1.280   3.774  18.290  0.00  0.00    +0.000 Cl
ENDBRANCH   1  28
TORSDOF 8
ENDMDL
