MODEL 1
REMARK VINA RESULT:      -6.8      0.000      0.000
REMARK  Name = 
REMARK  12 active torsions:
REMARK  status: ('A' for Active; 'I' for Inactive)
REMARK    1  A    between atoms: P_2  and  O_3
REMARK    2  A    between atoms: P_2  and  O_4
REMARK    3  A    between atoms: P_2  and  O_5
REMARK    4  A    between atoms: O_5  and  C_6
REMARK    5  A    between atoms: C_7  and  O_8
REMARK    6  A    between atoms: C_9  and  O_10
REMARK    7  A    between atoms: C_11  and  O_12
REMARK    8  A    between atoms: C_13  and  O_14
REMARK    9  A    between atoms: C_15  and  O_16
REMARK   10  A    between atoms: O_16  and  P_17
REMARK   11  A    between atoms: P_17  and  O_19
REMARK   12  A    between atoms: P_17  and  O_20
REMARK                            x       y       z     vdW  Elec       q    Type
REMARK                         _______ _______ _______ _____ _____    ______ ____
ROOT
ATOM      1  C   UNL     1       2.772   3.881  17.775  0.00  0.00    +0.000 C 
ATOM      2  C   UNL     1       3.548   2.685  18.397  0.00  0.00    +0.000 C 
ATOM      3  C   UNL     1       4.343   3.111  19.643  0.00  0.00    +0.000 C 
ATOM      4  C   UNL     1       5.337   4.245  19.324  0.00  0.00    +0.000 C 
ATOM      5  C   UNL     1       4.580   5.451  18.730  0.00  0.00    +0.000 C 
ATOM      6  C   UNL     1       3.751   5.069  17.486  0.00  0.00    +0.000 C 
ENDROOT
BRANCH   2   7
ATOM      7  O   UNL     1       4.489   2.117  17.462  0.00  0.00    +0.000 OA
ATOM      8  H   UNL     1       4.409   1.144  17.494  0.00  0.00    +0.000 HD
ENDBRANCH   2   7
BRANCH   3   9
ATOM      9  O   UNL     1       5.059   1.980  20.152  0.00  0.00    +0.000 OA
ATOM     10  H   UNL     1       5.845   1.888  19.577  0.00  0.00    +0.000 HD
ENDBRANCH   3   9
BRANCH   4  11
ATOM     11  O   UNL     1       6.380   3.798  18.447  0.00  0.00    +0.000 OA
ATOM     12  H   UNL     1       7.156   3.575  19.007  0.00  0.00    +0.000 HD
ENDBRANCH   4  11
BRANCH   5  13
ATOM     13  O   UNL     1       3.711   6.017  19.717  0.00  0.00    +0.000 OA
ATOM     14  H   UNL     1       3.743   6.986  19.647  0.00  0.00    +0.000 HD
ENDBRANCH   5  13
BRANCH   1  15
ATOM     15  O   UNL     1       1.549   4.197  18.515  0.00  0.00    +0.000 OA
BRANCH  15  17
ATOM     16  O   UNL     1       1.280   2.533  21.327  0.00  0.00    +0.000 OA
ATOM     17  P   UNL     1       1.407   3.319  19.998  0.00  0.00    +0.000 P 
BRANCH  17  18
ATOM     18  O   UNL     1      -0.141   2.973  19.599  0.00  0.00    +0.000 OA
ATOM     19  H   UNL     1      -0.237   3.127  18.640  0.00  0.00    +0.000 HD
ENDBRANCH  17  18
BRANCH  17  20
ATOM     20  O   UNL     1       1.079   4.750  20.710  0.00  0.00    +0.000 OA
ATOM     21  H   UNL     1       1.149   5.452  20.039  0.00  0.00    +0.000 HD
ENDBRANCH  17  20
ENDBRANCH  15  17
ENDBRANCH   1  15
BRANCH   6  22
ATOM     22  O   UNL     1       4.627   4.582  16.463  0.00  0.00    +0.000 OA
BRANCH  22  23
ATOM     23  P   UNL     1       5.604   5.431  15.539  0.00  0.00    +0.000 P 
ATOM     24  O   UNL     1       5.155   6.828  15.263  0.00  0.00    +0.000 OA
BRANCH  23  25
ATOM     25  O   UNL     1       7.065   5.328  16.150  0.00  0.00    +0.000 OA
ATOM     26  H   UNL     1       7.594   6.117  15.976  0.00  0.00    +0.000 HD
ENDBRANCH  23  25
BRANCH  23  27
ATOM     27  O   UNL     1       5.772   4.631  14.178  0.00  0.00    +0.000 OA
ATOM     28  H   UNL     1       5.688   3.669  14.369  0.00  0.00    +0.000 HD
ENDBRANCH  23  27
ENDBRANCH  22  23
ENDBRANCH   6  22
TORSDOF 12
ENDMDL
MODEL 2
REMARK VINA RESULT:      -6.7      2.265      5.064
REMARK  Name = 
REMARK  12 active torsions:
REMARK  status: ('A' for Active; 'I' for Inactive)
REMARK    1  A    between atoms: P_2  and  O_3
REMARK    2  A    between atoms: P_2  and  O_4
REMARK    3  A    between atoms: P_2  and  O_5
REMARK    4  A    between atoms: O_5  and  C_6
REMARK    5  A    between atoms: C_7  and  O_8
REMARK    6  A    between atoms: C_9  and  O_10
REMARK    7  A    between atoms: C_11  and  O_12
REMARK    8  A    between atoms: C_13  and  O_14
REMARK    9  A    between atoms: C_15  and  O_16
REMARK   10  A    between atoms: O_16  and  P_17
REMARK   11  A    between atoms: P_17  and  O_19
REMARK   12  A    between atoms: P_17  and  O_20
REMARK                            x       y       z     vdW  Elec       q    Type
REMARK                         _______ _______ _______ _____ _____    ______ ____
ROOT
ATOM      1  C   UNL     1       5.481   4.546  17.059  0.00  0.00    +0.000 C 
ATOM      2  C   UNL     1       4.525   3.612  17.855  0.00  0.00    +0.000 C 
ATOM      3  C   UNL     1       3.153   4.267  18.082  0.00  0.00    +0.000 C 
ATOM      4  C   UNL     1       3.279   5.610  18.829  0.00  0.00    +0.000 C 
ATOM      5  C   UNL     1       4.204   6.559  18.039  0.00  0.00    +0.000 C 
ATOM      6  C   UNL     1       5.590   5.939  17.769  0.00  0.00    +0.000 C 
ENDROOT
BRANCH   2   7
ATOM      7  O   UNL     1       5.063   3.280  19.152  0.00  0.00    +0.000 OA
ATOM      8  H   UNL     1       5.749   3.938  19.380  0.00  0.00    +0.000 HD
ENDBRANCH   2   7
BRANCH   3   9
ATOM      9  O   UNL     1       2.329   3.376  18.844  0.00  0.00    +0.000 OA
ATOM     10  H   UNL     1       1.624   3.084  18.231  0.00  0.00    +0.000 HD
ENDBRANCH   3   9
BRANCH   4  11
ATOM     11  O   UNL     1       3.745   5.423  20.173  0.00  0.00    +0.000 OA
ATOM     12  H   UNL     1       3.674   4.464  20.374  0.00  0.00    +0.000 HD
ENDBRANCH   4  11
BRANCH   5  13
ATOM     13  O   UNL     1       3.596   6.910  16.792  0.00  0.00    +0.000 OA
ATOM     14  H   UNL     1       2.652   6.677  16.825  0.00  0.00    +0.000 HD
ENDBRANCH   5  13
BRANCH   1  15
ATOM     15  O   UNL     1       5.186   4.557  15.625  0.00  0.00    +0.000 OA
BRANCH  15  17
ATOM     16  O   UNL     1       7.777   5.362  13.786  0.00  0.00    +0.000 OA
ATOM     17  P   UNL     1       6.553   4.982  14.655  0.00  0.00    +0.000 P 
BRANCH  17  18
ATOM     18  O   UNL     1       6.374   3.566  13.854  0.00  0.00    +0.000 OA
ATOM     19  H   UNL     1       7.171   3.440  13.303  0.00  0.00    +0.000 HD
ENDBRANCH  17  18
BRANCH  17  20
ATOM     20  O   UNL     1       7.480   4.378  15.854  0.00  0.00    +0.000 OA
ATOM     21  H   UNL     1       7.821   5.119  16.384  0.00  0.00    +0.000 HD
ENDBRANCH  17  20
ENDBRANCH  15  17
ENDBRANCH   1  15
BRANCH   6  22
ATOM     22  O   UNL     1       6.240   5.665  19.015  0.00  0.00    +0.000 OA
BRANCH  22  23
ATOM     23  P   UNL     1       7.803   5.561  19.291  0.00  0.00    +0.000 P 
ATOM     24  O   UNL     1       8.498   4.454  18.568  0.00  0.00    +0.000 OA
BRANCH  23  25
ATOM     25  O   UNL     1       8.438   6.994  19.046  0.00  0.00    +0.000 OA
ATOM     26  H   UNL     1       7.783   7.702  19.100  0.00  0.00    +0.000 HD
ENDBRANCH  23  25
BRANCH  23  27
ATOM     27  O   UNL     1       7.990   5.394  20.859  0.00  0.00    +0.000 OA
ATOM     28  H   UNL     1       8.887   5.720  21.102  0.00  0.00    +0.000 HD
ENDBRANCH  23  27
ENDBRANCH  22  23
ENDBRANCH   6  22
TORSDOF 12
ENDMDL
MODEL 3
REMARK VINA RESULT:      -6.7      0.138      1.006
REMARK  Name = 
REMARK  12 active torsions:
REMARK  status: ('A' for Active; 'I' for Inactive)
REMARK    1  A    between atoms: P_2  and  O_3
REMARK    2  A    between atoms: P_2  and  O_4
REMARK    3  A    between atoms: P_2  and  O_5
REMARK    4  A    between atoms: O_5  and  C_6
REMARK    5  A    between atoms: C_7  and  O_8
REMARK    6  A    between atoms: C_9  and  O_10
REMARK    7  A    between atoms: C_11  and  O_12
REMARK    8  A    between atoms: C_13  and  O_14
REMARK    9  A    between atoms: C_15  and  O_16
REMARK   10  A    between atoms: O_16  and  P_17
REMARK   11  A    between atoms: P_17  and  O_19
REMARK   12  A    between atoms: P_17  and  O_20
REMARK                            x       y       z     vdW  Elec       q    Type
REMARK                         _______ _______ _______ _____ _____    ______ ____
ROOT
ATOM      1  C   UNL     1       2.801   3.902  17.747  0.00  0.00    +0.000 C 
ATOM      2  C   UNL     1       3.582   2.714  18.377  0.00  0.00    +0.000 C 
ATOM      3  C   UNL     1       4.364   3.149  19.627  0.00  0.00    +0.000 C 
ATOM      4  C   UNL     1       5.352   4.290  19.312  0.00  0.00    +0.000 C 
ATOM      5  C   UNL     1       4.589   5.488  18.711  0.00  0.00    +0.000 C 
ATOM      6  C   UNL     1       3.772   5.097  17.462  0.00  0.00    +0.000 C 
ENDROOT
BRANCH   2   7
ATOM      7  O   UNL     1       4.534   2.152  17.449  0.00  0.00    +0.000 OA
ATOM      8  H   UNL     1       4.691   2.800  16.735  0.00  0.00    +0.000 HD
ENDBRANCH   2   7
BRANCH   3   9
ATOM      9  O   UNL     1       5.087   2.024  20.143  0.00  0.00    +0.000 OA
ATOM     10  H   UNL     1       5.874   2.400  20.585  0.00  0.00    +0.000 HD
ENDBRANCH   3   9
BRANCH   4  11
ATOM     11  O   UNL     1       6.405   3.850  18.443  0.00  0.00    +0.000 OA
ATOM     12  H   UNL     1       6.353   4.392  17.626  0.00  0.00    +0.000 HD
ENDBRANCH   4  11
BRANCH   5  13
ATOM     13  O   UNL     1       3.709   6.049  19.691  0.00  0.00    +0.000 OA
ATOM     14  H   UNL     1       2.812   5.704  19.543  0.00  0.00    +0.000 HD
ENDBRANCH   5  13
BRANCH   1  15
ATOM     15  O   UNL     1       1.570   4.210  18.478  0.00  0.00    +0.000 OA
BRANCH  15  17
ATOM     16  O   UNL     1       1.284   2.532  21.280  0.00  0.00    +0.000 OA
ATOM     17  P   UNL     1       1.419   3.324  19.956  0.00  0.00    +0.000 P 
BRANCH  17  18
ATOM     18  O   UNL     1      -0.123   2.970  19.540  0.00  0.00    +0.000 OA
ATOM     19  H   UNL     1      -0.696   3.252  20.279  0.00  0.00    +0.000 HD
ENDBRANCH  17  18
BRANCH  17  20
ATOM     20  O   UNL     1       1.075   4.750  20.671  0.00  0.00    +0.000 OA
ATOM     21  H   UNL     1       0.200   5.047  20.364  0.00  0.00    +0.000 HD
ENDBRANCH  17  20
ENDBRANCH  15  17
ENDBRANCH   1  15
BRANCH   6  22
ATOM     22  O   UNL     1       4.658   4.615  16.446  0.00  0.00    +0.000 OA
BRANCH  22  23
ATOM     23  P   UNL     1       5.569   5.476  15.466  0.00  0.00    +0.000 P 
ATOM     24  O   UNL     1       5.845   4.841  14.143  0.00  0.00    +0.000 OA
BRANCH  23  25
ATOM     25  O   UNL     1       4.941   6.930  15.369  0.00  0.00    +0.000 OA
ATOM     26  H   UNL     1       4.435   7.060  14.557  0.00  0.00    +0.000 HD
ENDBRANCH  23  25
BRANCH  23  27
ATOM     27  O   UNL     1       6.930   5.769  16.229  0.00  0.00    +0.000 OA
ATOM     28  H   UNL     1       7.548   5.021  16.063  0.00  0.00    +0.000 HD
ENDBRANCH  23  27
ENDBRANCH  22  23
ENDBRANCH   6  22
TORSDOF 12
ENDMDL
MODEL 4
REMARK VINA RESULT:      -6.6      2.270      4.834
REMARK  Name = 
REMARK  12 active torsions:
REMARK  status: ('A' for Active; 'I' for Inactive)
REMARK    1  A    between atoms: P_2  and  O_3
REMARK    2  A    between atoms: P_2  and  O_4
REMARK    3  A    between atoms: P_2  and  O_5
REMARK    4  A    between atoms: O_5  and  C_6
REMARK    5  A    between atoms: C_7  and  O_8
REMARK    6  A    between atoms: C_9  and  O_10
REMARK    7  A    between atoms: C_11  and  O_12
REMARK    8  A    between atoms: C_13  and  O_14
REMARK    9  A    between atoms: C_15  and  O_16
REMARK   10  A    between atoms: O_16  and  P_17
REMARK   11  A    between atoms: P_17  and  O_19
REMARK   12  A    between atoms: P_17  and  O_20
REMARK                            x       y       z     vdW  Elec       q    Type
REMARK                         _______ _______ _______ _____ _____    ______ ____
ROOT
ATOM      1  C   UNL     1       5.400   4.394  17.210  0.00  0.00    +0.000 C 
ATOM      2  C   UNL     1       4.585   3.385  18.069  0.00  0.00    +0.000 C 
ATOM      3  C   UNL     1       3.175   3.915  18.380  0.00  0.00    +0.000 C 
ATOM      4  C   UNL     1       3.225   5.271  19.110  0.00  0.00    +0.000 C 
ATOM      5  C   UNL     1       4.007   6.293  18.259  0.00  0.00    +0.000 C 
ATOM      6  C   UNL     1       5.425   5.798  17.904  0.00  0.00    +0.000 C 
ENDROOT
BRANCH   2   7
ATOM      7  O   UNL     1       5.231   3.118  19.331  0.00  0.00    +0.000 OA
ATOM      8  H   UNL     1       4.608   3.338  20.051  0.00  0.00    +0.000 HD
ENDBRANCH   2   7
BRANCH   3   9
ATOM      9  O   UNL     1       2.486   2.961  19.196  0.00  0.00    +0.000 OA
ATOM     10  H   UNL     1       2.975   2.940  20.043  0.00  0.00    +0.000 HD
ENDBRANCH   3   9
BRANCH   4  11
ATOM     11  O   UNL     1       3.789   5.142  20.423  0.00  0.00    +0.000 OA
ATOM     12  H   UNL     1       4.536   4.507  20.357  0.00  0.00    +0.000 HD
ENDBRANCH   4  11
BRANCH   5  13
ATOM     13  O   UNL     1       3.292   6.573  17.051  0.00  0.00    +0.000 OA
ATOM     14  H   UNL     1       2.909   7.465  17.111  0.00  0.00    +0.000 HD
ENDBRANCH   5  13
BRANCH   1  15
ATOM     15  O   UNL     1       5.016   4.362  15.798  0.00  0.00    +0.000 OA
BRANCH  15  17
ATOM     16  O   UNL     1       7.419   5.332  13.790  0.00  0.00    +0.000 OA
ATOM     17  P   UNL     1       6.283   4.874  14.738  0.00  0.00    +0.000 P 
BRANCH  17  18
ATOM     18  O   UNL     1       6.190   3.423  13.989  0.00  0.00    +0.000 OA
ATOM     19  H   UNL     1       6.310   2.734  14.671  0.00  0.00    +0.000 HD
ENDBRANCH  17  18
BRANCH  17  20
ATOM     20  O   UNL     1       7.325   4.395  15.899  0.00  0.00    +0.000 OA
ATOM     21  H   UNL     1       7.097   4.852  16.727  0.00  0.00    +0.000 HD
ENDBRANCH  17  20
ENDBRANCH  15  17
ENDBRANCH   1  15
BRANCH   6  22
ATOM     22  O   UNL     1       6.174   5.598  19.108  0.00  0.00    +0.000 OA
BRANCH  22  23
ATOM     23  P   UNL     1       7.748   5.716  19.301  0.00  0.00    +0.000 P 
ATOM     24  O   UNL     1       8.352   6.985  18.796  0.00  0.00    +0.000 OA
BRANCH  23  25
ATOM     25  O   UNL     1       8.078   5.401  20.821  0.00  0.00    +0.000 OA
ATOM     26  H   UNL     1       7.319   5.543  21.400  0.00  0.00    +0.000 HD
ENDBRANCH  23  25
BRANCH  23  27
ATOM     27  O   UNL     1       8.403   4.468  18.569  0.00  0.00    +0.000 OA
ATOM     28  H   UNL     1       8.087   4.452  17.637  0.00  0.00    +0.000 HD
ENDBRANCH  23  27
ENDBRANCH  22  23
ENDBRANCH   6  22
TORSDOF 12
ENDMDL
MODEL 5
REMARK VINA RESULT:      -6.5      2.236      4.757
REMARK  Name = 
REMARK  12 active torsions:
REMARK  status: ('A' for Active; 'I' for Inactive)
REMARK    1  A    between atoms: P_2  and  O_3
REMARK    2  A    between atoms: P_2  and  O_4
REMARK    3  A    between atoms: P_2  and  O_5
REMARK    4  A    between atoms: O_5  and  C_6
REMARK    5  A    between atoms: C_7  and  O_8
REMARK    6  A    between atoms: C_9  and  O_10
REMARK    7  A    between atoms: C_11  and  O_12
REMARK    8  A    between atoms: C_13  and  O_14
REMARK    9  A    between atoms: C_15  and  O_16
REMARK   10  A    between atoms: O_16  and  P_17
REMARK   11  A    between atoms: P_17  and  O_19
REMARK   12  A    between atoms: P_17  and  O_20
REMARK                            x       y       z     vdW  Elec       q    Type
REMARK                         _______ _______ _______ _____ _____    ______ ____
ROOT
ATOM      1  C   UNL     1       4.505   4.700  19.202  0.00  0.00    +0.000 C 
ATOM      2  C   UNL     1       3.508   3.604  19.675  0.00  0.00    +0.000 C 
ATOM      3  C   UNL     1       3.440   2.432  18.681  0.00  0.00    +0.000 C 
ATOM      4  C   UNL     1       3.037   2.904  17.270  0.00  0.00    +0.000 C 
ATOM      5  C   UNL     1       4.032   3.973  16.774  0.00  0.00    +0.000 C 
ATOM      6  C   UNL     1       4.149   5.164  17.749  0.00  0.00    +0.000 C 
ENDROOT
BRANCH   2   7
ATOM      7  O   UNL     1       2.170   4.126  19.813  0.00  0.00    +0.000 OA
ATOM      8  H   UNL     1       2.144   5.020  19.419  0.00  0.00    +0.000 HD
ENDBRANCH   2   7
BRANCH   3   9
ATOM      9  O   UNL     1       2.486   1.473  19.152  0.00  0.00    +0.000 OA
ATOM     10  H   UNL     1       2.968   0.623  19.191  0.00  0.00    +0.000 HD
ENDBRANCH   3   9
BRANCH   4  11
ATOM     11  O   UNL     1       1.688   3.392  17.244  0.00  0.00    +0.000 OA
ATOM     12  H   UNL     1       1.115   2.648  16.955  0.00  0.00    +0.000 HD
ENDBRANCH   4  11
BRANCH   5  13
ATOM     13  O   UNL     1       5.326   3.389  16.590  0.00  0.00    +0.000 OA
ATOM     14  H   UNL     1       5.826   3.461  17.421  0.00  0.00    +0.000 HD
ENDBRANCH   5  13
BRANCH   1  15
ATOM     15  O   UNL     1       5.899   4.332  19.455  0.00  0.00    +0.000 OA
BRANCH  15  17
ATOM     16  O   UNL     1       8.034   6.601  18.435  0.00  0.00    +0.000 OA
ATOM     17  P   UNL     1       7.025   5.529  18.917  0.00  0.00    +0.000 P 
BRANCH  17  18
ATOM     18  O   UNL     1       7.842   4.350  18.129  0.00  0.00    +0.000 OA
ATOM     19  H   UNL     1       7.486   4.306  17.221  0.00  0.00    +0.000 HD
ENDBRANCH  17  18
BRANCH  17  20
ATOM     20  O   UNL     1       7.785   5.329  20.347  0.00  0.00    +0.000 OA
ATOM     21  H   UNL     1       8.452   6.031  20.444  0.00  0.00    +0.000 HD
ENDBRANCH  17  20
ENDBRANCH  15  17
ENDBRANCH   1  15
BRANCH   6  22
ATOM     22  O   UNL     1       2.875   5.805  17.870  0.00  0.00    +0.000 OA
BRANCH  22  23
ATOM     23  P   UNL     1       2.583   7.303  18.320  0.00  0.00    +0.000 P 
ATOM     24  O   UNL     1       1.414   7.946  17.650  0.00  0.00    +0.000 OA
BRANCH  23  25
ATOM     25  O   UNL     1       2.519   7.332  19.906  0.00  0.00    +0.000 OA
ATOM     26  H   UNL     1       2.390   6.454  20.286  0.00  0.00    +0.000 HD
ENDBRANCH  23  25
BRANCH  23  27
ATOM     27  O   UNL     1       3.904   8.140  18.041  0.00  0.00    +0.000 OA
ATOM     28  H   UNL     1       3.645   9.061  17.807  0.00  0.00    +0.000 HD
ENDBRANCH  23  27
ENDBRANCH  22  23
ENDBRANCH   6  22
TORSDOF 12
ENDMDL
MODEL 6
REMARK VINA RESULT:      -6.4      2.239      4.778
REMARK  Name = 
REMARK  12 active torsions:
REMARK  status: ('A' for Active; 'I' for Inactive)
REMARK    1  A    between atoms: P_2  and  O_3
REMARK    2  A    between atoms: P_2  and  O_4
REMARK    3  A    between atoms: P_2  and  O_5
REMARK    4  A    between atoms: O_5  and  C_6
REMARK    5  A    between atoms: C_7  and  O_8
REMARK    6  A    between atoms: C_9  and  O_10
REMARK    7  A    between atoms: C_11  and  O_12
REMARK    8  A    between atoms: C_13  and  O_14
REMARK    9  A    between atoms: C_15  and  O_16
REMARK   10  A    between atoms: O_16  and  P_17
REMARK   11  A    between atoms: P_17  and  O_19
REMARK   12  A    between atoms: P_17  and  O_20
REMARK                            x       y       z     vdW  Elec       q    Type
REMARK                         _______ _______ _______ _____ _____    ______ ____
ROOT
ATOM      1  C   UNL     1       4.411   4.840  19.241  0.00  0.00    +0.000 C 
ATOM      2  C   UNL     1       3.379   3.823  19.807  0.00  0.00    +0.000 C 
ATOM      3  C   UNL     1       3.241   2.590  18.899  0.00  0.00    +0.000 C 
ATOM      4  C   UNL     1       2.828   2.981  17.466  0.00  0.00    +0.000 C 
ATOM      5  C   UNL     1       3.856   3.969  16.879  0.00  0.00    +0.000 C 
ATOM      6  C   UNL     1       4.044   5.218  17.765  0.00  0.00    +0.000 C 
ENDROOT
BRANCH   2   7
ATOM      7  O   UNL     1       2.067   4.411  19.933  0.00  0.00    +0.000 OA
ATOM      8  H   UNL     1       1.686   4.514  19.039  0.00  0.00    +0.000 HD
ENDBRANCH   2   7
BRANCH   3   9
ATOM      9  O   UNL     1       2.258   1.707  19.453  0.00  0.00    +0.000 OA
ATOM     10  H   UNL     1       1.989   2.115  20.300  0.00  0.00    +0.000 HD
ENDBRANCH   3   9
BRANCH   4  11
ATOM     11  O   UNL     1       1.501   3.523  17.431  0.00  0.00    +0.000 OA
ATOM     12  H   UNL     1       1.105   3.267  16.569  0.00  0.00    +0.000 HD
ENDBRANCH   4  11
BRANCH   5  13
ATOM     13  O   UNL     1       5.121   3.318  16.712  0.00  0.00    +0.000 OA
ATOM     14  H   UNL     1       5.182   2.582  17.344  0.00  0.00    +0.000 HD
ENDBRANCH   5  13
BRANCH   1  15
ATOM     15  O   UNL     1       5.793   4.430  19.494  0.00  0.00    +0.000 OA
BRANCH  15  17
ATOM     16  O   UNL     1       7.998   6.579  18.366  0.00  0.00    +0.000 OA
ATOM     17  P   UNL     1       6.956   5.564  18.898  0.00  0.00    +0.000 P 
BRANCH  17  18
ATOM     18  O   UNL     1       7.699   4.332  18.118  0.00  0.00    +0.000 OA
ATOM     19  H   UNL     1       7.922   3.656  18.786  0.00  0.00    +0.000 HD
ENDBRANCH  17  18
BRANCH  17  20
ATOM     20  O   UNL     1       7.744   5.362  20.313  0.00  0.00    +0.000 OA
ATOM     21  H   UNL     1       7.371   5.980  20.966  0.00  0.00    +0.000 HD
ENDBRANCH  17  20
ENDBRANCH  15  17
ENDBRANCH   1  15
BRANCH   6  22
ATOM     22  O   UNL     1       2.800   5.920  17.866  0.00  0.00    +0.000 OA
BRANCH  22  23
ATOM     23  P   UNL     1       2.569   7.414  18.361  0.00  0.00    +0.000 P 
ATOM     24  O   UNL     1       2.306   7.559  19.824  0.00  0.00    +0.000 OA
BRANCH  23  25
ATOM     25  O   UNL     1       3.774   8.297  17.828  0.00  0.00    +0.000 OA
ATOM     26  H   UNL     1       4.053   8.042  16.940  0.00  0.00    +0.000 HD
ENDBRANCH  23  25
BRANCH  23  27
ATOM     27  O   UNL     1       1.352   8.000  17.525  0.00  0.00    +0.000 OA
ATOM     28  H   UNL     1       0.724   8.430  18.149  0.00  0.00    +0.000 HD
ENDBRANCH  23  27
ENDBRANCH  22  23
ENDBRANCH   6  22
TORSDOF 12
ENDMDL
MODEL 7
REMARK VINA RESULT:      -6.4      2.192      4.911
REMARK  Name = 
REMARK  12 active torsions:
REMARK  status: ('A' for Active; 'I' for Inactive)
REMARK    1  A    between atoms: P_2  and  O_3
REMARK    2  A    between atoms: P_2  and  O_4
REMARK    3  A    between atoms: P_2  and  O_5
REMARK    4  A    between atoms: O_5  and  C_6
REMARK    5  A    between atoms: C_7  and  O_8
REMARK    6  A    between atoms: C_9  and  O_10
REMARK    7  A    between atoms: C_11  and  O_12
REMARK    8  A    between atoms: C_13  and  O_14
REMARK    9  A    between atoms: C_15  and  O_16
REMARK   10  A    between atoms: O_16  and  P_17
REMARK   11  A    between atoms: P_17  and  O_19
REMARK   12  A    between atoms: P_17  and  O_20
REMARK                            x       y       z     vdW  Elec       q    Type
REMARK                         _______ _______ _______ _____ _____    ______ ____
ROOT
ATOM      1  C   UNL     1       5.352   4.292  17.354  0.00  0.00    +0.000 C 
ATOM      2  C   UNL     1       4.477   3.364  18.244  0.00  0.00    +0.000 C 
ATOM      3  C   UNL     1       3.106   3.994  18.543  0.00  0.00    +0.000 C 
ATOM      4  C   UNL     1       3.247   5.366  19.232  0.00  0.00    +0.000 C 
ATOM      5  C   UNL     1       4.091   6.308  18.349  0.00  0.00    +0.000 C 
ATOM      6  C   UNL     1       5.472   5.711  18.006  0.00  0.00    +0.000 C 
ENDROOT
BRANCH   2   7
ATOM      7  O   UNL     1       5.109   3.093  19.512  0.00  0.00    +0.000 OA
ATOM      8  H   UNL     1       5.377   2.153  19.529  0.00  0.00    +0.000 HD
ENDBRANCH   2   7
BRANCH   3   9
ATOM      9  O   UNL     1       2.359   3.112  19.389  0.00  0.00    +0.000 OA
ATOM     10  H   UNL     1       2.993   2.798  20.064  0.00  0.00    +0.000 HD
ENDBRANCH   3   9
BRANCH   4  11
ATOM     11  O   UNL     1       3.807   5.239  20.547  0.00  0.00    +0.000 OA
ATOM     12  H   UNL     1       4.636   5.766  20.562  0.00  0.00    +0.000 HD
ENDBRANCH   4  11
BRANCH   5  13
ATOM     13  O   UNL     1       3.391   6.599  17.135  0.00  0.00    +0.000 OA
ATOM     14  H   UNL     1       3.271   5.774  16.635  0.00  0.00    +0.000 HD
ENDBRANCH   5  13
BRANCH   1  15
ATOM     15  O   UNL     1       4.960   4.244  15.944  0.00  0.00    +0.000 OA
BRANCH  15  17
ATOM     16  O   UNL     1       7.308   5.310  13.919  0.00  0.00    +0.000 OA
ATOM     17  P   UNL     1       6.199   4.806  14.876  0.00  0.00    +0.000 P 
BRANCH  17  18
ATOM     18  O   UNL     1       5.439   6.254  14.821  0.00  0.00    +0.000 OA
ATOM     19  H   UNL     1       4.623   6.135  14.297  0.00  0.00    +0.000 HD
ENDBRANCH  17  18
BRANCH  17  20
ATOM     20  O   UNL     1       5.342   4.123  13.667  0.00  0.00    +0.000 OA
ATOM     21  H   UNL     1       4.630   4.734  13.410  0.00  0.00    +0.000 HD
ENDBRANCH  17  20
ENDBRANCH  15  17
ENDBRANCH   1  15
BRANCH   6  22
ATOM     22  O   UNL     1       6.211   5.498  19.213  0.00  0.00    +0.000 OA
BRANCH  22  23
ATOM     23  P   UNL     1       7.792   5.483  19.392  0.00  0.00    +0.000 P 
ATOM     24  O   UNL     1       8.499   4.396  18.652  0.00  0.00    +0.000 OA
BRANCH  23  25
ATOM     25  O   UNL     1       8.332   6.941  19.077  0.00  0.00    +0.000 OA
ATOM     26  H   UNL     1       8.914   7.277  19.770  0.00  0.00    +0.000 HD
ENDBRANCH  23  25
BRANCH  23  27
ATOM     27  O   UNL     1       8.084   5.367  20.949  0.00  0.00    +0.000 OA
ATOM     28  H   UNL     1       8.368   4.445  21.145  0.00  0.00    +0.000 HD
ENDBRANCH  23  27
ENDBRANCH  22  23
ENDBRANCH   6  22
TORSDOF 12
ENDMDL
MODEL 8
REMARK VINA RESULT:      -6.4      2.223      4.181
REMARK  Name = 
REMARK  12 active torsions:
REMARK  status: ('A' for Active; 'I' for Inactive)
REMARK    1  A    between atoms: P_2  and  O_3
REMARK    2  A    between atoms: P_2  and  O_4
REMARK    3  A    between atoms: P_2  and  O_5
REMARK    4  A    between atoms: O_5  and  C_6
REMARK    5  A    between atoms: C_7  and  O_8
REMARK    6  A    between atoms: C_9  and  O_10
REMARK    7  A    between atoms: C_11  and  O_12
REMARK    8  A    between atoms: C_13  and  O_14
REMARK    9  A    between atoms: C_15  and  O_16
REMARK   10  A    between atoms: O_16  and  P_17
REMARK   11  A    between atoms: P_17  and  O_19
REMARK   12  A    between atoms: P_17  and  O_20
REMARK                            x       y       z     vdW  Elec       q    Type
REMARK                         _______ _______ _______ _____ _____    ______ ____
ROOT
ATOM      1  C   UNL     1       4.608   4.581  17.177  0.00  0.00    +0.000 C 
ATOM      2  C   UNL     1       5.468   4.995  15.949  0.00  0.00    +0.000 C 
ATOM      3  C   UNL     1       6.945   5.187  16.331  0.00  0.00    +0.000 C 
ATOM      4  C   UNL     1       7.114   6.242  17.441  0.00  0.00    +0.000 C 
ATOM      5  C   UNL     1       6.287   5.834  18.678  0.00  0.00    +0.000 C 
ATOM      6  C   UNL     1       4.798   5.611  18.342  0.00  0.00    +0.000 C 
ENDROOT
BRANCH   2   7
ATOM      7  O   UNL     1       5.009   6.235  15.372  0.00  0.00    +0.000 OA
ATOM      8  H   UNL     1       4.957   6.906  16.080  0.00  0.00    +0.000 HD
ENDBRANCH   2   7
BRANCH   3   9
ATOM      9  O   UNL     1       7.680   5.596  15.171  0.00  0.00    +0.000 OA
ATOM     10  H   UNL     1       7.937   6.525  15.339  0.00  0.00    +0.000 HD
ENDBRANCH   3   9
BRANCH   4  11
ATOM     11  O   UNL     1       6.754   7.553  16.981  0.00  0.00    +0.000 OA
ATOM     12  H   UNL     1       7.542   7.928  16.529  0.00  0.00    +0.000 HD
ENDBRANCH   4  11
BRANCH   5  13
ATOM     13  O   UNL     1       6.823   4.636  19.251  0.00  0.00    +0.000 OA
ATOM     14  H   UNL     1       6.226   4.328  19.954  0.00  0.00    +0.000 HD
ENDBRANCH   5  13
BRANCH   1  15
ATOM     15  O   UNL     1       4.762   3.165  17.515  0.00  0.00    +0.000 OA
BRANCH  15  17
ATOM     16  O   UNL     1       2.783   2.198  19.942  0.00  0.00    +0.000 OA
ATOM     17  P   UNL     1       3.718   2.655  18.796  0.00  0.00    +0.000 P 
BRANCH  17  18
ATOM     18  O   UNL     1       5.042   2.420  19.728  0.00  0.00    +0.000 OA
ATOM     19  H   UNL     1       5.818   2.416  19.137  0.00  0.00    +0.000 HD
ENDBRANCH  17  18
BRANCH  17  20
ATOM     20  O   UNL     1       3.738   1.178  18.104  0.00  0.00    +0.000 OA
ATOM     21  H   UNL     1       2.831   0.825  18.102  0.00  0.00    +0.000 HD
ENDBRANCH  17  20
ENDBRANCH  15  17
ENDBRANCH   1  15
BRANCH   6  22
ATOM     22  O   UNL     1       4.235   6.831  17.849  0.00  0.00    +0.000 OA
BRANCH  22  23
ATOM     23  P   UNL     1       2.750   7.364  18.052  0.00  0.00    +0.000 P 
ATOM     24  O   UNL     1       2.436   8.640  17.343  0.00  0.00    +0.000 OA
BRANCH  23  25
ATOM     25  O   UNL     1       1.754   6.175  17.717  0.00  0.00    +0.000 OA
ATOM     26  H   UNL     1       0.829   6.421  17.844  0.00  0.00    +0.000 HD
ENDBRANCH  23  25
BRANCH  23  27
ATOM     27  O   UNL     1       2.525   7.535  19.615  0.00  0.00    +0.000 OA
ATOM     28  H   UNL     1       3.367   7.321  20.076  0.00  0.00    +0.000 HD
ENDBRANCH  23  27
ENDBRANCH  22  23
ENDBRANCH   6  22
TORSDOF 12
ENDMDL
MODEL 9
REMARK VINA RESULT:      -6.3      2.223      4.113
REMARK  Name = 
REMARK  12 active torsions:
REMARK  status: ('A' for Active; 'I' for Inactive)
REMARK    1  A    between atoms: P_2  and  O_3
REMARK    2  A    between atoms: P_2  and  O_4
REMARK    3  A    between atoms: P_2  and  O_5
REMARK    4  A    between atoms: O_5  and  C_6
REMARK    5  A    between atoms: C_7  and  O_8
REMARK    6  A    between atoms: C_9  and  O_10
REMARK    7  A    between atoms: C_11  and  O_12
REMARK    8  A    between atoms: C_13  and  O_14
REMARK    9  A    between atoms: C_15  and  O_16
REMARK   10  A    between atoms: O_16  and  P_17
REMARK   11  A    between atoms: P_17  and  O_19
REMARK   12  A    between atoms: P_17  and  O_20
REMARK                            x       y       z     vdW  Elec       q    Type
REMARK                         _______ _______ _______ _____ _____    ______ ____
ROOT
ATOM      1  C   UNL     1       4.474   4.617  17.239  0.00  0.00    +0.000 C 
ATOM      2  C   UNL     1       5.349   5.027  16.021  0.00  0.00    +0.000 C 
ATOM      3  C   UNL     1       6.828   5.186  16.412  0.00  0.00    +0.000 C 
ATOM      4  C   UNL     1       7.010   6.226  17.535  0.00  0.00    +0.000 C 
ATOM      5  C   UNL     1       6.170   5.820  18.763  0.00  0.00    +0.000 C 
ATOM      6  C   UNL     1       4.678   5.630  18.417  0.00  0.00    +0.000 C 
ENDROOT
BRANCH   2   7
ATOM      7  O   UNL     1       4.918   6.281  15.454  0.00  0.00    +0.000 OA
ATOM      8  H   UNL     1       4.683   6.134  14.517  0.00  0.00    +0.000 HD
ENDBRANCH   2   7
BRANCH   3   9
ATOM      9  O   UNL     1       7.576   5.593  15.261  0.00  0.00    +0.000 OA
ATOM     10  H   UNL     1       8.305   4.946  15.181  0.00  0.00    +0.000 HD
ENDBRANCH   3   9
BRANCH   4  11
ATOM     11  O   UNL     1       6.679   7.548  17.087  0.00  0.00    +0.000 OA
ATOM     12  H   UNL     1       5.709   7.569  16.936  0.00  0.00    +0.000 HD
ENDBRANCH   4  11
BRANCH   5  13
ATOM     13  O   UNL     1       6.679   4.606  19.326  0.00  0.00    +0.000 OA
ATOM     14  H   UNL     1       7.579   4.456  18.990  0.00  0.00    +0.000 HD
ENDBRANCH   5  13
BRANCH   1  15
ATOM     15  O   UNL     1       4.600   3.194  17.562  0.00  0.00    +0.000 OA
BRANCH  15  17
ATOM     16  O   UNL     1       2.797   2.299  20.150  0.00  0.00    +0.000 OA
ATOM     17  P   UNL     1       3.649   2.722  18.928  0.00  0.00    +0.000 P 
BRANCH  17  18
ATOM     18  O   UNL     1       5.025   2.240  19.670  0.00  0.00    +0.000 OA
ATOM     19  H   UNL     1       5.089   1.271  19.565  0.00  0.00    +0.000 HD
ENDBRANCH  17  18
BRANCH  17  20
ATOM     20  O   UNL     1       3.382   1.316  18.143  0.00  0.00    +0.000 OA
ATOM     21  H   UNL     1       3.810   0.598  18.642  0.00  0.00    +0.000 HD
ENDBRANCH  17  20
ENDBRANCH  15  17
ENDBRANCH   1  15
BRANCH   6  22
ATOM     22  O   UNL     1       4.141   6.865  17.934  0.00  0.00    +0.000 OA
BRANCH  22  23
ATOM     23  P   UNL     1       2.691   7.462  18.202  0.00  0.00    +0.000 P 
ATOM     24  O   UNL     1       2.368   7.714  19.637  0.00  0.00    +0.000 OA
BRANCH  23  25
ATOM     25  O   UNL     1       2.504   8.728  17.263  0.00  0.00    +0.000 OA
ATOM     26  H   UNL     1       3.028   8.669  16.455  0.00  0.00    +0.000 HD
ENDBRANCH  23  25
BRANCH  23  27
ATOM     27  O   UNL     1       1.644   6.446  17.574  0.00  0.00    +0.000 OA
ATOM     28  H   UNL     1       1.868   6.314  16.625  0.00  0.00    +0.000 HD
ENDBRANCH  23  27
ENDBRANCH  22  23
ENDBRANCH   6  22
TORSDOF 12
ENDMDL
