MODEL 1
REMARK VINA RESULT:      -8.7      0.000      0.000
REMARK  Name = 
REMARK  8 active torsions:
REMARK  status: ('A' for Active; 'I' for Inactive)
REMARK    1  A    between atoms: C_1  and  N_2
REMARK    2  A    between atoms: N_2  and  C_3
REMARK    3  A    between atoms: N_2  and  C_4
REMARK    4  A    between atoms: C_4  and  C_5
REMARK    5  A    between atoms: C_5  and  N_6
REMARK    6  A    between atoms: C_7  and  C_9
REMARK    7  A    between atoms: C_16  and  C_17
REMARK    8  A    between atoms: C_20  and  C_21
REMARK                            x       y       z     vdW  Elec       q    Type
REMARK                         _______ _______ _______ _____ _____    ______ ____
ROOT
ATOM      1  C   UNL     1      -1.691  11.716  20.441  0.00  0.00    +0.000 A 
ATOM      2  C   UNL     1      -2.431  12.570  21.288  0.00  0.00    +0.000 A 
ATOM      3  C   UNL     1      -2.320  12.484  22.675  0.00  0.00    +0.000 A 
ATOM      4  C   UNL     1      -1.461  11.559  23.257  0.00  0.00    +0.000 A 
ATOM      5  C   UNL     1      -0.703  10.706  22.450  0.00  0.00    +0.000 A 
ATOM      6  C   UNL     1       0.196   9.802  23.022  0.00  0.00    +0.000 A 
ATOM      7  C   UNL     1       0.978   8.985  22.209  0.00  0.00    +0.000 A 
ATOM      8  C   UNL     1       0.838   9.055  20.812  0.00  0.00    +0.000 A 
ATOM      9  N   UNL     1      -0.065   9.929  20.281  0.00  0.00    +0.000 NA
ATOM     10  C   UNL     1      -0.824  10.762  21.044  0.00  0.00    +0.000 A 
ENDROOT
BRANCH   8  11
ATOM     11  C   UNL     1       1.657   8.221  19.893  0.00  0.00    +0.000 A 
ATOM     12  C   UNL     1       1.990   8.712  18.621  0.00  0.00    +0.000 A 
ATOM     13  C   UNL     1       2.765   7.954  17.745  0.00  0.00    +0.000 A 
ATOM     14  C   UNL     1       3.240   6.682  18.114  0.00  0.00    +0.000 A 
ATOM     15  C   UNL     1       2.909   6.191  19.392  0.00  0.00    +0.000 A 
ATOM     16  C   UNL     1       2.131   6.950  20.267  0.00  0.00    +0.000 A 
BRANCH  14  17
ATOM     17  C   UNL     1       4.079   5.875  17.172  0.00  0.00    +0.000 A 
ATOM     18  C   UNL     1       4.863   6.509  16.185  0.00  0.00    +0.000 A 
ATOM     19  C   UNL     1       5.651   5.762  15.308  0.00  0.00    +0.000 A 
ATOM     20  C   UNL     1       5.660   4.370  15.387  0.00  0.00    +0.000 A 
ATOM     21  C   UNL     1       4.888   3.722  16.352  0.00  0.00    +0.000 A 
ATOM     22  C   UNL     1       4.110   4.465  17.245  0.00  0.00    +0.000 A 
ENDBRANCH  14  17
ENDBRANCH   8  11
BRANCH   1  24
ATOM     23  N   UNL     1      -2.684  11.057  18.245  0.00  0.00    +0.000 N 
ATOM     24  C   UNL     1      -1.807  11.830  18.950  0.00  0.00    +0.000 C 
ATOM     25  O   UNL     1      -1.134  12.664  18.356  0.00  0.00    +0.000 OA
ATOM     26  H   UNL     1      -3.312  10.411  18.741  0.00  0.00    +0.000 HD
BRANCH  23  27
ATOM     27  C   UNL     1      -2.818  11.171  16.802  0.00  0.00    +0.000 C 
BRANCH  27  28
ATOM     28  C   UNL     1      -4.298  11.247  16.385  0.00  0.00    +0.000 C 
BRANCH  28  30
ATOM     29  C   UNL     1      -6.079  12.862  16.899  0.00  0.00    +0.000 C 
ATOM     30  N   UNL     1      -5.157  11.843  17.436  0.00  0.00    +0.000 NA
ATOM     31  C   UNL     1      -5.939  10.787  18.099  0.00  0.00    +0.000 C 
ENDBRANCH  28  30
ENDBRANCH  27  28
ENDBRANCH  23  27
ENDBRANCH   1  24
TORSDOF 6
ENDMDL
MODEL 2
REMARK VINA RESULT:      -8.4      0.882      1.486
REMARK  Name = 
REMARK  8 active torsions:
REMARK  status: ('A' for Active; 'I' for Inactive)
REMARK    1  A    between atoms: C_1  and  N_2
REMARK    2  A    between atoms: N_2  and  C_3
REMARK    3  A    between atoms: N_2  and  C_4
REMARK    4  A    between atoms: C_4  and  C_5
REMARK    5  A    between atoms: C_5  and  N_6
REMARK    6  A    between atoms: C_7  and  C_9
REMARK    7  A    between atoms: C_16  and  C_17
REMARK    8  A    between atoms: C_20  and  C_21
REMARK                            x       y       z     vdW  Elec       q    Type
REMARK                         _______ _______ _______ _____ _____    ______ ____
ROOT
ATOM      1  C   UNL     1      -1.597  11.754  20.586  0.00  0.00    +0.000 A 
ATOM      2  C   UNL     1      -2.358  12.563  21.459  0.00  0.00    +0.000 A 
ATOM      3  C   UNL     1      -2.321  12.369  22.839  0.00  0.00    +0.000 A 
ATOM      4  C   UNL     1      -1.516  11.377  23.390  0.00  0.00    +0.000 A 
ATOM      5  C   UNL     1      -0.740  10.567  22.557  0.00  0.00    +0.000 A 
ATOM      6  C   UNL     1       0.106   9.595  23.101  0.00  0.00    +0.000 A 
ATOM      7  C   UNL     1       0.907   8.820  22.267  0.00  0.00    +0.000 A 
ATOM      8  C   UNL     1       0.841   9.000  20.875  0.00  0.00    +0.000 A 
ATOM      9  N   UNL     1      -0.011   9.938  20.369  0.00  0.00    +0.000 NA
ATOM     10  C   UNL     1      -0.787  10.732  21.156  0.00  0.00    +0.000 A 
ENDROOT
BRANCH   8  11
ATOM     11  C   UNL     1       1.685   8.215  19.935  0.00  0.00    +0.000 A 
ATOM     12  C   UNL     1       2.143   6.942  20.312  0.00  0.00    +0.000 A 
ATOM     13  C   UNL     1       2.927   6.183  19.446  0.00  0.00    +0.000 A 
ATOM     14  C   UNL     1       3.273   6.665  18.170  0.00  0.00    +0.000 A 
ATOM     15  C   UNL     1       2.810   7.940  17.791  0.00  0.00    +0.000 A 
ATOM     16  C   UNL     1       2.027   8.701  18.660  0.00  0.00    +0.000 A 
BRANCH  14  17
ATOM     17  C   UNL     1       4.108   5.841  17.240  0.00  0.00    +0.000 A 
ATOM     18  C   UNL     1       4.938   6.460  16.280  0.00  0.00    +0.000 A 
ATOM     19  C   UNL     1       5.722   5.696  15.414  0.00  0.00    +0.000 A 
ATOM     20  C   UNL     1       5.682   4.304  15.477  0.00  0.00    +0.000 A 
ATOM     21  C   UNL     1       4.864   3.671  16.414  0.00  0.00    +0.000 A 
ATOM     22  C   UNL     1       4.089   4.430  17.296  0.00  0.00    +0.000 A 
ENDBRANCH  14  17
ENDBRANCH   8  11
BRANCH   1  24
ATOM     23  N   UNL     1      -1.847  10.958  18.231  0.00  0.00    +0.000 N 
ATOM     24  C   UNL     1      -1.633  11.985  19.105  0.00  0.00    +0.000 C 
ATOM     25  O   UNL     1      -1.513  13.124  18.670  0.00  0.00    +0.000 OA
ATOM     26  H   UNL     1      -2.031  10.010  18.589  0.00  0.00    +0.000 HD
BRANCH  23  27
ATOM     27  C   UNL     1      -1.902  11.171  16.795  0.00  0.00    +0.000 C 
BRANCH  27  28
ATOM     28  C   UNL     1      -2.442   9.926  16.067  0.00  0.00    +0.000 C 
BRANCH  28  30
ATOM     29  C   UNL     1      -4.438  11.360  16.054  0.00  0.00    +0.000 C 
ATOM     30  N   UNL     1      -3.819  10.120  15.551  0.00  0.00    +0.000 NA
ATOM     31  C   UNL     1      -3.799  10.153  14.080  0.00  0.00    +0.000 C 
ENDBRANCH  28  30
ENDBRANCH  27  28
ENDBRANCH  23  27
ENDBRANCH   1  24
TORSDOF 6
ENDMDL
MODEL 3
REMARK VINA RESULT:      -8.3      4.061      9.456
REMARK  Name = 
REMARK  8 active torsions:
REMARK  status: ('A' for Active; 'I' for Inactive)
REMARK    1  A    between atoms: C_1  and  N_2
REMARK    2  A    between atoms: N_2  and  C_3
REMARK    3  A    between atoms: N_2  and  C_4
REMARK    4  A    between atoms: C_4  and  C_5
REMARK    5  A    between atoms: C_5  and  N_6
REMARK    6  A    between atoms: C_7  and  C_9
REMARK    7  A    between atoms: C_16  and  C_17
REMARK    8  A    between atoms: C_20  and  C_21
REMARK                            x       y       z     vdW  Elec       q    Type
REMARK                         _______ _______ _______ _____ _____    ______ ____
ROOT
ATOM      1  C   UNL     1       4.470   3.611  17.059  0.00  0.00    +0.000 A 
ATOM      2  C   UNL     1       5.359   2.879  16.241  0.00  0.00    +0.000 A 
ATOM      3  C   UNL     1       6.123   3.510  15.261  0.00  0.00    +0.000 A 
ATOM      4  C   UNL     1       6.037   4.886  15.077  0.00  0.00    +0.000 A 
ATOM      5  C   UNL     1       5.178   5.644  15.877  0.00  0.00    +0.000 A 
ATOM      6  C   UNL     1       5.114   7.033  15.732  0.00  0.00    +0.000 A 
ATOM      7  C   UNL     1       4.287   7.785  16.562  0.00  0.00    +0.000 A 
ATOM      8  C   UNL     1       3.495   7.138  17.527  0.00  0.00    +0.000 A 
ATOM      9  N   UNL     1       3.558   5.779  17.631  0.00  0.00    +0.000 NA
ATOM     10  C   UNL     1       4.377   5.017  16.856  0.00  0.00    +0.000 A 
ENDROOT
BRANCH   8  11
ATOM     11  C   UNL     1       2.606   7.890  18.452  0.00  0.00    +0.000 A 
ATOM     12  C   UNL     1       2.024   9.095  18.029  0.00  0.00    +0.000 A 
ATOM     13  C   UNL     1       1.180   9.813  18.874  0.00  0.00    +0.000 A 
ATOM     14  C   UNL     1       0.881   9.346  20.168  0.00  0.00    +0.000 A 
ATOM     15  C   UNL     1       1.462   8.135  20.590  0.00  0.00    +0.000 A 
ATOM     16  C   UNL     1       2.310   7.418  19.744  0.00  0.00    +0.000 A 
BRANCH  14  17
ATOM     17  C   UNL     1      -0.034  10.116  21.068  0.00  0.00    +0.000 A 
ATOM     18  C   UNL     1      -0.720  11.255  20.592  0.00  0.00    +0.000 A 
ATOM     19  C   UNL     1      -1.578  11.973  21.425  0.00  0.00    +0.000 A 
ATOM     20  C   UNL     1      -1.755  11.583  22.752  0.00  0.00    +0.000 A 
ATOM     21  C   UNL     1      -1.082  10.464  23.246  0.00  0.00    +0.000 A 
ATOM     22  C   UNL     1      -0.235   9.730  22.412  0.00  0.00    +0.000 A 
ENDBRANCH  14  17
ENDBRANCH   8  11
BRANCH   1  24
ATOM     23  N   UNL     1       2.309   2.800  18.018  0.00  0.00    +0.000 N 
ATOM     24  C   UNL     1       3.665   2.922  18.120  0.00  0.00    +0.000 C 
ATOM     25  O   UNL     1       4.239   2.418  19.079  0.00  0.00    +0.000 OA
ATOM     26  H   UNL     1       1.826   3.147  17.178  0.00  0.00    +0.000 HD
BRANCH  23  27
ATOM     27  C   UNL     1       1.522   2.119  19.031  0.00  0.00    +0.000 C 
BRANCH  27  28
ATOM     28  C   UNL     1       0.705   3.121  19.869  0.00  0.00    +0.000 C 
BRANCH  28  30
ATOM     29  C   UNL     1       2.001   2.145  21.715  0.00  0.00    +0.000 C 
ATOM     30  N   UNL     1       1.274   3.330  21.222  0.00  0.00    +0.000 NA
ATOM     31  C   UNL     1       2.187   4.484  21.205  0.00  0.00    +0.000 C 
ENDBRANCH  28  30
ENDBRANCH  27  28
ENDBRANCH  23  27
ENDBRANCH   1  24
TORSDOF 6
ENDMDL
MODEL 4
REMARK VINA RESULT:      -8.3      3.234      4.669
REMARK  Name = 
REMARK  8 active torsions:
REMARK  status: ('A' for Active; 'I' for Inactive)
REMARK    1  A    between atoms: C_1  and  N_2
REMARK    2  A    between atoms: N_2  and  C_3
REMARK    3  A    between atoms: N_2  and  C_4
REMARK    4  A    between atoms: C_4  and  C_5
REMARK    5  A    between atoms: C_5  and  N_6
REMARK    6  A    between atoms: C_7  and  C_9
REMARK    7  A    between atoms: C_16  and  C_17
REMARK    8  A    between atoms: C_20  and  C_21
REMARK                            x       y       z     vdW  Elec       q    Type
REMARK                         _______ _______ _______ _____ _____    ______ ____
ROOT
ATOM      1  C   UNL     1       0.222  12.657  20.937  0.00  0.00    +0.000 A 
ATOM      2  C   UNL     1      -0.509  13.496  21.807  0.00  0.00    +0.000 A 
ATOM      3  C   UNL     1      -1.263  12.967  22.855  0.00  0.00    +0.000 A 
ATOM      4  C   UNL     1      -1.298  11.595  23.075  0.00  0.00    +0.000 A 
ATOM      5  C   UNL     1      -0.576  10.736  22.242  0.00  0.00    +0.000 A 
ATOM      6  C   UNL     1      -0.568   9.358  22.480  0.00  0.00    +0.000 A 
ATOM      7  C   UNL     1       0.188   8.514  21.670  0.00  0.00    +0.000 A 
ATOM      8  C   UNL     1       0.920   9.050  20.597  0.00  0.00    +0.000 A 
ATOM      9  N   UNL     1       0.875  10.395  20.373  0.00  0.00    +0.000 NA
ATOM     10  C   UNL     1       0.170  11.252  21.161  0.00  0.00    +0.000 A 
ENDROOT
BRANCH   8  11
ATOM     11  C   UNL     1       1.758   8.201  19.710  0.00  0.00    +0.000 A 
ATOM     12  C   UNL     1       2.214   8.714  18.486  0.00  0.00    +0.000 A 
ATOM     13  C   UNL     1       3.009   7.942  17.641  0.00  0.00    +0.000 A 
ATOM     14  C   UNL     1       3.383   6.632  17.996  0.00  0.00    +0.000 A 
ATOM     15  C   UNL     1       2.929   6.120  19.226  0.00  0.00    +0.000 A 
ATOM     16  C   UNL     1       2.131   6.893  20.070  0.00  0.00    +0.000 A 
BRANCH  14  17
ATOM     17  C   UNL     1       4.245   5.810  17.089  0.00  0.00    +0.000 A 
ATOM     18  C   UNL     1       4.304   4.407  17.231  0.00  0.00    +0.000 A 
ATOM     19  C   UNL     1       5.102   3.635  16.385  0.00  0.00    +0.000 A 
ATOM     20  C   UNL     1       5.868   4.247  15.394  0.00  0.00    +0.000 A 
ATOM     21  C   UNL     1       5.829   5.634  15.240  0.00  0.00    +0.000 A 
ATOM     22  C   UNL     1       5.020   6.411  16.072  0.00  0.00    +0.000 A 
ENDBRANCH  14  17
ENDBRANCH   8  11
BRANCH   1  24
ATOM     23  N   UNL     1       2.398  13.364  19.932  0.00  0.00    +0.000 N 
ATOM     24  C   UNL     1       1.042  13.239  19.825  0.00  0.00    +0.000 C 
ATOM     25  O   UNL     1       0.492  13.570  18.781  0.00  0.00    +0.000 OA
ATOM     26  H   UNL     1       2.880  13.015  20.771  0.00  0.00    +0.000 HD
BRANCH  23  27
ATOM     27  C   UNL     1       3.204  13.910  18.854  0.00  0.00    +0.000 C 
BRANCH  27  28
ATOM     28  C   UNL     1       3.951  15.180  19.305  0.00  0.00    +0.000 C 
BRANCH  28  30
ATOM     29  C   UNL     1       5.595  16.906  18.707  0.00  0.00    +0.000 C 
ATOM     30  N   UNL     1       4.867  15.703  18.263  0.00  0.00    +0.000 NA
ATOM     31  C   UNL     1       5.837  14.663  17.885  0.00  0.00    +0.000 C 
ENDBRANCH  28  30
ENDBRANCH  27  28
ENDBRANCH  23  27
ENDBRANCH   1  24
TORSDOF 6
ENDMDL
MODEL 5
REMARK VINA RESULT:      -8.2      2.811      4.147
REMARK  Name = 
REMARK  8 active torsions:
REMARK  status: ('A' for Active; 'I' for Inactive)
REMARK    1  A    between atoms: C_1  and  N_2
REMARK    2  A    between atoms: N_2  and  C_3
REMARK    3  A    between atoms: N_2  and  C_4
REMARK    4  A    between atoms: C_4  and  C_5
REMARK    5  A    between atoms: C_5  and  N_6
REMARK    6  A    between atoms: C_7  and  C_9
REMARK    7  A    between atoms: C_16  and  C_17
REMARK    8  A    between atoms: C_20  and  C_21
REMARK                            x       y       z     vdW  Elec       q    Type
REMARK                         _______ _______ _______ _____ _____    ______ ____
ROOT
ATOM      1  C   UNL     1      -0.541  12.483  20.919  0.00  0.00    +0.000 A 
ATOM      2  C   UNL     1      -1.307  13.272  21.805  0.00  0.00    +0.000 A 
ATOM      3  C   UNL     1      -1.828  12.736  22.982  0.00  0.00    +0.000 A 
ATOM      4  C   UNL     1      -1.590  11.408  23.318  0.00  0.00    +0.000 A 
ATOM      5  C   UNL     1      -0.825  10.601  22.471  0.00  0.00    +0.000 A 
ATOM      6  C   UNL     1      -0.542   9.277  22.818  0.00  0.00    +0.000 A 
ATOM      7  C   UNL     1       0.256   8.492  21.989  0.00  0.00    +0.000 A 
ATOM      8  C   UNL     1       0.751   9.029  20.789  0.00  0.00    +0.000 A 
ATOM      9  N   UNL     1       0.440  10.317  20.462  0.00  0.00    +0.000 NA
ATOM     10  C   UNL     1      -0.313  11.120  21.262  0.00  0.00    +0.000 A 
ENDROOT
BRANCH   8  11
ATOM     11  C   UNL     1       1.622   8.246  19.873  0.00  0.00    +0.000 A 
ATOM     12  C   UNL     1       2.097   6.987  20.274  0.00  0.00    +0.000 A 
ATOM     13  C   UNL     1       2.906   6.229  19.430  0.00  0.00    +0.000 A 
ATOM     14  C   UNL     1       3.262   6.700  18.152  0.00  0.00    +0.000 A 
ATOM     15  C   UNL     1       2.781   7.961  17.748  0.00  0.00    +0.000 A 
ATOM     16  C   UNL     1       1.973   8.720  18.595  0.00  0.00    +0.000 A 
BRANCH  14  17
ATOM     17  C   UNL     1       4.124   5.878  17.245  0.00  0.00    +0.000 A 
ATOM     18  C   UNL     1       4.114   4.468  17.327  0.00  0.00    +0.000 A 
ATOM     19  C   UNL     1       4.912   3.697  16.481  0.00  0.00    +0.000 A 
ATOM     20  C   UNL     1       5.747   4.315  15.550  0.00  0.00    +0.000 A 
ATOM     21  C   UNL     1       5.777   5.707  15.456  0.00  0.00    +0.000 A 
ATOM     22  C   UNL     1       4.968   6.485  16.289  0.00  0.00    +0.000 A 
ENDBRANCH  14  17
ENDBRANCH   8  11
BRANCH   1  24
ATOM     23  N   UNL     1       1.375  13.187  19.478  0.00  0.00    +0.000 N 
ATOM     24  C   UNL     1       0.027  13.076  19.664  0.00  0.00    +0.000 C 
ATOM     25  O   UNL     1      -0.730  13.427  18.768  0.00  0.00    +0.000 OA
ATOM     26  H   UNL     1       2.023  12.820  20.189  0.00  0.00    +0.000 HD
BRANCH  23  27
ATOM     27  C   UNL     1       1.938  13.743  18.260  0.00  0.00    +0.000 C 
BRANCH  27  28
ATOM     28  C   UNL     1       2.776  15.002  18.556  0.00  0.00    +0.000 C 
BRANCH  28  30
ATOM     29  C   UNL     1       3.234  16.801  16.946  0.00  0.00    +0.000 C 
ATOM     30  N   UNL     1       3.581  15.438  17.390  0.00  0.00    +0.000 NA
ATOM     31  C   UNL     1       5.012  15.390  17.728  0.00  0.00    +0.000 C 
ENDBRANCH  28  30
ENDBRANCH  27  28
ENDBRANCH  23  27
ENDBRANCH   1  24
TORSDOF 6
ENDMDL
MODEL 6
REMARK VINA RESULT:      -8.2      3.016      4.249
REMARK  Name = 
REMARK  8 active torsions:
REMARK  status: ('A' for Active; 'I' for Inactive)
REMARK    1  A    between atoms: C_1  and  N_2
REMARK    2  A    between atoms: N_2  and  C_3
REMARK    3  A    between atoms: N_2  and  C_4
REMARK    4  A    between atoms: C_4  and  C_5
REMARK    5  A    between atoms: C_5  and  N_6
REMARK    6  A    between atoms: C_7  and  C_9
REMARK    7  A    between atoms: C_16  and  C_17
REMARK    8  A    between atoms: C_20  and  C_21
REMARK                            x       y       z     vdW  Elec       q    Type
REMARK                         _______ _______ _______ _____ _____    ______ ____
ROOT
ATOM      1  C   UNL     1      -0.439  13.344  20.910  0.00  0.00    +0.000 A 
ATOM      2  C   UNL     1      -1.119  14.276  21.725  0.00  0.00    +0.000 A 
ATOM      3  C   UNL     1      -1.724  13.885  22.919  0.00  0.00    +0.000 A 
ATOM      4  C   UNL     1      -1.656  12.562  23.342  0.00  0.00    +0.000 A 
ATOM      5  C   UNL     1      -0.980  11.615  22.568  0.00  0.00    +0.000 A 
ATOM      6  C   UNL     1      -0.867  10.292  23.005  0.00  0.00    +0.000 A 
ATOM      7  C   UNL     1      -0.156   9.365  22.248  0.00  0.00    +0.000 A 
ATOM      8  C   UNL     1       0.424   9.759  21.030  0.00  0.00    +0.000 A 
ATOM      9  N   UNL     1       0.278  11.051  20.615  0.00  0.00    +0.000 NA
ATOM     10  C   UNL     1      -0.386  11.989  21.344  0.00  0.00    +0.000 A 
ENDROOT
BRANCH   8  11
ATOM     11  C   UNL     1       1.209   8.818  20.187  0.00  0.00    +0.000 A 
ATOM     12  C   UNL     1       1.538   9.174  18.870  0.00  0.00    +0.000 A 
ATOM     13  C   UNL     1       2.281   8.315  18.063  0.00  0.00    +0.000 A 
ATOM     14  C   UNL     1       2.728   7.072  18.549  0.00  0.00    +0.000 A 
ATOM     15  C   UNL     1       2.402   6.717  19.872  0.00  0.00    +0.000 A 
ATOM     16  C   UNL     1       1.656   7.577  20.678  0.00  0.00    +0.000 A 
BRANCH  14  17
ATOM     17  C   UNL     1       3.534   6.156  17.682  0.00  0.00    +0.000 A 
ATOM     18  C   UNL     1       4.536   6.669  16.830  0.00  0.00    +0.000 A 
ATOM     19  C   UNL     1       5.293   5.818  16.023  0.00  0.00    +0.000 A 
ATOM     20  C   UNL     1       5.056   4.445  16.037  0.00  0.00    +0.000 A 
ATOM     21  C   UNL     1       4.066   3.916  16.867  0.00  0.00    +0.000 A 
ATOM     22  C   UNL     1       3.316   4.760  17.690  0.00  0.00    +0.000 A 
ENDBRANCH  14  17
ENDBRANCH   8  11
BRANCH   1  24
ATOM     23  N   UNL     1       1.580  13.865  19.533  0.00  0.00    +0.000 N 
ATOM     24  C   UNL     1       0.221  13.781  19.636  0.00  0.00    +0.000 C 
ATOM     25  O   UNL     1      -0.469  14.027  18.654  0.00  0.00    +0.000 OA
ATOM     26  H   UNL     1       2.172  13.583  20.325  0.00  0.00    +0.000 HD
BRANCH  23  27
ATOM     27  C   UNL     1       2.231  14.270  18.299  0.00  0.00    +0.000 C 
BRANCH  27  28
ATOM     28  C   UNL     1       3.756  14.071  18.382  0.00  0.00    +0.000 C 
BRANCH  28  30
ATOM     29  C   UNL     1       3.685  16.508  18.073  0.00  0.00    +0.000 C 
ATOM     30  N   UNL     1       4.492  15.353  18.506  0.00  0.00    +0.000 NA
ATOM     31  C   UNL     1       4.912  15.553  19.902  0.00  0.00    +0.000 C 
ENDBRANCH  28  30
ENDBRANCH  27  28
ENDBRANCH  23  27
ENDBRANCH   1  24
TORSDOF 6
ENDMDL
MODEL 7
REMARK VINA RESULT:      -8.1      3.037      4.221
REMARK  Name = 
REMARK  8 active torsions:
REMARK  status: ('A' for Active; 'I' for Inactive)
REMARK    1  A    between atoms: C_1  and  N_2
REMARK    2  A    between atoms: N_2  and  C_3
REMARK    3  A    between atoms: N_2  and  C_4
REMARK    4  A    between atoms: C_4  and  C_5
REMARK    5  A    between atoms: C_5  and  N_6
REMARK    6  A    between atoms: C_7  and  C_9
REMARK    7  A    between atoms: C_16  and  C_17
REMARK    8  A    between atoms: C_20  and  C_21
REMARK                            x       y       z     vdW  Elec       q    Type
REMARK                         _______ _______ _______ _____ _____    ______ ____
ROOT
ATOM      1  C   UNL     1       0.014  12.589  20.948  0.00  0.00    +0.000 A 
ATOM      2  C   UNL     1      -0.741  13.389  21.834  0.00  0.00    +0.000 A 
ATOM      3  C   UNL     1      -1.425  12.826  22.911  0.00  0.00    +0.000 A 
ATOM      4  C   UNL     1      -1.366  11.457  23.144  0.00  0.00    +0.000 A 
ATOM      5  C   UNL     1      -0.618  10.636  22.296  0.00  0.00    +0.000 A 
ATOM      6  C   UNL     1      -0.516   9.264  22.545  0.00  0.00    +0.000 A 
ATOM      7  C   UNL     1       0.265   8.460  21.719  0.00  0.00    +0.000 A 
ATOM      8  C   UNL     1       0.927   9.030  20.617  0.00  0.00    +0.000 A 
ATOM      9  N   UNL     1       0.790  10.366  20.382  0.00  0.00    +0.000 NA
ATOM     10  C   UNL     1       0.058  11.186  21.186  0.00  0.00    +0.000 A 
ENDROOT
BRANCH   8  11
ATOM     11  C   UNL     1       1.788   8.225  19.711  0.00  0.00    +0.000 A 
ATOM     12  C   UNL     1       2.207   6.945  20.106  0.00  0.00    +0.000 A 
ATOM     13  C   UNL     1       3.006   6.167  19.270  0.00  0.00    +0.000 A 
ATOM     14  C   UNL     1       3.408   6.640  18.007  0.00  0.00    +0.000 A 
ATOM     15  C   UNL     1       2.983   7.922  17.609  0.00  0.00    +0.000 A 
ATOM     16  C   UNL     1       2.185   8.701  18.447  0.00  0.00    +0.000 A 
BRANCH  14  17
ATOM     17  C   UNL     1       4.259   5.796  17.109  0.00  0.00    +0.000 A 
ATOM     18  C   UNL     1       5.072   6.393  16.121  0.00  0.00    +0.000 A 
ATOM     19  C   UNL     1       5.871   5.612  15.285  0.00  0.00    +0.000 A 
ATOM     20  C   UNL     1       5.863   4.223  15.406  0.00  0.00    +0.000 A 
ATOM     21  C   UNL     1       5.062   3.612  16.372  0.00  0.00    +0.000 A 
ATOM     22  C   UNL     1       4.272   4.389  17.223  0.00  0.00    +0.000 A 
ENDBRANCH  14  17
ENDBRANCH   8  11
BRANCH   1  24
ATOM     23  N   UNL     1       1.957  13.835  19.992  0.00  0.00    +0.000 N 
ATOM     24  C   UNL     1       0.758  13.209  19.803  0.00  0.00    +0.000 C 
ATOM     25  O   UNL     1       0.305  13.116  18.669  0.00  0.00    +0.000 OA
ATOM     26  H   UNL     1       2.387  13.848  20.926  0.00  0.00    +0.000 HD
BRANCH  23  27
ATOM     27  C   UNL     1       2.696  14.424  18.888  0.00  0.00    +0.000 C 
BRANCH  27  28
ATOM     28  C   UNL     1       3.724  15.455  19.393  0.00  0.00    +0.000 C 
BRANCH  28  30
ATOM     29  C   UNL     1       2.826  16.816  17.554  0.00  0.00    +0.000 C 
ATOM     30  N   UNL     1       3.454  16.822  18.888  0.00  0.00    +0.000 NA
ATOM     31  C   UNL     1       2.579  17.537  19.831  0.00  0.00    +0.000 C 
ENDBRANCH  28  30
ENDBRANCH  27  28
ENDBRANCH  23  27
ENDBRANCH   1  24
TORSDOF 6
ENDMDL
MODEL 8
REMARK VINA RESULT:      -8.0      0.900      1.352
REMARK  Name = 
REMARK  8 active torsions:
REMARK  status: ('A' for Active; 'I' for Inactive)
REMARK    1  A    between atoms: C_1  and  N_2
REMARK    2  A    between atoms: N_2  and  C_3
REMARK    3  A    between atoms: N_2  and  C_4
REMARK    4  A    between atoms: C_4  and  C_5
REMARK    5  A    between atoms: C_5  and  N_6
REMARK    6  A    between atoms: C_7  and  C_9
REMARK    7  A    between atoms: C_16  and  C_17
REMARK    8  A    between atoms: C_20  and  C_21
REMARK                            x       y       z     vdW  Elec       q    Type
REMARK                         _______ _______ _______ _____ _____    ______ ____
ROOT
ATOM      1  C   UNL     1      -1.623  11.754  20.397  0.00  0.00    +0.000 A 
ATOM      2  C   UNL     1      -2.371  12.616  21.230  0.00  0.00    +0.000 A 
ATOM      3  C   UNL     1      -2.317  12.503  22.619  0.00  0.00    +0.000 A 
ATOM      4  C   UNL     1      -1.508  11.543  23.217  0.00  0.00    +0.000 A 
ATOM      5  C   UNL     1      -0.744  10.683  22.424  0.00  0.00    +0.000 A 
ATOM      6  C   UNL     1       0.107   9.743  23.014  0.00  0.00    +0.000 A 
ATOM      7  C   UNL     1       0.896   8.918  22.217  0.00  0.00    +0.000 A 
ATOM      8  C   UNL     1       0.812   9.015  20.818  0.00  0.00    +0.000 A 
ATOM      9  N   UNL     1      -0.044   9.924  20.268  0.00  0.00    +0.000 NA
ATOM     10  C   UNL     1      -0.808  10.765  21.017  0.00  0.00    +0.000 A 
ENDROOT
BRANCH   8  11
ATOM     11  C   UNL     1       1.643   8.173  19.916  0.00  0.00    +0.000 A 
ATOM     12  C   UNL     1       1.993   8.654  18.644  0.00  0.00    +0.000 A 
ATOM     13  C   UNL     1       2.778   7.888  17.785  0.00  0.00    +0.000 A 
ATOM     14  C   UNL     1       3.247   6.618  18.170  0.00  0.00    +0.000 A 
ATOM     15  C   UNL     1       2.900   6.139  19.448  0.00  0.00    +0.000 A 
ATOM     16  C   UNL     1       2.111   6.905  20.307  0.00  0.00    +0.000 A 
BRANCH  14  17
ATOM     17  C   UNL     1       4.098   5.803  17.246  0.00  0.00    +0.000 A 
ATOM     18  C   UNL     1       4.877   6.428  16.248  0.00  0.00    +0.000 A 
ATOM     19  C   UNL     1       5.676   5.673  15.388  0.00  0.00    +0.000 A 
ATOM     20  C   UNL     1       5.701   4.283  15.494  0.00  0.00    +0.000 A 
ATOM     21  C   UNL     1       4.934   3.645  16.470  0.00  0.00    +0.000 A 
ATOM     22  C   UNL     1       4.145   4.395  17.346  0.00  0.00    +0.000 A 
ENDBRANCH  14  17
ENDBRANCH   8  11
BRANCH   1  24
ATOM     23  N   UNL     1      -2.834  11.679  18.213  0.00  0.00    +0.000 N 
ATOM     24  C   UNL     1      -1.678  11.897  18.906  0.00  0.00    +0.000 C 
ATOM     25  O   UNL     1      -0.677  12.258  18.298  0.00  0.00    +0.000 OA
ATOM     26  H   UNL     1      -3.701  11.456  18.720  0.00  0.00    +0.000 HD
BRANCH  23  27
ATOM     27  C   UNL     1      -2.904  11.832  16.770  0.00  0.00    +0.000 C 
BRANCH  27  28
ATOM     28  C   UNL     1      -4.068  11.014  16.178  0.00  0.00    +0.000 C 
BRANCH  28  30
ATOM     29  C   UNL     1      -3.384  10.221  13.955  0.00  0.00    +0.000 C 
ATOM     30  N   UNL     1      -3.602   9.863  15.369  0.00  0.00    +0.000 NA
ATOM     31  C   UNL     1      -2.348   9.334  15.931  0.00  0.00    +0.000 C 
ENDBRANCH  28  30
ENDBRANCH  27  28
ENDBRANCH  23  27
ENDBRANCH   1  24
TORSDOF 6
ENDMDL
MODEL 9
REMARK VINA RESULT:      -7.8      4.678      8.151
REMARK  Name = 
REMARK  8 active torsions:
REMARK  status: ('A' for Active; 'I' for Inactive)
REMARK    1  A    between atoms: C_1  and  N_2
REMARK    2  A    between atoms: N_2  and  C_3
REMARK    3  A    between atoms: N_2  and  C_4
REMARK    4  A    between atoms: C_4  and  C_5
REMARK    5  A    between atoms: C_5  and  N_6
REMARK    6  A    between atoms: C_7  and  C_9
REMARK    7  A    between atoms: C_16  and  C_17
REMARK    8  A    between atoms: C_20  and  C_21
REMARK                            x       y       z     vdW  Elec       q    Type
REMARK                         _______ _______ _______ _____ _____    ______ ____
ROOT
ATOM      1  C   UNL     1       2.639   4.918  18.640  0.00  0.00    +0.000 A 
ATOM      2  C   UNL     1       1.765   3.835  18.392  0.00  0.00    +0.000 A 
ATOM      3  C   UNL     1       2.091   2.841  17.471  0.00  0.00    +0.000 A 
ATOM      4  C   UNL     1       3.299   2.886  16.783  0.00  0.00    +0.000 A 
ATOM      5  C   UNL     1       4.194   3.935  17.013  0.00  0.00    +0.000 A 
ATOM      6  C   UNL     1       5.429   3.968  16.360  0.00  0.00    +0.000 A 
ATOM      7  C   UNL     1       6.332   4.994  16.626  0.00  0.00    +0.000 A 
ATOM      8  C   UNL     1       5.984   6.011  17.532  0.00  0.00    +0.000 A 
ATOM      9  N   UNL     1       4.761   5.967  18.136  0.00  0.00    +0.000 NA
ATOM     10  C   UNL     1       3.867   4.964  17.922  0.00  0.00    +0.000 A 
ENDROOT
BRANCH   8  11
ATOM     11  C   UNL     1       6.913   7.122  17.868  0.00  0.00    +0.000 A 
ATOM     12  C   UNL     1       6.724   8.385  17.285  0.00  0.00    +0.000 A 
ATOM     13  C   UNL     1       7.575   9.445  17.591  0.00  0.00    +0.000 A 
ATOM     14  C   UNL     1       8.639   9.281  18.498  0.00  0.00    +0.000 A 
ATOM     15  C   UNL     1       8.825   8.015  19.085  0.00  0.00    +0.000 A 
ATOM     16  C   UNL     1       7.975   6.953  18.776  0.00  0.00    +0.000 A 
BRANCH  14  17
ATOM     17  C   UNL     1       9.545  10.426  18.830  0.00  0.00    +0.000 A 
ATOM     18  C   UNL     1       9.703  10.853  20.167  0.00  0.00    +0.000 A 
ATOM     19  C   UNL     1      10.550  11.916  20.483  0.00  0.00    +0.000 A 
ATOM     20  C   UNL     1      11.242  12.584  19.473  0.00  0.00    +0.000 A 
ATOM     21  C   UNL     1      11.096  12.183  18.144  0.00  0.00    +0.000 A 
ATOM     22  C   UNL     1      10.263  11.108  17.823  0.00  0.00    +0.000 A 
ENDBRANCH  14  17
ENDBRANCH   8  11
BRANCH   1  24
ATOM     23  N   UNL     1       2.270   7.296  19.311  0.00  0.00    +0.000 N 
ATOM     24  C   UNL     1       2.283   5.972  19.645  0.00  0.00    +0.000 C 
ATOM     25  O   UNL     1       1.955   5.638  20.777  0.00  0.00    +0.000 OA
ATOM     26  H   UNL     1       2.464   7.582  18.342  0.00  0.00    +0.000 HD
BRANCH  23  27
ATOM     27  C   UNL     1       1.910   8.325  20.272  0.00  0.00    +0.000 C 
BRANCH  27  28
ATOM     28  C   UNL     1       0.849   9.280  19.693  0.00  0.00    +0.000 C 
BRANCH  28  30
ATOM     29  C   UNL     1      -0.350   8.642  21.742  0.00  0.00    +0.000 C 
ATOM     30  N   UNL     1      -0.178   9.663  20.692  0.00  0.00    +0.000 NA
ATOM     31  C   UNL     1       0.190  10.943  21.318  0.00  0.00    +0.000 C 
ENDBRANCH  28  30
ENDBRANCH  27  28
ENDBRANCH  23  27
ENDBRANCH   1  24
TORSDOF 6
ENDMDL
