MODEL 1
REMARK VINA RESULT:      -7.8      0.000      0.000
REMARK  Name = 
REMARK  4 active torsions:
REMARK  status: ('A' for Active; 'I' for Inactive)
REMARK    1  A    between atoms: C_1  and  C_2
REMARK    2  A    between atoms: C_4  and  C_5
REMARK    3  A    between atoms: C_5  and  C_6
REMARK    4  A    between atoms: N_13  and  C_14
REMARK                            x       y       z     vdW  Elec       q    Type
REMARK                         _______ _______ _______ _____ _____    ______ ____
ROOT
ATOM      1  C   UNL     1       2.051   5.992  18.807  0.00  0.00    +0.000 C 
ATOM      2  C   UNL     1       1.706   5.574  20.250  0.00  0.00    +0.000 C 
ATOM      3  C   UNL     1       0.944   6.706  20.961  0.00  0.00    +0.000 C 
ATOM      4  C   UNL     1       1.640   8.067  20.809  0.00  0.00    +0.000 C 
ATOM      5  N   UNL     1       2.048   8.302  19.421  0.00  0.00    +0.000 N 
ATOM      6  C   UNL     1       1.429   9.121  18.489  0.00  0.00    +0.000 C 
ATOM      7  O   UNL     1       1.869   9.300  17.355  0.00  0.00    +0.000 OA
ATOM      8  N   UNL     1       0.252   9.688  18.887  0.00  0.00    +0.000 N 
ATOM      9  C   UNL     1       2.915   7.255  18.883  0.00  0.00    +0.000 C 
ATOM     10  H   UNL     1      -0.246   9.243  19.639  0.00  0.00    +0.000 HD
ENDROOT
BRANCH   8  11
ATOM     11  C   UNL     1      -0.484  10.593  18.011  0.00  0.00    +0.000 C 
ATOM     12  C   UNL     1      -0.380  12.034  18.516  0.00  0.00    +0.000 C 
ATOM     13  C   UNL     1      -1.689  12.255  19.272  0.00  0.00    +0.000 C 
ATOM     14  N   UNL     1      -2.639  11.550  18.433  0.00  0.00    +0.000 N 
ATOM     15  C   UNL     1      -3.987  11.599  18.722  0.00  0.00    +0.000 A 
ATOM     16  C   UNL     1      -4.921  10.991  17.884  0.00  0.00    +0.000 A 
ATOM     17  C   UNL     1      -6.286  11.090  18.153  0.00  0.00    +0.000 A 
ATOM     18  C   UNL     1      -6.703  11.804  19.264  0.00  0.00    +0.000 A 
ATOM     19  C   UNL     1      -5.726  12.393  20.044  0.00  0.00    +0.000 A 
ATOM     20  N   UNL     1      -4.398  12.312  19.795  0.00  0.00    +0.000 NA
ATOM     21  C   UNL     1      -2.016  10.337  17.891  0.00  0.00    +0.000 C 
ENDBRANCH   8  11
BRANCH   1  22
ATOM     22  C   UNL     1       2.659   4.896  17.937  0.00  0.00    +0.000 C 
BRANCH  22  26
ATOM     23  C   UNL     1       7.564   4.666  17.600  0.00  0.00    +0.000 C 
ATOM     24  C   UNL     1       6.147   4.573  17.988  0.00  0.00    +0.000 A 
ATOM     25  N   UNL     1       5.076   4.974  17.345  0.00  0.00    +0.000 NA
ATOM     26  C   UNL     1       4.082   4.618  18.215  0.00  0.00    +0.000 A 
ATOM     27  N   UNL     1       4.493   4.028  19.344  0.00  0.00    +0.000 NA
ATOM     28  O   UNL     1       5.882   3.996  19.193  0.00  0.00    +0.000 OA
ENDBRANCH  22  26
ENDBRANCH   1  22
TORSDOF 3
ENDMDL
MODEL 2
REMARK VINA RESULT:      -7.6      2.859      9.387
REMARK  Name = 
REMARK  4 active torsions:
REMARK  status: ('A' for Active; 'I' for Inactive)
REMARK    1  A    between atoms: C_1  and  C_2
REMARK    2  A    between atoms: C_4  and  C_5
REMARK    3  A    between atoms: C_5  and  C_6
REMARK    4  A    between atoms: N_13  and  C_14
REMARK                            x       y       z     vdW  Elec       q    Type
REMARK                         _______ _______ _______ _____ _____    ______ ____
ROOT
ATOM      1  C   UNL     1      -2.047  12.177  19.651  0.00  0.00    +0.000 C 
ATOM      2  C   UNL     1      -3.252  11.522  18.946  0.00  0.00    +0.000 C 
ATOM      3  C   UNL     1      -2.801  10.255  18.198  0.00  0.00    +0.000 C 
ATOM      4  C   UNL     1      -1.565  10.500  17.319  0.00  0.00    +0.000 C 
ATOM      5  N   UNL     1      -0.538  11.251  18.047  0.00  0.00    +0.000 N 
ATOM      6  C   UNL     1       0.629  10.754  18.607  0.00  0.00    +0.000 C 
ATOM      7  O   UNL     1       1.464  11.466  19.160  0.00  0.00    +0.000 OA
ATOM      8  N   UNL     1       0.778   9.398  18.560  0.00  0.00    +0.000 N 
ATOM      9  C   UNL     1      -1.013  12.528  18.576  0.00  0.00    +0.000 C 
ATOM     10  H   UNL     1      -0.054   8.843  18.449  0.00  0.00    +0.000 HD
ENDROOT
BRANCH   8  11
ATOM     11  C   UNL     1       1.974   8.751  19.089  0.00  0.00    +0.000 C 
ATOM     12  C   UNL     1       2.825   8.180  17.952  0.00  0.00    +0.000 C 
ATOM     13  C   UNL     1       2.455   6.697  17.923  0.00  0.00    +0.000 C 
ATOM     14  N   UNL     1       2.332   6.396  19.337  0.00  0.00    +0.000 N 
ATOM     15  C   UNL     1       2.103   5.099  19.749  0.00  0.00    +0.000 A 
ATOM     16  C   UNL     1       2.058   4.778  21.106  0.00  0.00    +0.000 A 
ATOM     17  C   UNL     1       1.880   3.456  21.515  0.00  0.00    +0.000 A 
ATOM     18  C   UNL     1       1.751   2.466  20.557  0.00  0.00    +0.000 A 
ATOM     19  C   UNL     1       1.819   2.850  19.232  0.00  0.00    +0.000 A 
ATOM     20  N   UNL     1       1.997   4.127  18.815  0.00  0.00    +0.000 NA
ATOM     21  C   UNL     1       1.736   7.538  20.038  0.00  0.00    +0.000 C 
ENDBRANCH   8  11
BRANCH   1  22
ATOM     22  C   UNL     1      -2.387  13.348  20.568  0.00  0.00    +0.000 C 
BRANCH  22  26
ATOM     23  C   UNL     1      -5.954  12.880  23.927  0.00  0.00    +0.000 C 
ATOM     24  C   UNL     1      -4.714  12.830  23.134  0.00  0.00    +0.000 A 
ATOM     25  N   UNL     1      -4.428  13.408  21.992  0.00  0.00    +0.000 NA
ATOM     26  C   UNL     1      -3.149  12.974  21.776  0.00  0.00    +0.000 A 
ATOM     27  N   UNL     1      -2.650  12.167  22.720  0.00  0.00    +0.000 NA
ATOM     28  O   UNL     1      -3.701  12.068  23.635  0.00  0.00    +0.000 OA
ENDBRANCH  22  26
ENDBRANCH   1  22
TORSDOF 3
ENDMDL
MODEL 3
REMARK VINA RESULT:      -7.6      1.470      1.755
REMARK  Name = 
REMARK  4 active torsions:
REMARK  status: ('A' for Active; 'I' for Inactive)
REMARK    1  A    between atoms: C_1  and  C_2
REMARK    2  A    between atoms: C_4  and  C_5
REMARK    3  A    between atoms: C_5  and  C_6
REMARK    4  A    between atoms: N_13  and  C_14
REMARK                            x       y       z     vdW  Elec       q    Type
REMARK                         _______ _______ _______ _____ _____    ______ ____
ROOT
ATOM      1  C   UNL     1       2.482   4.658  18.473  0.00  0.00    +0.000 C 
ATOM      2  C   UNL     1       1.767   4.099  19.719  0.00  0.00    +0.000 C 
ATOM      3  C   UNL     1       1.046   5.233  20.469  0.00  0.00    +0.000 C 
ATOM      4  C   UNL     1       1.955   6.448  20.711  0.00  0.00    +0.000 C 
ATOM      5  N   UNL     1       2.691   6.808  19.495  0.00  0.00    +0.000 N 
ATOM      6  C   UNL     1       2.425   7.860  18.631  0.00  0.00    +0.000 C 
ATOM      7  O   UNL     1       3.127   8.122  17.657  0.00  0.00    +0.000 OA
ATOM      8  N   UNL     1       1.289   8.569  18.894  0.00  0.00    +0.000 N 
ATOM      9  C   UNL     1       3.488   5.711  18.948  0.00  0.00    +0.000 C 
ATOM     10  H   UNL     1       0.575   8.117  19.440  0.00  0.00    +0.000 HD
ENDROOT
BRANCH   8  11
ATOM     11  C   UNL     1       0.910   9.718  18.077  0.00  0.00    +0.000 C 
ATOM     12  C   UNL     1       1.222  11.026  18.809  0.00  0.00    +0.000 C 
ATOM     13  C   UNL     1      -0.121  11.443  19.406  0.00  0.00    +0.000 C 
ATOM     14  N   UNL     1      -1.042  11.079  18.346  0.00  0.00    +0.000 N 
ATOM     15  C   UNL     1      -2.381  11.397  18.454  0.00  0.00    +0.000 A 
ATOM     16  C   UNL     1      -3.266  11.123  17.412  0.00  0.00    +0.000 A 
ATOM     17  C   UNL     1      -4.607  11.495  17.506  0.00  0.00    +0.000 A 
ATOM     18  C   UNL     1      -5.048  12.144  18.647  0.00  0.00    +0.000 A 
ATOM     19  C   UNL     1      -4.116  12.396  19.634  0.00  0.00    +0.000 A 
ATOM     20  N   UNL     1      -2.809  12.048  19.559  0.00  0.00    +0.000 NA
ATOM     21  C   UNL     1      -0.600   9.832  17.712  0.00  0.00    +0.000 C 
ENDBRANCH   8  11
BRANCH   1  22
ATOM     22  C   UNL     1       3.094   3.611  17.548  0.00  0.00    +0.000 C 
BRANCH  22  26
ATOM     23  C   UNL     1       6.970   4.853  14.780  0.00  0.00    +0.000 C 
ATOM     24  C   UNL     1       6.039   4.461  15.851  0.00  0.00    +0.000 A 
ATOM     25  N   UNL     1       4.748   4.234  15.795  0.00  0.00    +0.000 NA
ATOM     26  C   UNL     1       4.464   3.925  17.096  0.00  0.00    +0.000 A 
ATOM     27  N   UNL     1       5.509   3.956  17.933  0.00  0.00    +0.000 NA
ATOM     28  O   UNL     1       6.569   4.316  17.098  0.00  0.00    +0.000 OA
ENDBRANCH  22  26
ENDBRANCH   1  22
TORSDOF 3
ENDMDL
MODEL 4
REMARK VINA RESULT:      -7.4      1.322      1.605
REMARK  Name = 
REMARK  4 active torsions:
REMARK  status: ('A' for Active; 'I' for Inactive)
REMARK    1  A    between atoms: C_1  and  C_2
REMARK    2  A    between atoms: C_4  and  C_5
REMARK    3  A    between atoms: C_5  and  C_6
REMARK    4  A    between atoms: N_13  and  C_14
REMARK                            x       y       z     vdW  Elec       q    Type
REMARK                         _______ _______ _______ _____ _____    ______ ____
ROOT
ATOM      1  C   UNL     1       2.371   4.947  18.363  0.00  0.00    +0.000 C 
ATOM      2  C   UNL     1       1.765   4.351  19.649  0.00  0.00    +0.000 C 
ATOM      3  C   UNL     1       1.053   5.451  20.456  0.00  0.00    +0.000 C 
ATOM      4  C   UNL     1       1.928   6.699  20.647  0.00  0.00    +0.000 C 
ATOM      5  N   UNL     1       2.565   7.097  19.388  0.00  0.00    +0.000 N 
ATOM      6  C   UNL     1       2.201   8.143  18.554  0.00  0.00    +0.000 C 
ATOM      7  O   UNL     1       2.824   8.439  17.537  0.00  0.00    +0.000 OA
ATOM      8  N   UNL     1       1.058   8.805  18.900  0.00  0.00    +0.000 N 
ATOM      9  C   UNL     1       3.365   6.036  18.778  0.00  0.00    +0.000 C 
ATOM     10  H   UNL     1       0.401   8.322  19.488  0.00  0.00    +0.000 HD
ENDROOT
BRANCH   8  11
ATOM     11  C   UNL     1       0.580   9.943  18.121  0.00  0.00    +0.000 C 
ATOM     12  C   UNL     1       1.049  11.259  18.748  0.00  0.00    +0.000 C 
ATOM     13  C   UNL     1      -0.162  11.738  19.547  0.00  0.00    +0.000 C 
ATOM     14  N   UNL     1      -1.258  11.377  18.669  0.00  0.00    +0.000 N 
ATOM     15  C   UNL     1      -2.550  11.743  18.990  0.00  0.00    +0.000 A 
ATOM     16  C   UNL     1      -3.606  11.471  18.121  0.00  0.00    +0.000 A 
ATOM     17  C   UNL     1      -4.901  11.891  18.427  0.00  0.00    +0.000 A 
ATOM     18  C   UNL     1      -5.123  12.585  19.604  0.00  0.00    +0.000 A 
ATOM     19  C   UNL     1      -4.031  12.833  20.412  0.00  0.00    +0.000 A 
ATOM     20  N   UNL     1      -2.767  12.438  20.129  0.00  0.00    +0.000 NA
ATOM     21  C   UNL     1      -0.966  10.099  18.011  0.00  0.00    +0.000 C 
ENDBRANCH   8  11
BRANCH   1  22
ATOM     22  C   UNL     1       2.959   3.931  17.388  0.00  0.00    +0.000 C 
BRANCH  22  26
ATOM     23  C   UNL     1       7.833   4.537  17.721  0.00  0.00    +0.000 C 
ATOM     24  C   UNL     1       6.430   4.398  17.296  0.00  0.00    +0.000 A 
ATOM     25  N   UNL     1       5.351   4.215  18.019  0.00  0.00    +0.000 NA
ATOM     26  C   UNL     1       4.380   4.158  17.057  0.00  0.00    +0.000 A 
ATOM     27  N   UNL     1       4.813   4.294  15.797  0.00  0.00    +0.000 NA
ATOM     28  O   UNL     1       6.191   4.455  15.956  0.00  0.00    +0.000 OA
ENDBRANCH  22  26
ENDBRANCH   1  22
TORSDOF 3
ENDMDL
MODEL 5
REMARK VINA RESULT:      -7.4      2.752      9.398
REMARK  Name = 
REMARK  4 active torsions:
REMARK  status: ('A' for Active; 'I' for Inactive)
REMARK    1  A    between atoms: C_1  and  C_2
REMARK    2  A    between atoms: C_4  and  C_5
REMARK    3  A    between atoms: C_5  and  C_6
REMARK    4  A    between atoms: N_13  and  C_14
REMARK                            x       y       z     vdW  Elec       q    Type
REMARK                         _______ _______ _______ _____ _____    ______ ____
ROOT
ATOM      1  C   UNL     1      -2.761  11.796  19.024  0.00  0.00    +0.000 C 
ATOM      2  C   UNL     1      -3.831  10.932  18.327  0.00  0.00    +0.000 C 
ATOM      3  C   UNL     1      -3.191   9.650  17.766  0.00  0.00    +0.000 C 
ATOM      4  C   UNL     1      -1.925   9.936  16.943  0.00  0.00    +0.000 C 
ATOM      5  N   UNL     1      -1.043  10.877  17.640  0.00  0.00    +0.000 N 
ATOM      6  C   UNL     1       0.124  10.584  18.328  0.00  0.00    +0.000 C 
ATOM      7  O   UNL     1       0.834  11.445  18.844  0.00  0.00    +0.000 OA
ATOM      8  N   UNL     1       0.421   9.257  18.453  0.00  0.00    +0.000 N 
ATOM      9  C   UNL     1      -1.692  12.142  17.982  0.00  0.00    +0.000 C 
ATOM     10  H   UNL     1      -0.336   8.601  18.357  0.00  0.00    +0.000 HD
ENDROOT
BRANCH   8  11
ATOM     11  C   UNL     1       1.636   8.815  19.130  0.00  0.00    +0.000 C 
ATOM     12  C   UNL     1       2.702   8.406  18.111  0.00  0.00    +0.000 C 
ATOM     13  C   UNL     1       2.592   6.883  18.054  0.00  0.00    +0.000 C 
ATOM     14  N   UNL     1       2.351   6.551  19.445  0.00  0.00    +0.000 N 
ATOM     15  C   UNL     1       2.296   5.230  19.841  0.00  0.00    +0.000 A 
ATOM     16  C   UNL     1       2.141   4.893  21.186  0.00  0.00    +0.000 A 
ATOM     17  C   UNL     1       2.139   3.557  21.585  0.00  0.00    +0.000 A 
ATOM     18  C   UNL     1       2.296   2.568  20.629  0.00  0.00    +0.000 A 
ATOM     19  C   UNL     1       2.458   2.971  19.318  0.00  0.00    +0.000 A 
ATOM     20  N   UNL     1       2.468   4.264  18.912  0.00  0.00    +0.000 NA
ATOM     21  C   UNL     1       1.491   7.570  20.056  0.00  0.00    +0.000 C 
ENDBRANCH   8  11
BRANCH   1  22
ATOM     22  C   UNL     1      -3.293  13.016  19.771  0.00  0.00    +0.000 C 
BRANCH  22  26
ATOM     23  C   UNL     1      -4.103  12.403  24.587  0.00  0.00    +0.000 C 
ATOM     24  C   UNL     1      -4.176  12.481  23.118  0.00  0.00    +0.000 A 
ATOM     25  N   UNL     1      -3.250  12.817  22.252  0.00  0.00    +0.000 NA
ATOM     26  C   UNL     1      -3.925  12.706  21.068  0.00  0.00    +0.000 A 
ATOM     27  N   UNL     1      -5.205  12.325  21.172  0.00  0.00    +0.000 NA
ATOM     28  O   UNL     1      -5.375  12.173  22.550  0.00  0.00    +0.000 OA
ENDBRANCH  22  26
ENDBRANCH   1  22
TORSDOF 3
ENDMDL
MODEL 6
REMARK VINA RESULT:      -7.4      1.858      2.466
REMARK  Name = 
REMARK  4 active torsions:
REMARK  status: ('A' for Active; 'I' for Inactive)
REMARK    1  A    between atoms: C_1  and  C_2
REMARK    2  A    between atoms: C_4  and  C_5
REMARK    3  A    between atoms: C_5  and  C_6
REMARK    4  A    between atoms: N_13  and  C_14
REMARK                            x       y       z     vdW  Elec       q    Type
REMARK                         _______ _______ _______ _____ _____    ______ ____
ROOT
ATOM      1  C   UNL     1       3.229   4.474  18.194  0.00  0.00    +0.000 C 
ATOM      2  C   UNL     1       2.366   3.694  19.205  0.00  0.00    +0.000 C 
ATOM      3  C   UNL     1       1.359   4.641  19.882  0.00  0.00    +0.000 C 
ATOM      4  C   UNL     1       2.023   5.919  20.417  0.00  0.00    +0.000 C 
ATOM      5  N   UNL     1       2.928   6.502  19.422  0.00  0.00    +0.000 N 
ATOM      6  C   UNL     1       2.695   7.607  18.617  0.00  0.00    +0.000 C 
ATOM      7  O   UNL     1       3.533   8.060  17.841  0.00  0.00    +0.000 OA
ATOM      8  N   UNL     1       1.441   8.142  18.695  0.00  0.00    +0.000 N 
ATOM      9  C   UNL     1       3.963   5.577  18.962  0.00  0.00    +0.000 C 
ATOM     10  H   UNL     1       0.703   7.548  19.034  0.00  0.00    +0.000 HD
ENDROOT
BRANCH   8  11
ATOM     11  C   UNL     1       1.075   9.323  17.920  0.00  0.00    +0.000 C 
ATOM     12  C   UNL     1       1.617  10.591  18.585  0.00  0.00    +0.000 C 
ATOM     13  C   UNL     1       0.417  11.146  19.352  0.00  0.00    +0.000 C 
ATOM     14  N   UNL     1      -0.672  10.880  18.431  0.00  0.00    +0.000 N 
ATOM     15  C   UNL     1      -1.943  11.335  18.714  0.00  0.00    +0.000 A 
ATOM     16  C   UNL     1      -2.986  11.155  17.805  0.00  0.00    +0.000 A 
ATOM     17  C   UNL     1      -4.256  11.664  18.074  0.00  0.00    +0.000 A 
ATOM     18  C   UNL     1      -4.468  12.355  19.255  0.00  0.00    +0.000 A 
ATOM     19  C   UNL     1      -3.390  12.510  20.104  0.00  0.00    +0.000 A 
ATOM     20  N   UNL     1      -2.148  12.027  19.857  0.00  0.00    +0.000 NA
ATOM     21  C   UNL     1      -0.451   9.594  17.760  0.00  0.00    +0.000 C 
ENDBRANCH   8  11
BRANCH   1  22
ATOM     22  C   UNL     1       4.154   3.621  17.331  0.00  0.00    +0.000 C 
BRANCH  22  26
ATOM     23  C   UNL     1       7.271   4.839  13.722  0.00  0.00    +0.000 C 
ATOM     24  C   UNL     1       6.274   4.802  14.806  0.00  0.00    +0.000 A 
ATOM     25  N   UNL     1       5.853   3.785  15.519  0.00  0.00    +0.000 NA
ATOM     26  C   UNL     1       4.937   4.384  16.339  0.00  0.00    +0.000 A 
ATOM     27  N   UNL     1       4.781   5.701  16.159  0.00  0.00    +0.000 NA
ATOM     28  O   UNL     1       5.680   5.985  15.128  0.00  0.00    +0.000 OA
ENDBRANCH  22  26
ENDBRANCH   1  22
TORSDOF 3
ENDMDL
MODEL 7
REMARK VINA RESULT:      -7.4      1.075      1.365
REMARK  Name = 
REMARK  4 active torsions:
REMARK  status: ('A' for Active; 'I' for Inactive)
REMARK    1  A    between atoms: C_1  and  C_2
REMARK    2  A    between atoms: C_4  and  C_5
REMARK    3  A    between atoms: C_5  and  C_6
REMARK    4  A    between atoms: N_13  and  C_14
REMARK                            x       y       z     vdW  Elec       q    Type
REMARK                         _______ _______ _______ _____ _____    ______ ____
ROOT
ATOM      1  C   UNL     1       1.883   6.183  18.920  0.00  0.00    +0.000 C 
ATOM      2  C   UNL     1       1.617   5.829  20.397  0.00  0.00    +0.000 C 
ATOM      3  C   UNL     1       0.895   6.994  21.097  0.00  0.00    +0.000 C 
ATOM      4  C   UNL     1       1.581   8.345  20.848  0.00  0.00    +0.000 C 
ATOM      5  N   UNL     1       1.914   8.517  19.430  0.00  0.00    +0.000 N 
ATOM      6  C   UNL     1       1.246   9.296  18.498  0.00  0.00    +0.000 C 
ATOM      7  O   UNL     1       1.623   9.423  17.335  0.00  0.00    +0.000 OA
ATOM      8  N   UNL     1       0.092   9.883  18.933  0.00  0.00    +0.000 N 
ATOM      9  C   UNL     1       2.750   7.445  18.893  0.00  0.00    +0.000 C 
ATOM     10  H   UNL     1      -0.365   9.473  19.730  0.00  0.00    +0.000 HD
ENDROOT
BRANCH   8  11
ATOM     11  C   UNL     1      -0.691  10.750  18.059  0.00  0.00    +0.000 C 
ATOM     12  C   UNL     1      -0.638  12.199  18.551  0.00  0.00    +0.000 C 
ATOM     13  C   UNL     1      -1.946  12.373  19.321  0.00  0.00    +0.000 C 
ATOM     14  N   UNL     1      -2.876  11.623  18.499  0.00  0.00    +0.000 N 
ATOM     15  C   UNL     1      -4.222  11.621  18.805  0.00  0.00    +0.000 A 
ATOM     16  C   UNL     1      -5.141  10.969  17.983  0.00  0.00    +0.000 A 
ATOM     17  C   UNL     1      -6.505  11.016  18.269  0.00  0.00    +0.000 A 
ATOM     18  C   UNL     1      -6.937  11.722  19.379  0.00  0.00    +0.000 A 
ATOM     19  C   UNL     1      -5.976  12.356  20.142  0.00  0.00    +0.000 A 
ATOM     20  N   UNL     1      -4.648  12.326  19.877  0.00  0.00    +0.000 NA
ATOM     21  C   UNL     1      -2.212  10.432  17.960  0.00  0.00    +0.000 C 
ENDBRANCH   8  11
BRANCH   1  22
ATOM     22  C   UNL     1       2.443   5.047  18.069  0.00  0.00    +0.000 C 
BRANCH  22  26
ATOM     23  C   UNL     1       4.838   1.544  20.563  0.00  0.00    +0.000 C 
ATOM     24  C   UNL     1       4.425   2.728  19.791  0.00  0.00    +0.000 A 
ATOM     25  N   UNL     1       3.227   3.097  19.402  0.00  0.00    +0.000 NA
ATOM     26  C   UNL     1       3.500   4.255  18.729  0.00  0.00    +0.000 A 
ATOM     27  N   UNL     1       4.792   4.604  18.688  0.00  0.00    +0.000 NA
ATOM     28  O   UNL     1       5.415   3.578  19.402  0.00  0.00    +0.000 OA
ENDBRANCH  22  26
ENDBRANCH   1  22
TORSDOF 3
ENDMDL
MODEL 8
REMARK VINA RESULT:      -7.3      2.846      9.009
REMARK  Name = 
REMARK  4 active torsions:
REMARK  status: ('A' for Active; 'I' for Inactive)
REMARK    1  A    between atoms: C_1  and  C_2
REMARK    2  A    between atoms: C_4  and  C_5
REMARK    3  A    between atoms: C_5  and  C_6
REMARK    4  A    between atoms: N_13  and  C_14
REMARK                            x       y       z     vdW  Elec       q    Type
REMARK                         _______ _______ _______ _____ _____    ______ ____
ROOT
ATOM      1  C   UNL     1      -2.645  11.637  19.274  0.00  0.00    +0.000 C 
ATOM      2  C   UNL     1      -3.670  10.889  18.398  0.00  0.00    +0.000 C 
ATOM      3  C   UNL     1      -2.978   9.746  17.633  0.00  0.00    +0.000 C 
ATOM      4  C   UNL     1      -1.699  10.208  16.918  0.00  0.00    +0.000 C 
ATOM      5  N   UNL     1      -0.864  11.027  17.802  0.00  0.00    +0.000 N 
ATOM      6  C   UNL     1       0.292  10.641  18.463  0.00  0.00    +0.000 C 
ATOM      7  O   UNL     1       0.962  11.410  19.149  0.00  0.00    +0.000 OA
ATOM      8  N   UNL     1       0.624   9.321  18.354  0.00  0.00    +0.000 N 
ATOM      9  C   UNL     1      -1.559  12.192  18.347  0.00  0.00    +0.000 C 
ATOM     10  H   UNL     1      -0.110   8.676  18.116  0.00  0.00    +0.000 HD
ENDROOT
BRANCH   8  11
ATOM     11  C   UNL     1       1.832   8.792  18.979  0.00  0.00    +0.000 C 
ATOM     12  C   UNL     1       2.802   8.267  17.917  0.00  0.00    +0.000 C 
ATOM     13  C   UNL     1       2.559   6.758  17.911  0.00  0.00    +0.000 C 
ATOM     14  N   UNL     1       2.368   6.484  19.323  0.00  0.00    +0.000 N 
ATOM     15  C   UNL     1       2.222   5.183  19.760  0.00  0.00    +0.000 A 
ATOM     16  C   UNL     1       2.113   4.894  21.120  0.00  0.00    +0.000 A 
ATOM     17  C   UNL     1       2.019   3.574  21.559  0.00  0.00    +0.000 A 
ATOM     18  C   UNL     1       2.038   2.551  20.626  0.00  0.00    +0.000 A 
ATOM     19  C   UNL     1       2.161   2.906  19.296  0.00  0.00    +0.000 A 
ATOM     20  N   UNL     1       2.259   4.182  18.852  0.00  0.00    +0.000 NA
ATOM     21  C   UNL     1       1.634   7.589  19.948  0.00  0.00    +0.000 C 
ENDBRANCH   8  11
BRANCH   1  22
ATOM     22  C   UNL     1      -3.233  12.686  20.212  0.00  0.00    +0.000 C 
BRANCH  22  26
ATOM     23  C   UNL     1      -1.334  14.680  24.292  0.00  0.00    +0.000 C 
ATOM     24  C   UNL     1      -1.709  13.824  23.154  0.00  0.00    +0.000 A 
ATOM     25  N   UNL     1      -2.512  14.076  22.147  0.00  0.00    +0.000 NA
ATOM     26  C   UNL     1      -2.454  12.903  21.447  0.00  0.00    +0.000 A 
ATOM     27  N   UNL     1      -1.665  11.959  21.975  0.00  0.00    +0.000 NA
ATOM     28  O   UNL     1      -1.163  12.577  23.123  0.00  0.00    +0.000 OA
ENDBRANCH  22  26
ENDBRANCH   1  22
TORSDOF 3
ENDMDL
MODEL 9
REMARK VINA RESULT:      -7.2      1.546      1.798
REMARK  Name = 
REMARK  4 active torsions:
REMARK  status: ('A' for Active; 'I' for Inactive)
REMARK    1  A    between atoms: C_1  and  C_2
REMARK    2  A    between atoms: C_4  and  C_5
REMARK    3  A    between atoms: C_5  and  C_6
REMARK    4  A    between atoms: N_13  and  C_14
REMARK                            x       y       z     vdW  Elec       q    Type
REMARK                         _______ _______ _______ _____ _____    ______ ____
ROOT
ATOM      1  C   UNL     1       2.392   6.690  18.578  0.00  0.00    +0.000 C 
ATOM      2  C   UNL     1       2.051   6.062  19.944  0.00  0.00    +0.000 C 
ATOM      3  C   UNL     1       1.019   6.931  20.683  0.00  0.00    +0.000 C 
ATOM      4  C   UNL     1       1.413   8.416  20.711  0.00  0.00    +0.000 C 
ATOM      5  N   UNL     1       1.851   8.872  19.388  0.00  0.00    +0.000 N 
ATOM      6  C   UNL     1       1.133   9.637  18.482  0.00  0.00    +0.000 C 
ATOM      7  O   UNL     1       1.597  10.020  17.410  0.00  0.00    +0.000 OA
ATOM      8  N   UNL     1      -0.161   9.902  18.825  0.00  0.00    +0.000 N 
ATOM      9  C   UNL     1       2.957   8.090  18.837  0.00  0.00    +0.000 C 
ATOM     10  H   UNL     1      -0.601   9.288  19.490  0.00  0.00    +0.000 HD
ENDROOT
BRANCH   8  11
ATOM     11  C   UNL     1      -1.017  10.721  17.971  0.00  0.00    +0.000 C 
ATOM     12  C   UNL     1      -0.970  12.187  18.410  0.00  0.00    +0.000 C 
ATOM     13  C   UNL     1      -2.233  12.359  19.252  0.00  0.00    +0.000 C 
ATOM     14  N   UNL     1      -3.193  11.560  18.515  0.00  0.00    +0.000 N 
ATOM     15  C   UNL     1      -4.517  11.539  18.903  0.00  0.00    +0.000 A 
ATOM     16  C   UNL     1      -5.467  10.837  18.161  0.00  0.00    +0.000 A 
ATOM     17  C   UNL     1      -6.813  10.863  18.528  0.00  0.00    +0.000 A 
ATOM     18  C   UNL     1      -7.194  11.599  19.638  0.00  0.00    +0.000 A 
ATOM     19  C   UNL     1      -6.204  12.281  20.319  0.00  0.00    +0.000 A 
ATOM     20  N   UNL     1      -4.894  12.272  19.974  0.00  0.00    +0.000 NA
ATOM     21  C   UNL     1      -2.533  10.365  17.976  0.00  0.00    +0.000 C 
ENDBRANCH   8  11
BRANCH   1  22
ATOM     22  C   UNL     1       3.277   5.840  17.672  0.00  0.00    +0.000 C 
BRANCH  22  26
ATOM     23  C   UNL     1       3.701   1.018  18.565  0.00  0.00    +0.000 C 
ATOM     24  C   UNL     1       3.279   2.373  18.170  0.00  0.00    +0.000 A 
ATOM     25  N   UNL     1       3.922   3.511  18.271  0.00  0.00    +0.000 NA
ATOM     26  C   UNL     1       3.012   4.390  17.750  0.00  0.00    +0.000 A 
ATOM     27  N   UNL     1       1.858   3.846  17.344  0.00  0.00    +0.000 NA
ATOM     28  O   UNL     1       2.036   2.489  17.626  0.00  0.00    +0.000 OA
ENDBRANCH  22  26
ENDBRANCH   1  22
TORSDOF 3
ENDMDL
