MODEL 1
REMARK VINA RESULT:      -8.4      0.000      0.000
REMARK  Name = 
REMARK  10 active torsions:
REMARK  status: ('A' for Active; 'I' for Inactive)
REMARK    1  A    between atoms: C_1  and  O_2
REMARK    2  A    between atoms: O_2  and  C_3
REMARK    3  A    between atoms: C_6  and  C_7
REMARK    4  A    between atoms: C_8  and  C_9
REMARK    5  A    between atoms: C_12  and  O_13
REMARK    6  A    between atoms: O_13  and  C_14
REMARK    7  A    between atoms: C_15  and  O_16
REMARK    8  A    between atoms: O_16  and  C_17
REMARK    9  A    between atoms: C_25  and  O_26
REMARK   10  A    between atoms: O_26  and  C_27
REMARK                            x       y       z     vdW  Elec       q    Type
REMARK                         _______ _______ _______ _____ _____    ______ ____
ROOT
ATOM      1  C   UNL     1       2.459   4.501  19.085  0.00  0.00    +0.000 C 
ATOM      2  C   UNL     1       3.375   3.744  18.464  0.00  0.00    +0.000 C 
ATOM      3  C   UNL     1       3.055   2.335  18.745  0.00  0.00    +0.000 C 
ATOM      4  O   UNL     1       3.626   1.362  18.299  0.00  0.00    +0.000 OA
ATOM      5  N   UNL     1       1.986   2.334  19.573  0.00  0.00    +0.000 N 
ATOM      6  C   UNL     1       1.551   3.591  19.807  0.00  0.00    +0.000 C 
ATOM      7  O   UNL     1       0.579   3.912  20.464  0.00  0.00    +0.000 OA
ATOM      8  H   UNL     1       1.531   1.504  19.915  0.00  0.00    +0.000 HD
ENDROOT
BRANCH   1  12
ATOM      9  C   UNL     1       1.785   8.705  18.991  0.00  0.00    +0.000 A 
ATOM     10  C   UNL     1       2.245   8.026  17.850  0.00  0.00    +0.000 A 
ATOM     11  C   UNL     1       2.482   6.654  17.878  0.00  0.00    +0.000 A 
ATOM     12  C   UNL     1       2.321   5.949  19.068  0.00  0.00    +0.000 A 
ATOM     13  C   UNL     1       2.002   6.645  20.236  0.00  0.00    +0.000 A 
ATOM     14  C   UNL     1       1.726   8.020  20.215  0.00  0.00    +0.000 A 
BRANCH   9  16
ATOM     15  C   UNL     1       0.058  10.213  18.438  0.00  0.00    +0.000 C 
ATOM     16  O   UNL     1       1.397  10.016  18.908  0.00  0.00    +0.000 OA
ENDBRANCH   9  16
BRANCH  14  17
ATOM     17  O   UNL     1       1.393   8.480  21.459  0.00  0.00    +0.000 OA
ATOM     18  C   UNL     1       0.029   8.662  21.799  0.00  0.00    +0.000 C 
ENDBRANCH  14  17
ENDBRANCH   1  12
BRANCH   2  19
ATOM     19  C   UNL     1       4.457   4.234  17.617  0.00  0.00    +0.000 A 
ATOM     20  C   UNL     1       4.365   4.124  16.231  0.00  0.00    +0.000 A 
ATOM     21  C   UNL     1       5.461   4.460  15.441  0.00  0.00    +0.000 A 
ATOM     22  C   UNL     1       6.666   4.899  16.014  0.00  0.00    +0.000 A 
ATOM     23  C   UNL     1       6.761   5.026  17.412  0.00  0.00    +0.000 A 
ATOM     24  C   UNL     1       5.644   4.704  18.198  0.00  0.00    +0.000 A 
BRANCH  22  25
ATOM     25  O   UNL     1       7.621   5.149  15.063  0.00  0.00    +0.000 OA
ATOM     26  C   UNL     1       7.303   4.942  13.696  0.00  0.00    +0.000 C 
ENDBRANCH  22  25
BRANCH  23  27
ATOM     27  O   UNL     1       7.951   5.433  17.949  0.00  0.00    +0.000 OA
ATOM     28  C   UNL     1       7.981   5.858  19.304  0.00  0.00    +0.000 C 
ENDBRANCH  23  27
ENDBRANCH   2  19
TORSDOF 6
ENDMDL
MODEL 2
REMARK VINA RESULT:      -8.2      1.025      2.039
REMARK  Name = 
REMARK  10 active torsions:
REMARK  status: ('A' for Active; 'I' for Inactive)
REMARK    1  A    between atoms: C_1  and  O_2
REMARK    2  A    between atoms: O_2  and  C_3
REMARK    3  A    between atoms: C_6  and  C_7
REMARK    4  A    between atoms: C_8  and  C_9
REMARK    5  A    between atoms: C_12  and  O_13
REMARK    6  A    between atoms: O_13  and  C_14
REMARK    7  A    between atoms: C_15  and  O_16
REMARK    8  A    between atoms: O_16  and  C_17
REMARK    9  A    between atoms: C_25  and  O_26
REMARK   10  A    between atoms: O_26  and  C_27
REMARK                            x       y       z     vdW  Elec       q    Type
REMARK                         _______ _______ _______ _____ _____    ______ ____
ROOT
ATOM      1  C   UNL     1       2.464   4.781  19.335  0.00  0.00    +0.000 C 
ATOM      2  C   UNL     1       3.545   4.140  18.868  0.00  0.00    +0.000 C 
ATOM      3  C   UNL     1       3.294   2.694  18.987  0.00  0.00    +0.000 C 
ATOM      4  O   UNL     1       4.021   1.801  18.607  0.00  0.00    +0.000 OA
ATOM      5  N   UNL     1       2.085   2.555  19.577  0.00  0.00    +0.000 N 
ATOM      6  C   UNL     1       1.509   3.756  19.796  0.00  0.00    +0.000 C 
ATOM      7  O   UNL     1       0.402   3.957  20.259  0.00  0.00    +0.000 OA
ATOM      8  H   UNL     1       1.641   1.671  19.765  0.00  0.00    +0.000 HD
ENDROOT
BRANCH   1  12
ATOM      9  C   UNL     1       1.461   8.918  19.425  0.00  0.00    +0.000 A 
ATOM     10  C   UNL     1       1.974   8.330  18.257  0.00  0.00    +0.000 A 
ATOM     11  C   UNL     1       2.319   6.980  18.225  0.00  0.00    +0.000 A 
ATOM     12  C   UNL     1       2.213   6.213  19.382  0.00  0.00    +0.000 A 
ATOM     13  C   UNL     1       1.838   6.828  20.578  0.00  0.00    +0.000 A 
ATOM     14  C   UNL     1       1.454   8.177  20.617  0.00  0.00    +0.000 A 
BRANCH   9  16
ATOM     15  C   UNL     1      -0.265  10.348  18.690  0.00  0.00    +0.000 C 
ATOM     16  O   UNL     1       0.970  10.197  19.399  0.00  0.00    +0.000 OA
ENDBRANCH   9  16
BRANCH  14  17
ATOM     17  O   UNL     1       1.085   8.553  21.879  0.00  0.00    +0.000 OA
ATOM     18  C   UNL     1      -0.277   8.822  22.161  0.00  0.00    +0.000 C 
ENDBRANCH  14  17
ENDBRANCH   1  12
BRANCH   2  19
ATOM     19  C   UNL     1       4.730   4.768  18.294  0.00  0.00    +0.000 A 
ATOM     20  C   UNL     1       5.657   5.399  19.120  0.00  0.00    +0.000 A 
ATOM     21  C   UNL     1       6.706   6.118  18.552  0.00  0.00    +0.000 A 
ATOM     22  C   UNL     1       6.843   6.230  17.159  0.00  0.00    +0.000 A 
ATOM     23  C   UNL     1       5.918   5.583  16.318  0.00  0.00    +0.000 A 
ATOM     24  C   UNL     1       4.877   4.844  16.901  0.00  0.00    +0.000 A 
BRANCH  22  25
ATOM     25  O   UNL     1       7.921   7.002  16.813  0.00  0.00    +0.000 OA
ATOM     26  C   UNL     1       8.141   8.225  17.498  0.00  0.00    +0.000 C 
ENDBRANCH  22  25
BRANCH  23  27
ATOM     27  O   UNL     1       6.057   5.725  14.965  0.00  0.00    +0.000 OA
ATOM     28  C   UNL     1       6.647   4.667  14.223  0.00  0.00    +0.000 C 
ENDBRANCH  23  27
ENDBRANCH   2  19
TORSDOF 6
ENDMDL
MODEL 3
REMARK VINA RESULT:      -8.0      1.115      5.985
REMARK  Name = 
REMARK  10 active torsions:
REMARK  status: ('A' for Active; 'I' for Inactive)
REMARK    1  A    between atoms: C_1  and  O_2
REMARK    2  A    between atoms: O_2  and  C_3
REMARK    3  A    between atoms: C_6  and  C_7
REMARK    4  A    between atoms: C_8  and  C_9
REMARK    5  A    between atoms: C_12  and  O_13
REMARK    6  A    between atoms: O_13  and  C_14
REMARK    7  A    between atoms: C_15  and  O_16
REMARK    8  A    between atoms: O_16  and  C_17
REMARK    9  A    between atoms: C_25  and  O_26
REMARK   10  A    between atoms: O_26  and  C_27
REMARK                            x       y       z     vdW  Elec       q    Type
REMARK                         _______ _______ _______ _____ _____    ______ ____
ROOT
ATOM      1  C   UNL     1       4.101   3.678  19.445  0.00  0.00    +0.000 C 
ATOM      2  C   UNL     1       3.030   4.330  19.922  0.00  0.00    +0.000 C 
ATOM      3  C   UNL     1       2.447   3.505  20.994  0.00  0.00    +0.000 C 
ATOM      4  O   UNL     1       1.506   3.799  21.700  0.00  0.00    +0.000 OA
ATOM      5  N   UNL     1       3.179   2.370  21.056  0.00  0.00    +0.000 N 
ATOM      6  C   UNL     1       4.205   2.404  20.178  0.00  0.00    +0.000 C 
ATOM      7  O   UNL     1       5.068   1.559  20.037  0.00  0.00    +0.000 OA
ATOM      8  H   UNL     1       3.024   1.627  21.717  0.00  0.00    +0.000 HD
ENDROOT
BRANCH   1  12
ATOM      9  C   UNL     1       6.669   5.155  16.386  0.00  0.00    +0.000 A 
ATOM     10  C   UNL     1       5.722   4.156  16.107  0.00  0.00    +0.000 A 
ATOM     11  C   UNL     1       4.889   3.657  17.106  0.00  0.00    +0.000 A 
ATOM     12  C   UNL     1       5.034   4.108  18.415  0.00  0.00    +0.000 A 
ATOM     13  C   UNL     1       6.068   4.995  18.721  0.00  0.00    +0.000 A 
ATOM     14  C   UNL     1       6.890   5.532  17.719  0.00  0.00    +0.000 A 
BRANCH   9  16
ATOM     15  C   UNL     1       7.251   5.098  14.101  0.00  0.00    +0.000 C 
ATOM     16  O   UNL     1       7.363   5.755  15.369  0.00  0.00    +0.000 OA
ENDBRANCH   9  16
BRANCH  14  17
ATOM     17  O   UNL     1       7.801   6.410  18.240  0.00  0.00    +0.000 OA
ATOM     18  C   UNL     1       7.776   7.769  17.838  0.00  0.00    +0.000 C 
ENDBRANCH  14  17
ENDBRANCH   1  12
BRANCH   2  19
ATOM     19  C   UNL     1       2.567   5.644  19.493  0.00  0.00    +0.000 A 
ATOM     20  C   UNL     1       2.698   6.032  18.161  0.00  0.00    +0.000 A 
ATOM     21  C   UNL     1       2.388   7.338  17.792  0.00  0.00    +0.000 A 
ATOM     22  C   UNL     1       1.954   8.280  18.739  0.00  0.00    +0.000 A 
ATOM     23  C   UNL     1       1.805   7.891  20.083  0.00  0.00    +0.000 A 
ATOM     24  C   UNL     1       2.101   6.567  20.440  0.00  0.00    +0.000 A 
BRANCH  22  25
ATOM     25  O   UNL     1       1.731   9.508  18.171  0.00  0.00    +0.000 OA
ATOM     26  C   UNL     1       0.396   9.966  18.025  0.00  0.00    +0.000 C 
ENDBRANCH  22  25
BRANCH  23  27
ATOM     27  O   UNL     1       1.403   8.831  20.992  0.00  0.00    +0.000 OA
ATOM     28  C   UNL     1       0.108   8.719  21.566  0.00  0.00    +0.000 C 
ENDBRANCH  23  27
ENDBRANCH   2  19
TORSDOF 6
ENDMDL
MODEL 4
REMARK VINA RESULT:      -8.0      1.215      2.684
REMARK  Name = 
REMARK  10 active torsions:
REMARK  status: ('A' for Active; 'I' for Inactive)
REMARK    1  A    between atoms: C_1  and  O_2
REMARK    2  A    between atoms: O_2  and  C_3
REMARK    3  A    between atoms: C_6  and  C_7
REMARK    4  A    between atoms: C_8  and  C_9
REMARK    5  A    between atoms: C_12  and  O_13
REMARK    6  A    between atoms: O_13  and  C_14
REMARK    7  A    between atoms: C_15  and  O_16
REMARK    8  A    between atoms: O_16  and  C_17
REMARK    9  A    between atoms: C_25  and  O_26
REMARK   10  A    between atoms: O_26  and  C_27
REMARK                            x       y       z     vdW  Elec       q    Type
REMARK                         _______ _______ _______ _____ _____    ______ ____
ROOT
ATOM      1  C   UNL     1       2.470   3.770  18.955  0.00  0.00    +0.000 C 
ATOM      2  C   UNL     1       3.597   3.301  18.398  0.00  0.00    +0.000 C 
ATOM      3  C   UNL     1       3.401   1.865  18.135  0.00  0.00    +0.000 C 
ATOM      4  O   UNL     1       4.180   1.120  17.580  0.00  0.00    +0.000 OA
ATOM      5  N   UNL     1       2.175   1.545  18.607  0.00  0.00    +0.000 N 
ATOM      6  C   UNL     1       1.540   2.634  19.092  0.00  0.00    +0.000 C 
ATOM      7  O   UNL     1       0.408   2.679  19.534  0.00  0.00    +0.000 OA
ATOM      8  H   UNL     1       1.760   0.630  18.543  0.00  0.00    +0.000 HD
ENDROOT
BRANCH   1  12
ATOM      9  C   UNL     1       1.820   7.792  20.192  0.00  0.00    +0.000 A 
ATOM     10  C   UNL     1       1.461   6.719  21.025  0.00  0.00    +0.000 A 
ATOM     11  C   UNL     1       1.657   5.400  20.620  0.00  0.00    +0.000 A 
ATOM     12  C   UNL     1       2.158   5.135  19.348  0.00  0.00    +0.000 A 
ATOM     13  C   UNL     1       2.382   6.196  18.468  0.00  0.00    +0.000 A 
ATOM     14  C   UNL     1       2.222   7.529  18.874  0.00  0.00    +0.000 A 
BRANCH   9  16
ATOM     15  C   UNL     1       0.765   9.322  21.645  0.00  0.00    +0.000 C 
ATOM     16  O   UNL     1       1.779   9.078  20.663  0.00  0.00    +0.000 OA
ENDBRANCH   9  16
BRANCH  14  17
ATOM     17  O   UNL     1       2.539   8.397  17.866  0.00  0.00    +0.000 OA
ATOM     18  C   UNL     1       1.761   9.567  17.677  0.00  0.00    +0.000 C 
ENDBRANCH  14  17
ENDBRANCH   1  12
BRANCH   2  19
ATOM     19  C   UNL     1       4.777   4.089  18.062  0.00  0.00    +0.000 A 
ATOM     20  C   UNL     1       5.543   4.667  19.073  0.00  0.00    +0.000 A 
ATOM     21  C   UNL     1       6.579   5.535  18.737  0.00  0.00    +0.000 A 
ATOM     22  C   UNL     1       6.865   5.847  17.399  0.00  0.00    +0.000 A 
ATOM     23  C   UNL     1       6.106   5.255  16.373  0.00  0.00    +0.000 A 
ATOM     24  C   UNL     1       5.076   4.367  16.721  0.00  0.00    +0.000 A 
BRANCH  22  25
ATOM     25  O   UNL     1       7.902   6.738  17.293  0.00  0.00    +0.000 OA
ATOM     26  C   UNL     1       7.695   8.085  17.690  0.00  0.00    +0.000 C 
ENDBRANCH  22  25
BRANCH  23  27
ATOM     27  O   UNL     1       6.386   5.592  15.077  0.00  0.00    +0.000 OA
ATOM     28  C   UNL     1       6.604   4.555  14.132  0.00  0.00    +0.000 C 
ENDBRANCH  23  27
ENDBRANCH   2  19
TORSDOF 6
ENDMDL
MODEL 5
REMARK VINA RESULT:      -7.8      0.559      5.906
REMARK  Name = 
REMARK  10 active torsions:
REMARK  status: ('A' for Active; 'I' for Inactive)
REMARK    1  A    between atoms: C_1  and  O_2
REMARK    2  A    between atoms: O_2  and  C_3
REMARK    3  A    between atoms: C_6  and  C_7
REMARK    4  A    between atoms: C_8  and  C_9
REMARK    5  A    between atoms: C_12  and  O_13
REMARK    6  A    between atoms: O_13  and  C_14
REMARK    7  A    between atoms: C_15  and  O_16
REMARK    8  A    between atoms: O_16  and  C_17
REMARK    9  A    between atoms: C_25  and  O_26
REMARK   10  A    between atoms: O_26  and  C_27
REMARK                            x       y       z     vdW  Elec       q    Type
REMARK                         _______ _______ _______ _____ _____    ______ ____
ROOT
ATOM      1  C   UNL     1       3.347   3.255  18.528  0.00  0.00    +0.000 C 
ATOM      2  C   UNL     1       2.365   3.970  19.094  0.00  0.00    +0.000 C 
ATOM      3  C   UNL     1       1.531   3.043  19.877  0.00  0.00    +0.000 C 
ATOM      4  O   UNL     1       0.587   3.337  20.578  0.00  0.00    +0.000 OA
ATOM      5  N   UNL     1       2.038   1.804  19.684  0.00  0.00    +0.000 N 
ATOM      6  C   UNL     1       3.143   1.846  18.909  0.00  0.00    +0.000 C 
ATOM      7  O   UNL     1       3.852   0.905  18.604  0.00  0.00    +0.000 OA
ATOM      8  H   UNL     1       1.682   0.968  20.118  0.00  0.00    +0.000 HD
ENDROOT
BRANCH   1  12
ATOM      9  C   UNL     1       6.488   4.898  16.168  0.00  0.00    +0.000 A 
ATOM     10  C   UNL     1       5.299   4.452  15.568  0.00  0.00    +0.000 A 
ATOM     11  C   UNL     1       4.273   3.899  16.333  0.00  0.00    +0.000 A 
ATOM     12  C   UNL     1       4.448   3.728  17.703  0.00  0.00    +0.000 A 
ATOM     13  C   UNL     1       5.682   4.039  18.278  0.00  0.00    +0.000 A 
ATOM     14  C   UNL     1       6.710   4.629  17.527  0.00  0.00    +0.000 A 
BRANCH   9  16
ATOM     15  C   UNL     1       7.471   5.231  14.049  0.00  0.00    +0.000 C 
ATOM     16  O   UNL     1       7.417   5.590  15.435  0.00  0.00    +0.000 OA
ENDBRANCH   9  16
BRANCH  14  17
ATOM     17  O   UNL     1       7.807   4.888  18.303  0.00  0.00    +0.000 OA
ATOM     18  C   UNL     1       7.769   5.950  19.241  0.00  0.00    +0.000 C 
ENDBRANCH  14  17
ENDBRANCH   1  12
BRANCH   2  19
ATOM     19  C   UNL     1       2.193   5.415  18.996  0.00  0.00    +0.000 A 
ATOM     20  C   UNL     1       2.389   6.062  17.777  0.00  0.00    +0.000 A 
ATOM     21  C   UNL     1       2.365   7.453  17.726  0.00  0.00    +0.000 A 
ATOM     22  C   UNL     1       2.156   8.222  18.883  0.00  0.00    +0.000 A 
ATOM     23  C   UNL     1       1.942   7.575  20.114  0.00  0.00    +0.000 A 
ATOM     24  C   UNL     1       1.949   6.172  20.151  0.00  0.00    +0.000 A 
BRANCH  22  25
ATOM     25  O   UNL     1       2.198   9.566  18.616  0.00  0.00    +0.000 OA
ATOM     26  C   UNL     1       0.997  10.236  18.264  0.00  0.00    +0.000 C 
ENDBRANCH  22  25
BRANCH  23  27
ATOM     27  O   UNL     1       1.765   8.344  21.231  0.00  0.00    +0.000 OA
ATOM     28  C   UNL     1       0.445   8.718  21.603  0.00  0.00    +0.000 C 
ENDBRANCH  23  27
ENDBRANCH   2  19
TORSDOF 6
ENDMDL
MODEL 6
REMARK VINA RESULT:      -7.7      1.224      6.014
REMARK  Name = 
REMARK  10 active torsions:
REMARK  status: ('A' for Active; 'I' for Inactive)
REMARK    1  A    between atoms: C_1  and  O_2
REMARK    2  A    between atoms: O_2  and  C_3
REMARK    3  A    between atoms: C_6  and  C_7
REMARK    4  A    between atoms: C_8  and  C_9
REMARK    5  A    between atoms: C_12  and  O_13
REMARK    6  A    between atoms: O_13  and  C_14
REMARK    7  A    between atoms: C_15  and  O_16
REMARK    8  A    between atoms: O_16  and  C_17
REMARK    9  A    between atoms: C_25  and  O_26
REMARK   10  A    between atoms: O_26  and  C_27
REMARK                            x       y       z     vdW  Elec       q    Type
REMARK                         _______ _______ _______ _____ _____    ______ ____
ROOT
ATOM      1  C   UNL     1       3.407   3.615  18.146  0.00  0.00    +0.000 C 
ATOM      2  C   UNL     1       2.391   4.056  18.901  0.00  0.00    +0.000 C 
ATOM      3  C   UNL     1       1.495   2.915  19.155  0.00  0.00    +0.000 C 
ATOM      4  O   UNL     1       0.504   2.917  19.854  0.00  0.00    +0.000 OA
ATOM      5  N   UNL     1       2.006   1.860  18.482  0.00  0.00    +0.000 N 
ATOM      6  C   UNL     1       3.165   2.187  17.870  0.00  0.00    +0.000 C 
ATOM      7  O   UNL     1       3.887   1.441  17.236  0.00  0.00    +0.000 OA
ATOM      8  H   UNL     1       1.612   0.933  18.491  0.00  0.00    +0.000 HD
ENDROOT
BRANCH   1  12
ATOM      9  C   UNL     1       6.737   5.980  16.940  0.00  0.00    +0.000 A 
ATOM     10  C   UNL     1       5.559   5.957  16.175  0.00  0.00    +0.000 A 
ATOM     11  C   UNL     1       4.471   5.174  16.555  0.00  0.00    +0.000 A 
ATOM     12  C   UNL     1       4.569   4.353  17.675  0.00  0.00    +0.000 A 
ATOM     13  C   UNL     1       5.786   4.267  18.354  0.00  0.00    +0.000 A 
ATOM     14  C   UNL     1       6.878   5.076  18.003  0.00  0.00    +0.000 A 
BRANCH   9  16
ATOM     15  C   UNL     1       7.717   8.064  17.453  0.00  0.00    +0.000 C 
ATOM     16  O   UNL     1       7.733   6.876  16.652  0.00  0.00    +0.000 OA
ENDBRANCH   9  16
BRANCH  14  17
ATOM     17  O   UNL     1       7.945   4.856  18.830  0.00  0.00    +0.000 OA
ATOM     18  C   UNL     1       8.054   5.578  20.045  0.00  0.00    +0.000 C 
ENDBRANCH  14  17
ENDBRANCH   1  12
BRANCH   2  19
ATOM     19  C   UNL     1       2.238   5.409  19.423  0.00  0.00    +0.000 A 
ATOM     20  C   UNL     1       1.801   5.610  20.731  0.00  0.00    +0.000 A 
ATOM     21  C   UNL     1       1.519   6.901  21.170  0.00  0.00    +0.000 A 
ATOM     22  C   UNL     1       1.657   8.008  20.318  0.00  0.00    +0.000 A 
ATOM     23  C   UNL     1       2.112   7.814  19.000  0.00  0.00    +0.000 A 
ATOM     24  C   UNL     1       2.412   6.512  18.574  0.00  0.00    +0.000 A 
BRANCH  22  25
ATOM     25  O   UNL     1       1.302   9.178  20.939  0.00  0.00    +0.000 OA
ATOM     26  C   UNL     1      -0.059   9.391  21.279  0.00  0.00    +0.000 C 
ENDBRANCH  22  25
BRANCH  23  27
ATOM     27  O   UNL     1       2.216   8.904  18.180  0.00  0.00    +0.000 OA
ATOM     28  C   UNL     1       1.027   9.535  17.724  0.00  0.00    +0.000 C 
ENDBRANCH  23  27
ENDBRANCH   2  19
TORSDOF 6
ENDMDL
MODEL 7
REMARK VINA RESULT:      -7.3      0.998      5.883
REMARK  Name = 
REMARK  10 active torsions:
REMARK  status: ('A' for Active; 'I' for Inactive)
REMARK    1  A    between atoms: C_1  and  O_2
REMARK    2  A    between atoms: O_2  and  C_3
REMARK    3  A    between atoms: C_6  and  C_7
REMARK    4  A    between atoms: C_8  and  C_9
REMARK    5  A    between atoms: C_12  and  O_13
REMARK    6  A    between atoms: O_13  and  C_14
REMARK    7  A    between atoms: C_15  and  O_16
REMARK    8  A    between atoms: O_16  and  C_17
REMARK    9  A    between atoms: C_25  and  O_26
REMARK   10  A    between atoms: O_26  and  C_27
REMARK                            x       y       z     vdW  Elec       q    Type
REMARK                         _______ _______ _______ _____ _____    ______ ____
ROOT
ATOM      1  C   UNL     1       3.362   3.785  18.389  0.00  0.00    +0.000 C 
ATOM      2  C   UNL     1       2.253   4.345  18.895  0.00  0.00    +0.000 C 
ATOM      3  C   UNL     1       1.384   3.259  19.376  0.00  0.00    +0.000 C 
ATOM      4  O   UNL     1       0.325   3.384  19.954  0.00  0.00    +0.000 OA
ATOM      5  N   UNL     1       2.007   2.097  19.075  0.00  0.00    +0.000 N 
ATOM      6  C   UNL     1       3.209   2.323  18.504  0.00  0.00    +0.000 C 
ATOM      7  O   UNL     1       4.025   1.485  18.173  0.00  0.00    +0.000 OA
ATOM      8  H   UNL     1       1.653   1.184  19.309  0.00  0.00    +0.000 HD
ENDROOT
BRANCH   1  12
ATOM      9  C   UNL     1       6.739   5.933  16.935  0.00  0.00    +0.000 A 
ATOM     10  C   UNL     1       5.537   5.910  16.209  0.00  0.00    +0.000 A 
ATOM     11  C   UNL     1       4.433   5.197  16.671  0.00  0.00    +0.000 A 
ATOM     12  C   UNL     1       4.535   4.444  17.837  0.00  0.00    +0.000 A 
ATOM     13  C   UNL     1       5.770   4.351  18.483  0.00  0.00    +0.000 A 
ATOM     14  C   UNL     1       6.879   5.092  18.049  0.00  0.00    +0.000 A 
BRANCH   9  16
ATOM     15  C   UNL     1       7.833   7.991  17.304  0.00  0.00    +0.000 C 
ATOM     16  O   UNL     1       7.759   6.768  16.561  0.00  0.00    +0.000 OA
ENDBRANCH   9  16
BRANCH  14  17
ATOM     17  O   UNL     1       7.964   4.880  18.855  0.00  0.00    +0.000 OA
ATOM     18  C   UNL     1       8.083   5.594  20.074  0.00  0.00    +0.000 C 
ENDBRANCH  14  17
ENDBRANCH   1  12
BRANCH   2  19
ATOM     19  C   UNL     1       1.989   5.776  18.999  0.00  0.00    +0.000 A 
ATOM     20  C   UNL     1       2.062   6.585  17.868  0.00  0.00    +0.000 A 
ATOM     21  C   UNL     1       1.952   7.967  18.003  0.00  0.00    +0.000 A 
ATOM     22  C   UNL     1       1.777   8.565  19.262  0.00  0.00    +0.000 A 
ATOM     23  C   UNL     1       1.688   7.752  20.407  0.00  0.00    +0.000 A 
ATOM     24  C   UNL     1       1.780   6.360  20.257  0.00  0.00    +0.000 A 
BRANCH  22  25
ATOM     25  O   UNL     1       1.721   9.932  19.174  0.00  0.00    +0.000 OA
ATOM     26  C   UNL     1       0.531  10.542  18.697  0.00  0.00    +0.000 C 
ENDBRANCH  22  25
BRANCH  23  27
ATOM     27  O   UNL     1       1.541   8.357  21.625  0.00  0.00    +0.000 OA
ATOM     28  C   UNL     1       0.246   8.779  22.029  0.00  0.00    +0.000 C 
ENDBRANCH  23  27
ENDBRANCH   2  19
TORSDOF 6
ENDMDL
MODEL 8
REMARK VINA RESULT:      -7.2      1.033      1.930
REMARK  Name = 
REMARK  10 active torsions:
REMARK  status: ('A' for Active; 'I' for Inactive)
REMARK    1  A    between atoms: C_1  and  O_2
REMARK    2  A    between atoms: O_2  and  C_3
REMARK    3  A    between atoms: C_6  and  C_7
REMARK    4  A    between atoms: C_8  and  C_9
REMARK    5  A    between atoms: C_12  and  O_13
REMARK    6  A    between atoms: O_13  and  C_14
REMARK    7  A    between atoms: C_15  and  O_16
REMARK    8  A    between atoms: O_16  and  C_17
REMARK    9  A    between atoms: C_25  and  O_26
REMARK   10  A    between atoms: O_26  and  C_27
REMARK                            x       y       z     vdW  Elec       q    Type
REMARK                         _______ _______ _______ _____ _____    ______ ____
ROOT
ATOM      1  C   UNL     1       2.461   3.694  19.293  0.00  0.00    +0.000 C 
ATOM      2  C   UNL     1       3.442   3.143  18.564  0.00  0.00    +0.000 C 
ATOM      3  C   UNL     1       3.280   1.680  18.631  0.00  0.00    +0.000 C 
ATOM      4  O   UNL     1       3.944   0.853  18.044  0.00  0.00    +0.000 OA
ATOM      5  N   UNL     1       2.233   1.440  19.452  0.00  0.00    +0.000 N 
ATOM      6  C   UNL     1       1.669   2.593  19.872  0.00  0.00    +0.000 C 
ATOM      7  O   UNL     1       0.681   2.706  20.572  0.00  0.00    +0.000 OA
ATOM      8  H   UNL     1       1.876   0.524  19.667  0.00  0.00    +0.000 HD
ENDROOT
BRANCH   1  12
ATOM      9  C   UNL     1       1.858   7.853  19.984  0.00  0.00    +0.000 A 
ATOM     10  C   UNL     1       1.382   6.897  20.897  0.00  0.00    +0.000 A 
ATOM     11  C   UNL     1       1.562   5.535  20.670  0.00  0.00    +0.000 A 
ATOM     12  C   UNL     1       2.168   5.105  19.493  0.00  0.00    +0.000 A 
ATOM     13  C   UNL     1       2.513   6.045  18.520  0.00  0.00    +0.000 A 
ATOM     14  C   UNL     1       2.370   7.422  18.751  0.00  0.00    +0.000 A 
BRANCH   9  16
ATOM     15  C   UNL     1       0.523   9.781  20.238  0.00  0.00    +0.000 C 
ATOM     16  O   UNL     1       1.826   9.186  20.296  0.00  0.00    +0.000 OA
ENDBRANCH   9  16
BRANCH  14  17
ATOM     17  O   UNL     1       2.812   8.154  17.683  0.00  0.00    +0.000 OA
ATOM     18  C   UNL     1       3.921   7.695  16.928  0.00  0.00    +0.000 C 
ENDBRANCH  14  17
ENDBRANCH   1  12
BRANCH   2  19
ATOM     19  C   UNL     1       4.449   3.867  17.797  0.00  0.00    +0.000 A 
ATOM     20  C   UNL     1       4.320   3.993  16.416  0.00  0.00    +0.000 A 
ATOM     21  C   UNL     1       5.357   4.559  15.678  0.00  0.00    +0.000 A 
ATOM     22  C   UNL     1       6.538   4.998  16.297  0.00  0.00    +0.000 A 
ATOM     23  C   UNL     1       6.669   4.887  17.694  0.00  0.00    +0.000 A 
ATOM     24  C   UNL     1       5.610   4.334  18.430  0.00  0.00    +0.000 A 
BRANCH  22  25
ATOM     25  O   UNL     1       7.437   5.494  15.389  0.00  0.00    +0.000 OA
ATOM     26  C   UNL     1       7.378   5.040  14.045  0.00  0.00    +0.000 C 
ENDBRANCH  22  25
BRANCH  23  27
ATOM     27  O   UNL     1       7.837   5.299  18.273  0.00  0.00    +0.000 OA
ATOM     28  C   UNL     1       7.966   6.659  18.663  0.00  0.00    +0.000 C 
ENDBRANCH  23  27
ENDBRANCH   2  19
TORSDOF 6
ENDMDL
MODEL 9
REMARK VINA RESULT:      -7.1      1.424      2.182
REMARK  Name = 
REMARK  10 active torsions:
REMARK  status: ('A' for Active; 'I' for Inactive)
REMARK    1  A    between atoms: C_1  and  O_2
REMARK    2  A    between atoms: O_2  and  C_3
REMARK    3  A    between atoms: C_6  and  C_7
REMARK    4  A    between atoms: C_8  and  C_9
REMARK    5  A    between atoms: C_12  and  O_13
REMARK    6  A    between atoms: O_13  and  C_14
REMARK    7  A    between atoms: C_15  and  O_16
REMARK    8  A    between atoms: O_16  and  C_17
REMARK    9  A    between atoms: C_25  and  O_26
REMARK   10  A    between atoms: O_26  and  C_27
REMARK                            x       y       z     vdW  Elec       q    Type
REMARK                         _______ _______ _______ _____ _____    ______ ____
ROOT
ATOM      1  C   UNL     1       3.067   4.245  20.268  0.00  0.00    +0.000 C 
ATOM      2  C   UNL     1       4.113   3.672  19.654  0.00  0.00    +0.000 C 
ATOM      3  C   UNL     1       4.263   2.313  20.200  0.00  0.00    +0.000 C 
ATOM      4  O   UNL     1       5.061   1.474  19.840  0.00  0.00    +0.000 OA
ATOM      5  N   UNL     1       3.322   2.172  21.161  0.00  0.00    +0.000 N 
ATOM      6  C   UNL     1       2.546   3.274  21.248  0.00  0.00    +0.000 C 
ATOM      7  O   UNL     1       1.584   3.430  21.976  0.00  0.00    +0.000 OA
ATOM      8  H   UNL     1       3.172   1.330  21.693  0.00  0.00    +0.000 HD
ENDROOT
BRANCH   1  12
ATOM      9  C   UNL     1       1.621   8.210  19.704  0.00  0.00    +0.000 A 
ATOM     10  C   UNL     1       1.219   7.451  20.816  0.00  0.00    +0.000 A 
ATOM     11  C   UNL     1       1.677   6.148  20.999  0.00  0.00    +0.000 A 
ATOM     12  C   UNL     1       2.495   5.562  20.037  0.00  0.00    +0.000 A 
ATOM     13  C   UNL     1       2.779   6.263  18.864  0.00  0.00    +0.000 A 
ATOM     14  C   UNL     1       2.355   7.588  18.683  0.00  0.00    +0.000 A 
BRANCH   9  16
ATOM     15  C   UNL     1       0.413  10.005  20.643  0.00  0.00    +0.000 C 
ATOM     16  O   UNL     1       1.302   9.539  19.620  0.00  0.00    +0.000 OA
ENDBRANCH   9  16
BRANCH  14  17
ATOM     17  O   UNL     1       2.784   8.088  17.484  0.00  0.00    +0.000 OA
ATOM     18  C   UNL     1       3.944   7.549  16.873  0.00  0.00    +0.000 C 
ENDBRANCH  14  17
ENDBRANCH   1  12
BRANCH   2  19
ATOM     19  C   UNL     1       4.916   4.272  18.594  0.00  0.00    +0.000 A 
ATOM     20  C   UNL     1       4.740   3.872  17.271  0.00  0.00    +0.000 A 
ATOM     21  C   UNL     1       5.609   4.343  16.290  0.00  0.00    +0.000 A 
ATOM     22  C   UNL     1       6.668   5.208  16.608  0.00  0.00    +0.000 A 
ATOM     23  C   UNL     1       6.843   5.627  17.940  0.00  0.00    +0.000 A 
ATOM     24  C   UNL     1       5.950   5.162  18.917  0.00  0.00    +0.000 A 
BRANCH  22  25
ATOM     25  O   UNL     1       7.416   5.526  15.504  0.00  0.00    +0.000 OA
ATOM     26  C   UNL     1       7.133   4.881  14.272  0.00  0.00    +0.000 C 
ENDBRANCH  22  25
BRANCH  23  27
ATOM     27  O   UNL     1       7.896   6.450  18.231  0.00  0.00    +0.000 OA
ATOM     28  C   UNL     1       7.810   7.823  17.877  0.00  0.00    +0.000 C 
ENDBRANCH  23  27
ENDBRANCH   2  19
TORSDOF 6
ENDMDL
