MODEL 1
REMARK VINA RESULT:      -8.6      0.000      0.000
REMARK  Name = 
REMARK  7 active torsions:
REMARK  status: ('A' for Active; 'I' for Inactive)
REMARK    1  A    between atoms: C_1  and  C_2
REMARK    2  A    between atoms: C_2  and  C_8
REMARK    3  A    between atoms: N_3  and  N_4
REMARK    4  A    between atoms: N_10  and  S_11
REMARK    5  A    between atoms: S_11  and  C_14
REMARK    6  A    between atoms: C_18  and  N_19
REMARK    7  A    between atoms: C_25  and  C_26
REMARK                            x       y       z     vdW  Elec       q    Type
REMARK                         _______ _______ _______ _____ _____    ______ ____
ROOT
ATOM      1  C   UNL     1       6.604   5.254  17.766  0.00  0.00    +0.000 A 
ATOM      2  C   UNL     1       5.497   4.613  18.303  0.00  0.00    +0.000 A 
ATOM      3  N   UNL     1       4.868   3.916  17.300  0.00  0.00    +0.000 N 
ATOM      4  C   UNL     1       5.499   4.105  16.093  0.00  0.00    +0.000 A 
ATOM      5  C   UNL     1       5.227   3.628  14.797  0.00  0.00    +0.000 A 
ATOM      6  C   UNL     1       6.112   3.937  13.756  0.00  0.00    +0.000 A 
ATOM      7  C   UNL     1       5.878   3.402  12.373  0.00  0.00    +0.000 C 
ATOM      8  C   UNL     1       7.231   4.727  14.009  0.00  0.00    +0.000 A 
ATOM      9  C   UNL     1       7.486   5.220  15.291  0.00  0.00    +0.000 A 
ATOM     10  C   UNL     1       6.616   4.914  16.362  0.00  0.00    +0.000 A 
ENDROOT
BRANCH   1  12
ATOM     11  C   UNL     1       8.207   5.505  19.758  0.00  0.00    +0.000 C 
ATOM     12  C   UNL     1       7.555   6.090  18.522  0.00  0.00    +0.000 C 
ATOM     13  N   UNL     1       7.774   7.285  18.055  0.00  0.00    +0.000 NA
BRANCH  13  14
ATOM     14  N   UNL     1       8.626   8.121  18.714  0.00  0.00    +0.000 N 
ATOM     15  C   UNL     1       8.644   9.468  18.537  0.00  0.00    +0.000 C 
ATOM     16  N   UNL     1       7.888  10.106  17.706  0.00  0.00    +0.000 NA
ATOM     17  N   UNL     1       9.561  10.141  19.265  0.00  0.00    +0.000 N 
ATOM     18  H   UNL     1       9.264   7.764  19.416  0.00  0.00    +0.000 HD
ATOM     19  H   UNL     1       7.324   9.362  17.269  0.00  0.00    +0.000 HD
ATOM     20  H   UNL     1       9.622   9.881  20.238  0.00  0.00    +0.000 HD
ATOM     21  H   UNL     1       9.403  11.141  19.162  0.00  0.00    +0.000 HD
ENDBRANCH  13  14
ENDBRANCH   1  12
BRANCH   3  22
ATOM     22  S   UNL     1       3.397   3.066  17.525  0.00  0.00    +0.000 S 
ATOM     23  O   UNL     1       2.600   3.304  16.338  0.00  0.00    +0.000 OA
ATOM     24  O   UNL     1       3.767   1.730  17.945  0.00  0.00    +0.000 OA
BRANCH  22  25
ATOM     25  C   UNL     1       2.619   3.864  18.909  0.00  0.00    +0.000 A 
ATOM     26  C   UNL     1       2.017   3.090  19.910  0.00  0.00    +0.000 A 
ATOM     27  C   UNL     1       1.348   3.715  20.965  0.00  0.00    +0.000 A 
ATOM     28  C   UNL     1       1.284   5.108  21.028  0.00  0.00    +0.000 A 
ATOM     29  C   UNL     1       1.930   5.875  20.047  0.00  0.00    +0.000 A 
ATOM     30  C   UNL     1       2.619   5.260  18.992  0.00  0.00    +0.000 A 
BRANCH  29  31
ATOM     31  N   UNL     1       1.862   7.337  20.106  0.00  0.00    +0.000 N 
ATOM     32  O   UNL     1       2.252   7.971  19.109  0.00  0.00    +0.000 OA
ATOM     33  O   UNL     1       1.443   7.858  21.148  0.00  0.00    +0.000 OA
ENDBRANCH  29  31
ENDBRANCH  22  25
ENDBRANCH   3  22
TORSDOF 5
ENDMDL
MODEL 2
REMARK VINA RESULT:      -8.4      3.510      7.133
REMARK  Name = 
REMARK  7 active torsions:
REMARK  status: ('A' for Active; 'I' for Inactive)
REMARK    1  A    between atoms: C_1  and  C_2
REMARK    2  A    between atoms: C_2  and  C_8
REMARK    3  A    between atoms: N_3  and  N_4
REMARK    4  A    between atoms: N_10  and  S_11
REMARK    5  A    between atoms: S_11  and  C_14
REMARK    6  A    between atoms: C_18  and  N_19
REMARK    7  A    between atoms: C_25  and  C_26
REMARK                            x       y       z     vdW  Elec       q    Type
REMARK                         _______ _______ _______ _____ _____    ______ ____
ROOT
ATOM      1  C   UNL     1       2.076   7.998  18.625  0.00  0.00    +0.000 A 
ATOM      2  C   UNL     1       3.003   7.895  17.599  0.00  0.00    +0.000 A 
ATOM      3  N   UNL     1       3.589   6.654  17.662  0.00  0.00    +0.000 N 
ATOM      4  C   UNL     1       3.110   5.934  18.731  0.00  0.00    +0.000 A 
ATOM      5  C   UNL     1       3.410   4.647  19.217  0.00  0.00    +0.000 A 
ATOM      6  C   UNL     1       2.688   4.144  20.306  0.00  0.00    +0.000 A 
ATOM      7  C   UNL     1       2.948   2.756  20.817  0.00  0.00    +0.000 C 
ATOM      8  C   UNL     1       1.704   4.925  20.907  0.00  0.00    +0.000 A 
ATOM      9  C   UNL     1       1.425   6.212  20.439  0.00  0.00    +0.000 A 
ATOM     10  C   UNL     1       2.129   6.740  19.334  0.00  0.00    +0.000 A 
ENDROOT
BRANCH   1  12
ATOM     11  C   UNL     1       1.052   9.638  20.318  0.00  0.00    +0.000 C 
ATOM     12  C   UNL     1       1.220   9.170  18.886  0.00  0.00    +0.000 C 
ATOM     13  N   UNL     1       0.673   9.731  17.847  0.00  0.00    +0.000 NA
BRANCH  13  14
ATOM     14  N   UNL     1      -0.147  10.807  18.015  0.00  0.00    +0.000 N 
ATOM     15  C   UNL     1      -1.440  10.840  17.596  0.00  0.00    +0.000 C 
ATOM     16  N   UNL     1      -2.027   9.878  16.964  0.00  0.00    +0.000 NA
ATOM     17  N   UNL     1      -2.103  11.991  17.836  0.00  0.00    +0.000 N 
ATOM     18  H   UNL     1       0.171  11.629  18.514  0.00  0.00    +0.000 HD
ATOM     19  H   UNL     1      -1.298   9.154  16.888  0.00  0.00    +0.000 HD
ATOM     20  H   UNL     1      -1.990  12.376  18.762  0.00  0.00    +0.000 HD
ATOM     21  H   UNL     1      -3.087  11.866  17.608  0.00  0.00    +0.000 HD
ENDBRANCH  13  14
ENDBRANCH   1  12
BRANCH   3  22
ATOM     22  S   UNL     1       4.866   6.163  16.631  0.00  0.00    +0.000 S 
ATOM     23  O   UNL     1       4.729   4.730  16.462  0.00  0.00    +0.000 OA
ATOM     24  O   UNL     1       4.843   7.074  15.504  0.00  0.00    +0.000 OA
BRANCH  22  25
ATOM     25  C   UNL     1       6.348   6.495  17.553  0.00  0.00    +0.000 A 
ATOM     26  C   UNL     1       6.952   5.468  18.291  0.00  0.00    +0.000 A 
ATOM     27  C   UNL     1       8.079   5.742  19.069  0.00  0.00    +0.000 A 
ATOM     28  C   UNL     1       8.608   7.033  19.109  0.00  0.00    +0.000 A 
ATOM     29  C   UNL     1       8.024   8.043  18.330  0.00  0.00    +0.000 A 
ATOM     30  C   UNL     1       6.903   7.778  17.531  0.00  0.00    +0.000 A 
BRANCH  29  31
ATOM     31  N   UNL     1       8.572   9.401  18.371  0.00  0.00    +0.000 N 
ATOM     32  O   UNL     1       9.356   9.677  19.297  0.00  0.00    +0.000 OA
ATOM     33  O   UNL     1       8.209  10.201  17.498  0.00  0.00    +0.000 OA
ENDBRANCH  29  31
ENDBRANCH  22  25
ENDBRANCH   3  22
TORSDOF 5
ENDMDL
MODEL 3
REMARK VINA RESULT:      -8.3      7.639     11.450
REMARK  Name = 
REMARK  7 active torsions:
REMARK  status: ('A' for Active; 'I' for Inactive)
REMARK    1  A    between atoms: C_1  and  C_2
REMARK    2  A    between atoms: C_2  and  C_8
REMARK    3  A    between atoms: N_3  and  N_4
REMARK    4  A    between atoms: N_10  and  S_11
REMARK    5  A    between atoms: S_11  and  C_14
REMARK    6  A    between atoms: C_18  and  N_19
REMARK    7  A    between atoms: C_25  and  C_26
REMARK                            x       y       z     vdW  Elec       q    Type
REMARK                         _______ _______ _______ _____ _____    ______ ____
ROOT
ATOM      1  C   UNL     1      -3.792  12.681  20.205  0.00  0.00    +0.000 A 
ATOM      2  C   UNL     1      -2.467  12.903  20.551  0.00  0.00    +0.000 A 
ATOM      3  N   UNL     1      -1.666  12.379  19.566  0.00  0.00    +0.000 N 
ATOM      4  C   UNL     1      -2.417  11.773  18.586  0.00  0.00    +0.000 A 
ATOM      5  C   UNL     1      -2.061  11.092  17.407  0.00  0.00    +0.000 A 
ATOM      6  C   UNL     1      -3.072  10.639  16.550  0.00  0.00    +0.000 A 
ATOM      7  C   UNL     1      -2.727   9.954  15.259  0.00  0.00    +0.000 C 
ATOM      8  C   UNL     1      -4.409  10.847  16.882  0.00  0.00    +0.000 A 
ATOM      9  C   UNL     1      -4.760  11.502  18.066  0.00  0.00    +0.000 A 
ATOM     10  C   UNL     1      -3.760  11.980  18.943  0.00  0.00    +0.000 A 
ENDROOT
BRANCH   1  12
ATOM     11  C   UNL     1      -5.594  14.452  20.678  0.00  0.00    +0.000 C 
ATOM     12  C   UNL     1      -4.962  13.111  20.994  0.00  0.00    +0.000 C 
ATOM     13  N   UNL     1      -5.379  12.285  21.910  0.00  0.00    +0.000 NA
BRANCH  13  14
ATOM     14  N   UNL     1      -6.443  12.625  22.691  0.00  0.00    +0.000 N 
ATOM     15  C   UNL     1      -6.325  13.080  23.966  0.00  0.00    +0.000 C 
ATOM     16  N   UNL     1      -5.204  13.209  24.594  0.00  0.00    +0.000 NA
ATOM     17  N   UNL     1      -7.485  13.360  24.597  0.00  0.00    +0.000 N 
ATOM     18  H   UNL     1      -7.387  12.596  22.323  0.00  0.00    +0.000 HD
ATOM     19  H   UNL     1      -4.501  12.901  23.906  0.00  0.00    +0.000 HD
ATOM     20  H   UNL     1      -8.157  13.890  24.061  0.00  0.00    +0.000 HD
ATOM     21  H   UNL     1      -7.284  13.814  25.485  0.00  0.00    +0.000 HD
ENDBRANCH  13  14
ENDBRANCH   1  12
BRANCH   3  22
ATOM     22  S   UNL     1       0.045  12.354  19.660  0.00  0.00    +0.000 S 
ATOM     23  O   UNL     1       0.533  12.580  18.315  0.00  0.00    +0.000 OA
ATOM     24  O   UNL     1       0.398  13.227  20.762  0.00  0.00    +0.000 OA
BRANCH  22  25
ATOM     25  C   UNL     1       0.448  10.693  20.146  0.00  0.00    +0.000 A 
ATOM     26  C   UNL     1       0.066  10.227  21.410  0.00  0.00    +0.000 A 
ATOM     27  C   UNL     1       0.439   8.945  21.821  0.00  0.00    +0.000 A 
ATOM     28  C   UNL     1       1.184   8.125  20.972  0.00  0.00    +0.000 A 
ATOM     29  C   UNL     1       1.521   8.583  19.689  0.00  0.00    +0.000 A 
ATOM     30  C   UNL     1       1.139   9.862  19.259  0.00  0.00    +0.000 A 
BRANCH  29  31
ATOM     31  N   UNL     1       2.307   7.729  18.795  0.00  0.00    +0.000 N 
ATOM     32  O   UNL     1       2.446   6.535  19.116  0.00  0.00    +0.000 OA
ATOM     33  O   UNL     1       2.805   8.247  17.787  0.00  0.00    +0.000 OA
ENDBRANCH  29  31
ENDBRANCH  22  25
ENDBRANCH   3  22
TORSDOF 5
ENDMDL
MODEL 4
REMARK VINA RESULT:      -8.2      3.240      7.023
REMARK  Name = 
REMARK  7 active torsions:
REMARK  status: ('A' for Active; 'I' for Inactive)
REMARK    1  A    between atoms: C_1  and  C_2
REMARK    2  A    between atoms: C_2  and  C_8
REMARK    3  A    between atoms: N_3  and  N_4
REMARK    4  A    between atoms: N_10  and  S_11
REMARK    5  A    between atoms: S_11  and  C_14
REMARK    6  A    between atoms: C_18  and  N_19
REMARK    7  A    between atoms: C_25  and  C_26
REMARK                            x       y       z     vdW  Elec       q    Type
REMARK                         _______ _______ _______ _____ _____    ______ ____
ROOT
ATOM      1  C   UNL     1       2.067   7.836  18.864  0.00  0.00    +0.000 A 
ATOM      2  C   UNL     1       2.960   7.829  17.802  0.00  0.00    +0.000 A 
ATOM      3  N   UNL     1       3.585   6.607  17.766  0.00  0.00    +0.000 N 
ATOM      4  C   UNL     1       3.168   5.805  18.803  0.00  0.00    +0.000 A 
ATOM      5  C   UNL     1       3.525   4.501  19.195  0.00  0.00    +0.000 A 
ATOM      6  C   UNL     1       2.859   3.907  20.275  0.00  0.00    +0.000 A 
ATOM      7  C   UNL     1       3.180   2.500  20.686  0.00  0.00    +0.000 C 
ATOM      8  C   UNL     1       1.874   4.616  20.958  0.00  0.00    +0.000 A 
ATOM      9  C   UNL     1       1.538   5.920  20.582  0.00  0.00    +0.000 A 
ATOM     10  C   UNL     1       2.186   6.539  19.489  0.00  0.00    +0.000 A 
ENDROOT
BRANCH   1  12
ATOM     11  C   UNL     1       0.649   9.846  18.123  0.00  0.00    +0.000 C 
ATOM     12  C   UNL     1       1.186   8.961  19.228  0.00  0.00    +0.000 C 
ATOM     13  N   UNL     1       0.922   9.102  20.495  0.00  0.00    +0.000 NA
BRANCH  13  14
ATOM     14  N   UNL     1       0.130  10.132  20.908  0.00  0.00    +0.000 N 
ATOM     15  C   UNL     1      -0.076  10.445  22.214  0.00  0.00    +0.000 C 
ATOM     16  N   UNL     1       0.420   9.789  23.210  0.00  0.00    +0.000 NA
ATOM     17  N   UNL     1      -0.899  11.492  22.442  0.00  0.00    +0.000 N 
ATOM     18  H   UNL     1      -0.310  10.750  20.236  0.00  0.00    +0.000 HD
ATOM     19  H   UNL     1       0.966   9.039  22.760  0.00  0.00    +0.000 HD
ATOM     20  H   UNL     1      -0.734  12.309  21.873  0.00  0.00    +0.000 HD
ATOM     21  H   UNL     1      -0.880  11.725  23.433  0.00  0.00    +0.000 HD
ENDBRANCH  13  14
ENDBRANCH   1  12
BRANCH   3  22
ATOM     22  S   UNL     1       4.839   6.223  16.662  0.00  0.00    +0.000 S 
ATOM     23  O   UNL     1       4.741   4.800  16.408  0.00  0.00    +0.000 OA
ATOM     24  O   UNL     1       4.745   7.200  15.596  0.00  0.00    +0.000 OA
BRANCH  22  25
ATOM     25  C   UNL     1       6.342   6.547  17.552  0.00  0.00    +0.000 A 
ATOM     26  C   UNL     1       6.967   5.514  18.261  0.00  0.00    +0.000 A 
ATOM     27  C   UNL     1       8.112   5.780  19.015  0.00  0.00    +0.000 A 
ATOM     28  C   UNL     1       8.639   7.072  19.057  0.00  0.00    +0.000 A 
ATOM     29  C   UNL     1       8.033   8.090  18.305  0.00  0.00    +0.000 A 
ATOM     30  C   UNL     1       6.893   7.832  17.531  0.00  0.00    +0.000 A 
BRANCH  29  31
ATOM     31  N   UNL     1       8.579   9.450  18.350  0.00  0.00    +0.000 N 
ATOM     32  O   UNL     1       9.442   9.694  19.212  0.00  0.00    +0.000 OA
ATOM     33  O   UNL     1       8.137  10.280  17.545  0.00  0.00    +0.000 OA
ENDBRANCH  29  31
ENDBRANCH  22  25
ENDBRANCH   3  22
TORSDOF 5
ENDMDL
MODEL 5
REMARK VINA RESULT:      -8.1      3.234      7.031
REMARK  Name = 
REMARK  7 active torsions:
REMARK  status: ('A' for Active; 'I' for Inactive)
REMARK    1  A    between atoms: C_1  and  C_2
REMARK    2  A    between atoms: C_2  and  C_8
REMARK    3  A    between atoms: N_3  and  N_4
REMARK    4  A    between atoms: N_10  and  S_11
REMARK    5  A    between atoms: S_11  and  C_14
REMARK    6  A    between atoms: C_18  and  N_19
REMARK    7  A    between atoms: C_25  and  C_26
REMARK                            x       y       z     vdW  Elec       q    Type
REMARK                         _______ _______ _______ _____ _____    ______ ____
ROOT
ATOM      1  C   UNL     1       2.851   7.061  18.833  0.00  0.00    +0.000 A 
ATOM      2  C   UNL     1       4.156   7.119  18.365  0.00  0.00    +0.000 A 
ATOM      3  N   UNL     1       4.649   5.840  18.287  0.00  0.00    +0.000 N 
ATOM      4  C   UNL     1       3.723   4.924  18.730  0.00  0.00    +0.000 A 
ATOM      5  C   UNL     1       3.765   3.523  18.859  0.00  0.00    +0.000 A 
ATOM      6  C   UNL     1       2.614   2.842  19.278  0.00  0.00    +0.000 A 
ATOM      7  C   UNL     1       2.609   1.344  19.377  0.00  0.00    +0.000 C 
ATOM      8  C   UNL     1       1.458   3.556  19.582  0.00  0.00    +0.000 A 
ATOM      9  C   UNL     1       1.427   4.949  19.477  0.00  0.00    +0.000 A 
ATOM     10  C   UNL     1       2.569   5.660  19.045  0.00  0.00    +0.000 A 
ENDROOT
BRANCH   1  12
ATOM     11  C   UNL     1       1.662   9.117  17.853  0.00  0.00    +0.000 C 
ATOM     12  C   UNL     1       1.966   8.223  19.037  0.00  0.00    +0.000 C 
ATOM     13  N   UNL     1       1.495   8.388  20.240  0.00  0.00    +0.000 NA
BRANCH  13  14
ATOM     14  N   UNL     1       0.687   9.453  20.507  0.00  0.00    +0.000 N 
ATOM     15  C   UNL     1       0.544   9.995  21.745  0.00  0.00    +0.000 C 
ATOM     16  N   UNL     1       1.125   9.550  22.810  0.00  0.00    +0.000 NA
ATOM     17  N   UNL     1      -0.306  11.041  21.830  0.00  0.00    +0.000 N 
ATOM     18  H   UNL     1       0.184   9.922  19.764  0.00  0.00    +0.000 HD
ATOM     19  H   UNL     1       1.674   8.747  22.470  0.00  0.00    +0.000 HD
ATOM     20  H   UNL     1      -0.209  11.743  21.112  0.00  0.00    +0.000 HD
ATOM     21  H   UNL     1      -0.240  11.454  22.758  0.00  0.00    +0.000 HD
ENDBRANCH  13  14
ENDBRANCH   1  12
BRANCH   3  22
ATOM     22  S   UNL     1       6.266   5.480  17.849  0.00  0.00    +0.000 S 
ATOM     23  O   UNL     1       6.987   6.737  17.871  0.00  0.00    +0.000 OA
ATOM     24  O   UNL     1       6.661   4.354  18.672  0.00  0.00    +0.000 OA
BRANCH  22  25
ATOM     25  C   UNL     1       6.164   4.903  16.171  0.00  0.00    +0.000 A 
ATOM     26  C   UNL     1       5.190   3.961  15.818  0.00  0.00    +0.000 A 
ATOM     27  C   UNL     1       5.150   3.457  14.516  0.00  0.00    +0.000 A 
ATOM     28  C   UNL     1       6.073   3.895  13.565  0.00  0.00    +0.000 A 
ATOM     29  C   UNL     1       7.015   4.873  13.916  0.00  0.00    +0.000 A 
ATOM     30  C   UNL     1       7.056   5.400  15.215  0.00  0.00    +0.000 A 
BRANCH  29  31
ATOM     31  N   UNL     1       7.990   5.333  12.924  0.00  0.00    +0.000 N 
ATOM     32  O   UNL     1       8.934   6.036  13.329  0.00  0.00    +0.000 OA
ATOM     33  O   UNL     1       7.809   5.017  11.741  0.00  0.00    +0.000 OA
ENDBRANCH  29  31
ENDBRANCH  22  25
ENDBRANCH   3  22
TORSDOF 5
ENDMDL
MODEL 6
REMARK VINA RESULT:      -8.0      1.694      2.928
REMARK  Name = 
REMARK  7 active torsions:
REMARK  status: ('A' for Active; 'I' for Inactive)
REMARK    1  A    between atoms: C_1  and  C_2
REMARK    2  A    between atoms: C_2  and  C_8
REMARK    3  A    between atoms: N_3  and  N_4
REMARK    4  A    between atoms: N_10  and  S_11
REMARK    5  A    between atoms: S_11  and  C_14
REMARK    6  A    between atoms: C_18  and  N_19
REMARK    7  A    between atoms: C_25  and  C_26
REMARK                            x       y       z     vdW  Elec       q    Type
REMARK                         _______ _______ _______ _____ _____    ______ ____
ROOT
ATOM      1  C   UNL     1       6.456   5.881  17.740  0.00  0.00    +0.000 A 
ATOM      2  C   UNL     1       5.224   5.566  18.295  0.00  0.00    +0.000 A 
ATOM      3  N   UNL     1       4.491   4.873  17.363  0.00  0.00    +0.000 N 
ATOM      4  C   UNL     1       5.181   4.751  16.180  0.00  0.00    +0.000 A 
ATOM      5  C   UNL     1       4.850   4.155  14.948  0.00  0.00    +0.000 A 
ATOM      6  C   UNL     1       5.809   4.121  13.927  0.00  0.00    +0.000 A 
ATOM      7  C   UNL     1       5.506   3.449  12.620  0.00  0.00    +0.000 C 
ATOM      8  C   UNL     1       7.063   4.693  14.133  0.00  0.00    +0.000 A 
ATOM      9  C   UNL     1       7.380   5.305  15.349  0.00  0.00    +0.000 A 
ATOM     10  C   UNL     1       6.436   5.344  16.400  0.00  0.00    +0.000 A 
ENDROOT
BRANCH   1  12
ATOM     11  C   UNL     1       8.306   5.890  19.523  0.00  0.00    +0.000 C 
ATOM     12  C   UNL     1       7.540   6.605  18.429  0.00  0.00    +0.000 C 
ATOM     13  N   UNL     1       7.769   7.823  18.028  0.00  0.00    +0.000 NA
BRANCH  13  14
ATOM     14  N   UNL     1       8.744   8.560  18.633  0.00  0.00    +0.000 N 
ATOM     15  C   UNL     1       8.847   9.910  18.517  0.00  0.00    +0.000 C 
ATOM     16  N   UNL     1       8.062  10.643  17.798  0.00  0.00    +0.000 NA
ATOM     17  N   UNL     1       9.880  10.476  19.176  0.00  0.00    +0.000 N 
ATOM     18  H   UNL     1       9.419   8.122  19.248  0.00  0.00    +0.000 HD
ATOM     19  H   UNL     1       7.403   9.965  17.388  0.00  0.00    +0.000 HD
ATOM     20  H   UNL     1      10.018  10.162  20.125  0.00  0.00    +0.000 HD
ATOM     21  H   UNL     1       9.789  11.489  19.135  0.00  0.00    +0.000 HD
ENDBRANCH  13  14
ENDBRANCH   1  12
BRANCH   3  22
ATOM     22  S   UNL     1       2.867   4.386  17.616  0.00  0.00    +0.000 S 
ATOM     23  O   UNL     1       2.098   5.601  17.800  0.00  0.00    +0.000 OA
ATOM     24  O   UNL     1       2.565   3.439  16.562  0.00  0.00    +0.000 OA
BRANCH  22  25
ATOM     25  C   UNL     1       2.897   3.487  19.148  0.00  0.00    +0.000 A 
ATOM     26  C   UNL     1       1.867   3.667  20.080  0.00  0.00    +0.000 A 
ATOM     27  C   UNL     1       1.921   3.012  21.312  0.00  0.00    +0.000 A 
ATOM     28  C   UNL     1       2.995   2.173  21.614  0.00  0.00    +0.000 A 
ATOM     29  C   UNL     1       3.998   1.962  20.656  0.00  0.00    +0.000 A 
ATOM     30  C   UNL     1       3.947   2.600  19.408  0.00  0.00    +0.000 A 
BRANCH  29  31
ATOM     31  N   UNL     1       5.130   1.086  20.969  0.00  0.00    +0.000 N 
ATOM     32  O   UNL     1       5.470   0.256  20.106  0.00  0.00    +0.000 OA
ATOM     33  O   UNL     1       5.668   1.206  22.077  0.00  0.00    +0.000 OA
ENDBRANCH  29  31
ENDBRANCH  22  25
ENDBRANCH   3  22
TORSDOF 5
ENDMDL
MODEL 7
REMARK VINA RESULT:      -8.0      6.418     10.088
REMARK  Name = 
REMARK  7 active torsions:
REMARK  status: ('A' for Active; 'I' for Inactive)
REMARK    1  A    between atoms: C_1  and  C_2
REMARK    2  A    between atoms: C_2  and  C_8
REMARK    3  A    between atoms: N_3  and  N_4
REMARK    4  A    between atoms: N_10  and  S_11
REMARK    5  A    between atoms: S_11  and  C_14
REMARK    6  A    between atoms: C_18  and  N_19
REMARK    7  A    between atoms: C_25  and  C_26
REMARK                            x       y       z     vdW  Elec       q    Type
REMARK                         _______ _______ _______ _____ _____    ______ ____
ROOT
ATOM      1  C   UNL     1      -1.661  11.202  18.528  0.00  0.00    +0.000 A 
ATOM      2  C   UNL     1      -1.345  10.099  19.307  0.00  0.00    +0.000 A 
ATOM      3  N   UNL     1      -0.198  10.376  20.010  0.00  0.00    +0.000 N 
ATOM      4  C   UNL     1       0.290  11.622  19.691  0.00  0.00    +0.000 A 
ATOM      5  C   UNL     1       1.426  12.333  20.123  0.00  0.00    +0.000 A 
ATOM      6  C   UNL     1       1.624  13.643  19.668  0.00  0.00    +0.000 A 
ATOM      7  C   UNL     1       2.797  14.447  20.149  0.00  0.00    +0.000 C 
ATOM      8  C   UNL     1       0.714  14.216  18.783  0.00  0.00    +0.000 A 
ATOM      9  C   UNL     1      -0.400  13.499  18.336  0.00  0.00    +0.000 A 
ATOM     10  C   UNL     1      -0.631  12.180  18.788  0.00  0.00    +0.000 A 
ENDROOT
BRANCH   1  12
ATOM     11  C   UNL     1      -2.642  11.085  16.155  0.00  0.00    +0.000 C 
ATOM     12  C   UNL     1      -2.835  11.310  17.641  0.00  0.00    +0.000 C 
ATOM     13  N   UNL     1      -3.971  11.585  18.215  0.00  0.00    +0.000 NA
BRANCH  13  14
ATOM     14  N   UNL     1      -5.095  11.720  17.455  0.00  0.00    +0.000 N 
ATOM     15  C   UNL     1      -5.998  12.722  17.622  0.00  0.00    +0.000 C 
ATOM     16  N   UNL     1      -5.918  13.634  18.533  0.00  0.00    +0.000 NA
ATOM     17  N   UNL     1      -7.059  12.696  16.787  0.00  0.00    +0.000 N 
ATOM     18  H   UNL     1      -5.280  11.089  16.685  0.00  0.00    +0.000 HD
ATOM     19  H   UNL     1      -5.051  13.399  19.037  0.00  0.00    +0.000 HD
ATOM     20  H   UNL     1      -6.846  12.530  15.815  0.00  0.00    +0.000 HD
ATOM     21  H   UNL     1      -7.598  13.552  16.902  0.00  0.00    +0.000 HD
ENDBRANCH  13  14
ENDBRANCH   1  12
BRANCH   3  22
ATOM     22  S   UNL     1       0.589   9.234  21.016  0.00  0.00    +0.000 S 
ATOM     23  O   UNL     1       1.438   9.992  21.912  0.00  0.00    +0.000 OA
ATOM     24  O   UNL     1      -0.451   8.351  21.507  0.00  0.00    +0.000 OA
BRANCH  22  25
ATOM     25  C   UNL     1       1.613   8.288  19.914  0.00  0.00    +0.000 A 
ATOM     26  C   UNL     1       1.905   8.785  18.638  0.00  0.00    +0.000 A 
ATOM     27  C   UNL     1       2.656   8.015  17.746  0.00  0.00    +0.000 A 
ATOM     28  C   UNL     1       3.120   6.755  18.127  0.00  0.00    +0.000 A 
ATOM     29  C   UNL     1       2.863   6.286  19.423  0.00  0.00    +0.000 A 
ATOM     30  C   UNL     1       2.126   7.056  20.334  0.00  0.00    +0.000 A 
BRANCH  29  31
ATOM     31  N   UNL     1       3.345   4.962  19.827  0.00  0.00    +0.000 N 
ATOM     32  O   UNL     1       4.502   4.647  19.496  0.00  0.00    +0.000 OA
ATOM     33  O   UNL     1       2.569   4.228  20.452  0.00  0.00    +0.000 OA
ENDBRANCH  29  31
ENDBRANCH  22  25
ENDBRANCH   3  22
TORSDOF 5
ENDMDL
MODEL 8
REMARK VINA RESULT:      -8.0      3.561      7.032
REMARK  Name = 
REMARK  7 active torsions:
REMARK  status: ('A' for Active; 'I' for Inactive)
REMARK    1  A    between atoms: C_1  and  C_2
REMARK    2  A    between atoms: C_2  and  C_8
REMARK    3  A    between atoms: N_3  and  N_4
REMARK    4  A    between atoms: N_10  and  S_11
REMARK    5  A    between atoms: S_11  and  C_14
REMARK    6  A    between atoms: C_18  and  N_19
REMARK    7  A    between atoms: C_25  and  C_26
REMARK                            x       y       z     vdW  Elec       q    Type
REMARK                         _______ _______ _______ _____ _____    ______ ____
ROOT
ATOM      1  C   UNL     1       2.888   7.586  18.278  0.00  0.00    +0.000 A 
ATOM      2  C   UNL     1       4.147   7.322  17.760  0.00  0.00    +0.000 A 
ATOM      3  N   UNL     1       4.588   6.127  18.273  0.00  0.00    +0.000 N 
ATOM      4  C   UNL     1       3.676   5.600  19.157  0.00  0.00    +0.000 A 
ATOM      5  C   UNL     1       3.682   4.429  19.939  0.00  0.00    +0.000 A 
ATOM      6  C   UNL     1       2.551   4.113  20.703  0.00  0.00    +0.000 A 
ATOM      7  C   UNL     1       2.505   2.846  21.508  0.00  0.00    +0.000 C 
ATOM      8  C   UNL     1       1.450   4.967  20.700  0.00  0.00    +0.000 A 
ATOM      9  C   UNL     1       1.457   6.141  19.942  0.00  0.00    +0.000 A 
ATOM     10  C   UNL     1       2.579   6.478  19.152  0.00  0.00    +0.000 A 
ENDROOT
BRANCH   1  12
ATOM     11  C   UNL     1       0.638   8.547  17.492  0.00  0.00    +0.000 C 
ATOM     12  C   UNL     1       2.064   8.766  17.956  0.00  0.00    +0.000 C 
ATOM     13  N   UNL     1       2.631   9.927  18.108  0.00  0.00    +0.000 NA
BRANCH  13  14
ATOM     14  N   UNL     1       1.936  11.061  17.810  0.00  0.00    +0.000 N 
ATOM     15  C   UNL     1       1.289  11.813  18.739  0.00  0.00    +0.000 C 
ATOM     16  N   UNL     1       1.229  11.527  19.997  0.00  0.00    +0.000 NA
ATOM     17  N   UNL     1       0.643  12.900  18.265  0.00  0.00    +0.000 N 
ATOM     18  H   UNL     1       1.913  11.422  16.863  0.00  0.00    +0.000 HD
ATOM     19  H   UNL     1       1.766  10.651  20.074  0.00  0.00    +0.000 HD
ATOM     20  H   UNL     1       1.160  13.464  17.607  0.00  0.00    +0.000 HD
ATOM     21  H   UNL     1       0.310  13.461  19.046  0.00  0.00    +0.000 HD
ENDBRANCH  13  14
ENDBRANCH   1  12
BRANCH   3  22
ATOM     22  S   UNL     1       6.147   5.487  17.962  0.00  0.00    +0.000 S 
ATOM     23  O   UNL     1       7.070   6.602  18.032  0.00  0.00    +0.000 OA
ATOM     24  O   UNL     1       6.281   4.325  18.818  0.00  0.00    +0.000 OA
BRANCH  22  25
ATOM     25  C   UNL     1       6.073   4.906  16.284  0.00  0.00    +0.000 A 
ATOM     26  C   UNL     1       5.104   3.963  15.917  0.00  0.00    +0.000 A 
ATOM     27  C   UNL     1       5.085   3.456  14.616  0.00  0.00    +0.000 A 
ATOM     28  C   UNL     1       6.024   3.891  13.680  0.00  0.00    +0.000 A 
ATOM     29  C   UNL     1       6.961   4.870  14.044  0.00  0.00    +0.000 A 
ATOM     30  C   UNL     1       6.980   5.400  15.342  0.00  0.00    +0.000 A 
BRANCH  29  31
ATOM     31  N   UNL     1       7.952   5.327  13.066  0.00  0.00    +0.000 N 
ATOM     32  O   UNL     1       8.915   5.990  13.492  0.00  0.00    +0.000 OA
ATOM     33  O   UNL     1       7.765   5.047  11.875  0.00  0.00    +0.000 OA
ENDBRANCH  29  31
ENDBRANCH  22  25
ENDBRANCH   3  22
TORSDOF 5
ENDMDL
MODEL 9
REMARK VINA RESULT:      -8.0      3.273      7.125
REMARK  Name = 
REMARK  7 active torsions:
REMARK  status: ('A' for Active; 'I' for Inactive)
REMARK    1  A    between atoms: C_1  and  C_2
REMARK    2  A    between atoms: C_2  and  C_8
REMARK    3  A    between atoms: N_3  and  N_4
REMARK    4  A    between atoms: N_10  and  S_11
REMARK    5  A    between atoms: S_11  and  C_14
REMARK    6  A    between atoms: C_18  and  N_19
REMARK    7  A    between atoms: C_25  and  C_26
REMARK                            x       y       z     vdW  Elec       q    Type
REMARK                         _______ _______ _______ _____ _____    ______ ____
ROOT
ATOM      1  C   UNL     1       2.787   7.285  18.904  0.00  0.00    +0.000 A 
ATOM      2  C   UNL     1       4.041   7.177  18.321  0.00  0.00    +0.000 A 
ATOM      3  N   UNL     1       4.558   5.941  18.624  0.00  0.00    +0.000 N 
ATOM      4  C   UNL     1       3.701   5.230  19.432  0.00  0.00    +0.000 A 
ATOM      5  C   UNL     1       3.790   3.951  20.013  0.00  0.00    +0.000 A 
ATOM      6  C   UNL     1       2.701   3.455  20.742  0.00  0.00    +0.000 A 
ATOM      7  C   UNL     1       2.744   2.075  21.332  0.00  0.00    +0.000 C 
ATOM      8  C   UNL     1       1.560   4.237  20.902  0.00  0.00    +0.000 A 
ATOM      9  C   UNL     1       1.483   5.516  20.345  0.00  0.00    +0.000 A 
ATOM     10  C   UNL     1       2.562   6.036  19.594  0.00  0.00    +0.000 A 
ENDROOT
BRANCH   1  12
ATOM     11  C   UNL     1       1.959   9.299  17.540  0.00  0.00    +0.000 C 
ATOM     12  C   UNL     1       1.895   8.455  18.796  0.00  0.00    +0.000 C 
ATOM     13  N   UNL     1       1.097   8.669  19.801  0.00  0.00    +0.000 NA
BRANCH  13  14
ATOM     14  N   UNL     1       0.258   9.744  19.779  0.00  0.00    +0.000 N 
ATOM     15  C   UNL     1       0.296  10.745  20.697  0.00  0.00    +0.000 C 
ATOM     16  N   UNL     1       1.099  10.779  21.709  0.00  0.00    +0.000 NA
ATOM     17  N   UNL     1      -0.615  11.728  20.528  0.00  0.00    +0.000 N 
ATOM     18  H   UNL     1      -0.412   9.864  19.030  0.00  0.00    +0.000 HD
ATOM     19  H   UNL     1       1.647   9.912  21.615  0.00  0.00    +0.000 HD
ATOM     20  H   UNL     1      -0.714  12.074  19.586  0.00  0.00    +0.000 HD
ATOM     21  H   UNL     1      -0.418  12.485  21.179  0.00  0.00    +0.000 HD
ENDBRANCH  13  14
ENDBRANCH   1  12
BRANCH   3  22
ATOM     22  S   UNL     1       6.136   5.446  18.179  0.00  0.00    +0.000 S 
ATOM     23  O   UNL     1       6.963   6.635  18.208  0.00  0.00    +0.000 OA
ATOM     24  O   UNL     1       6.435   4.283  18.991  0.00  0.00    +0.000 OA
BRANCH  22  25
ATOM     25  C   UNL     1       5.981   4.894  16.496  0.00  0.00    +0.000 A 
ATOM     26  C   UNL     1       4.941   4.024  16.143  0.00  0.00    +0.000 A 
ATOM     27  C   UNL     1       4.855   3.537  14.837  0.00  0.00    +0.000 A 
ATOM     28  C   UNL     1       5.798   3.920  13.882  0.00  0.00    +0.000 A 
ATOM     29  C   UNL     1       6.808   4.828  14.233  0.00  0.00    +0.000 A 
ATOM     30  C   UNL     1       6.896   5.338  15.537  0.00  0.00    +0.000 A 
BRANCH  29  31
ATOM     31  N   UNL     1       7.804   5.230  13.236  0.00  0.00    +0.000 N 
ATOM     32  O   UNL     1       7.657   4.807  12.075  0.00  0.00    +0.000 OA
ATOM     33  O   UNL     1       8.743   5.946  13.609  0.00  0.00    +0.000 OA
ENDBRANCH  29  31
ENDBRANCH  22  25
ENDBRANCH   3  22
TORSDOF 5
ENDMDL
