MODEL 1
REMARK VINA RESULT:      -6.1      0.000      0.000
REMARK  Name = 
REMARK  13 active torsions:
REMARK  status: ('A' for Active; 'I' for Inactive)
REMARK    1  A    between atoms: C_1  and  C_2
REMARK    2  A    between atoms: C_2  and  C_3
REMARK    3  A    between atoms: C_3  and  C_4
REMARK    4  A    between atoms: C_4  and  C_5
REMARK    5  A    between atoms: C_5  and  C_6
REMARK    6  A    between atoms: C_6  and  C_7
REMARK    7  A    between atoms: C_7  and  C_8
REMARK    8  A    between atoms: C_11  and  C_12
REMARK    9  A    between atoms: C_12  and  C_14
REMARK   10  A    between atoms: C_14  and  C_15
REMARK   11  A    between atoms: C_15  and  N_16
REMARK   12  A    between atoms: N_16  and  C_17
REMARK   13  A    between atoms: N_16  and  C_18
REMARK                            x       y       z     vdW  Elec       q    Type
REMARK                         _______ _______ _______ _____ _____    ______ ____
ROOT
ATOM      1  C   UNL     1       3.409   6.047  19.194  0.00  0.00    +0.000 A 
ATOM      2  C   UNL     1       3.484   6.775  18.000  0.00  0.00    +0.000 A 
ATOM      3  C   UNL     1       4.631   6.728  17.208  0.00  0.00    +0.000 A 
ATOM      4  C   UNL     1       5.726   5.956  17.604  0.00  0.00    +0.000 A 
ATOM      5  C   UNL     1       5.675   5.255  18.814  0.00  0.00    +0.000 A 
ATOM      6  C   UNL     1       4.521   5.296  19.601  0.00  0.00    +0.000 A 
ENDROOT
BRANCH   4   7
ATOM      7  C   UNL     1       6.904   5.887  16.693  0.00  0.00    +0.000 C 
ATOM      8  O   UNL     1       7.567   6.902  16.489  0.00  0.00    +0.000 OA
BRANCH   7   9
ATOM      9  C   UNL     1       7.245   4.573  16.022  0.00  0.00    +0.000 C 
BRANCH   9  10
ATOM     10  C   UNL     1       7.286   4.739  14.499  0.00  0.00    +0.000 C 
BRANCH  10  11
ATOM     11  N   UNL     1       6.433   3.787  13.763  0.00  0.00    +0.000 NA
ATOM     12  C   UNL     1       5.005   4.020  13.992  0.00  0.00    +0.000 C 
ATOM     13  C   UNL     1       6.721   3.884  12.325  0.00  0.00    +0.000 C 
ENDBRANCH  10  11
ENDBRANCH   9  10
ENDBRANCH   7   9
ENDBRANCH   4   7
BRANCH   1  14
ATOM     14  C   UNL     1       2.152   6.070  20.031  0.00  0.00    +0.000 C 
BRANCH  14  15
ATOM     15  C   UNL     1       2.004   4.799  20.872  0.00  0.00    +0.000 C 
BRANCH  15  16
ATOM     16  C   UNL     1       0.810   3.957  20.426  0.00  0.00    +0.000 C 
BRANCH  16  17
ATOM     17  C   UNL     1       1.286   2.749  19.617  0.00  0.00    +0.000 C 
BRANCH  17  18
ATOM     18  C   UNL     1       1.278   3.036  18.117  0.00  0.00    +0.000 C 
BRANCH  18  20
ATOM     19  C   UNL     1       3.545   1.983  18.423  0.00  0.00    +0.000 C 
ATOM     20  C   UNL     1       2.667   2.828  17.515  0.00  0.00    +0.000 C 
ENDBRANCH  18  20
ENDBRANCH  17  18
ENDBRANCH  16  17
ENDBRANCH  15  16
ENDBRANCH  14  15
ENDBRANCH   1  14
TORSDOF 10
ENDMDL
MODEL 2
REMARK VINA RESULT:      -5.9      1.403      2.639
REMARK  Name = 
REMARK  13 active torsions:
REMARK  status: ('A' for Active; 'I' for Inactive)
REMARK    1  A    between atoms: C_1  and  C_2
REMARK    2  A    between atoms: C_2  and  C_3
REMARK    3  A    between atoms: C_3  and  C_4
REMARK    4  A    between atoms: C_4  and  C_5
REMARK    5  A    between atoms: C_5  and  C_6
REMARK    6  A    between atoms: C_6  and  C_7
REMARK    7  A    between atoms: C_7  and  C_8
REMARK    8  A    between atoms: C_11  and  C_12
REMARK    9  A    between atoms: C_12  and  C_14
REMARK   10  A    between atoms: C_14  and  C_15
REMARK   11  A    between atoms: C_15  and  N_16
REMARK   12  A    between atoms: N_16  and  C_17
REMARK   13  A    between atoms: N_16  and  C_18
REMARK                            x       y       z     vdW  Elec       q    Type
REMARK                         _______ _______ _______ _____ _____    ______ ____
ROOT
ATOM      1  C   UNL     1       4.288   3.155  19.099  0.00  0.00    +0.000 A 
ATOM      2  C   UNL     1       3.801   2.911  17.808  0.00  0.00    +0.000 A 
ATOM      3  C   UNL     1       4.221   3.691  16.730  0.00  0.00    +0.000 A 
ATOM      4  C   UNL     1       5.129   4.733  16.930  0.00  0.00    +0.000 A 
ATOM      5  C   UNL     1       5.591   5.009  18.221  0.00  0.00    +0.000 A 
ATOM      6  C   UNL     1       5.177   4.220  19.298  0.00  0.00    +0.000 A 
ENDROOT
BRANCH   4   7
ATOM      7  C   UNL     1       5.596   5.498  15.737  0.00  0.00    +0.000 C 
ATOM      8  O   UNL     1       5.273   6.678  15.615  0.00  0.00    +0.000 OA
BRANCH   7   9
ATOM      9  C   UNL     1       6.439   4.796  14.693  0.00  0.00    +0.000 C 
BRANCH   9  10
ATOM     10  C   UNL     1       5.548   4.072  13.677  0.00  0.00    +0.000 C 
BRANCH  10  11
ATOM     11  N   UNL     1       6.289   3.327  12.643  0.00  0.00    +0.000 NA
ATOM     12  C   UNL     1       5.403   2.699  11.660  0.00  0.00    +0.000 C 
ATOM     13  C   UNL     1       7.218   4.235  11.957  0.00  0.00    +0.000 C 
ENDBRANCH  10  11
ENDBRANCH   9  10
ENDBRANCH   7   9
ENDBRANCH   4   7
BRANCH   1  14
ATOM     14  C   UNL     1       3.860   2.286  20.258  0.00  0.00    +0.000 C 
BRANCH  14  15
ATOM     15  C   UNL     1       2.790   2.966  21.115  0.00  0.00    +0.000 C 
BRANCH  15  16
ATOM     16  C   UNL     1       1.421   2.944  20.439  0.00  0.00    +0.000 C 
BRANCH  16  17
ATOM     17  C   UNL     1       1.026   4.354  19.994  0.00  0.00    +0.000 C 
BRANCH  17  18
ATOM     18  C   UNL     1       1.827   5.424  20.734  0.00  0.00    +0.000 C 
BRANCH  18  20
ATOM     19  C   UNL     1       2.037   6.116  18.322  0.00  0.00    +0.000 C 
ATOM     20  C   UNL     1       2.350   6.482  19.763  0.00  0.00    +0.000 C 
ENDBRANCH  18  20
ENDBRANCH  17  18
ENDBRANCH  16  17
ENDBRANCH  15  16
ENDBRANCH  14  15
ENDBRANCH   1  14
TORSDOF 10
ENDMDL
MODEL 3
REMARK VINA RESULT:      -5.8      3.649      7.244
REMARK  Name = 
REMARK  13 active torsions:
REMARK  status: ('A' for Active; 'I' for Inactive)
REMARK    1  A    between atoms: C_1  and  C_2
REMARK    2  A    between atoms: C_2  and  C_3
REMARK    3  A    between atoms: C_3  and  C_4
REMARK    4  A    between atoms: C_4  and  C_5
REMARK    5  A    between atoms: C_5  and  C_6
REMARK    6  A    between atoms: C_6  and  C_7
REMARK    7  A    between atoms: C_7  and  C_8
REMARK    8  A    between atoms: C_11  and  C_12
REMARK    9  A    between atoms: C_12  and  C_14
REMARK   10  A    between atoms: C_14  and  C_15
REMARK   11  A    between atoms: C_15  and  N_16
REMARK   12  A    between atoms: N_16  and  C_17
REMARK   13  A    between atoms: N_16  and  C_18
REMARK                            x       y       z     vdW  Elec       q    Type
REMARK                         _______ _______ _______ _____ _____    ______ ____
ROOT
ATOM      1  C   UNL     1       6.514   4.693  18.015  0.00  0.00    +0.000 A 
ATOM      2  C   UNL     1       5.914   4.423  16.777  0.00  0.00    +0.000 A 
ATOM      3  C   UNL     1       4.632   3.878  16.712  0.00  0.00    +0.000 A 
ATOM      4  C   UNL     1       3.932   3.588  17.886  0.00  0.00    +0.000 A 
ATOM      5  C   UNL     1       4.538   3.819  19.126  0.00  0.00    +0.000 A 
ATOM      6  C   UNL     1       5.819   4.375  19.189  0.00  0.00    +0.000 A 
ENDROOT
BRANCH   4   7
ATOM      7  C   UNL     1       2.541   3.067  17.765  0.00  0.00    +0.000 C 
ATOM      8  O   UNL     1       1.863   3.381  16.788  0.00  0.00    +0.000 OA
BRANCH   7   9
ATOM      9  C   UNL     1       1.986   2.179  18.860  0.00  0.00    +0.000 C 
BRANCH   9  10
ATOM     10  C   UNL     1       0.762   2.830  19.514  0.00  0.00    +0.000 C 
BRANCH  10  11
ATOM     11  N   UNL     1       1.027   3.429  20.835  0.00  0.00    +0.000 NA
ATOM     12  C   UNL     1       2.075   2.719  21.572  0.00  0.00    +0.000 C 
ATOM     13  C   UNL     1       1.414   4.836  20.664  0.00  0.00    +0.000 C 
ENDBRANCH  10  11
ENDBRANCH   9  10
ENDBRANCH   7   9
ENDBRANCH   4   7
BRANCH   1  14
ATOM     14  C   UNL     1       7.888   5.318  18.082  0.00  0.00    +0.000 C 
BRANCH  14  15
ATOM     15  C   UNL     1       7.828   6.775  18.549  0.00  0.00    +0.000 C 
BRANCH  15  16
ATOM     16  C   UNL     1       7.561   7.733  17.390  0.00  0.00    +0.000 C 
BRANCH  16  17
ATOM     17  C   UNL     1       7.981   9.154  17.769  0.00  0.00    +0.000 C 
BRANCH  17  18
ATOM     18  C   UNL     1       8.939   9.162  18.959  0.00  0.00    +0.000 C 
BRANCH  18  20
ATOM     19  C   UNL     1       9.429  11.461  18.059  0.00  0.00    +0.000 C 
ATOM     20  C   UNL     1       9.376  10.586  19.299  0.00  0.00    +0.000 C 
ENDBRANCH  18  20
ENDBRANCH  17  18
ENDBRANCH  16  17
ENDBRANCH  15  16
ENDBRANCH  14  15
ENDBRANCH   1  14
TORSDOF 10
ENDMDL
MODEL 4
REMARK VINA RESULT:      -5.8      2.879      6.653
REMARK  Name = 
REMARK  13 active torsions:
REMARK  status: ('A' for Active; 'I' for Inactive)
REMARK    1  A    between atoms: C_1  and  C_2
REMARK    2  A    between atoms: C_2  and  C_3
REMARK    3  A    between atoms: C_3  and  C_4
REMARK    4  A    between atoms: C_4  and  C_5
REMARK    5  A    between atoms: C_5  and  C_6
REMARK    6  A    between atoms: C_6  and  C_7
REMARK    7  A    between atoms: C_7  and  C_8
REMARK    8  A    between atoms: C_11  and  C_12
REMARK    9  A    between atoms: C_12  and  C_14
REMARK   10  A    between atoms: C_14  and  C_15
REMARK   11  A    between atoms: C_15  and  N_16
REMARK   12  A    between atoms: N_16  and  C_17
REMARK   13  A    between atoms: N_16  and  C_18
REMARK                            x       y       z     vdW  Elec       q    Type
REMARK                         _______ _______ _______ _____ _____    ______ ____
ROOT
ATOM      1  C   UNL     1       5.459   5.351  16.264  0.00  0.00    +0.000 A 
ATOM      2  C   UNL     1       5.194   6.679  16.624  0.00  0.00    +0.000 A 
ATOM      3  C   UNL     1       4.236   6.976  17.594  0.00  0.00    +0.000 A 
ATOM      4  C   UNL     1       3.522   5.946  18.212  0.00  0.00    +0.000 A 
ATOM      5  C   UNL     1       3.752   4.620  17.831  0.00  0.00    +0.000 A 
ATOM      6  C   UNL     1       4.720   4.324  16.867  0.00  0.00    +0.000 A 
ENDROOT
BRANCH   4   7
ATOM      7  C   UNL     1       2.554   6.309  19.287  0.00  0.00    +0.000 C 
ATOM      8  O   UNL     1       1.918   7.357  19.196  0.00  0.00    +0.000 OA
BRANCH   7   9
ATOM      9  C   UNL     1       2.392   5.388  20.479  0.00  0.00    +0.000 C 
BRANCH   9  10
ATOM     10  C   UNL     1       1.043   4.664  20.423  0.00  0.00    +0.000 C 
BRANCH  10  11
ATOM     11  N   UNL     1       1.136   3.198  20.549  0.00  0.00    +0.000 NA
ATOM     12  C   UNL     1       0.976   2.512  19.265  0.00  0.00    +0.000 C 
ATOM     13  C   UNL     1       2.434   2.839  21.137  0.00  0.00    +0.000 C 
ENDBRANCH  10  11
ENDBRANCH   9  10
ENDBRANCH   7   9
ENDBRANCH   4   7
BRANCH   1  14
ATOM     14  C   UNL     1       6.523   5.031  15.241  0.00  0.00    +0.000 C 
BRANCH  14  15
ATOM     15  C   UNL     1       6.085   3.908  14.296  0.00  0.00    +0.000 C 
BRANCH  15  16
ATOM     16  C   UNL     1       6.403   4.236  12.838  0.00  0.00    +0.000 C 
BRANCH  16  17
ATOM     17  C   UNL     1       6.557   2.948  12.027  0.00  0.00    +0.000 C 
BRANCH  17  18
ATOM     18  C   UNL     1       5.210   2.433  11.522  0.00  0.00    +0.000 C 
BRANCH  18  20
ATOM     19  C   UNL     1       3.115   3.173  10.338  0.00  0.00    +0.000 C 
ATOM     20  C   UNL     1       4.246   3.590  11.263  0.00  0.00    +0.000 C 
ENDBRANCH  18  20
ENDBRANCH  17  18
ENDBRANCH  16  17
ENDBRANCH  15  16
ENDBRANCH  14  15
ENDBRANCH   1  14
TORSDOF 10
ENDMDL
MODEL 5
REMARK VINA RESULT:      -5.7      2.530      6.255
REMARK  Name = 
REMARK  13 active torsions:
REMARK  status: ('A' for Active; 'I' for Inactive)
REMARK    1  A    between atoms: C_1  and  C_2
REMARK    2  A    between atoms: C_2  and  C_3
REMARK    3  A    between atoms: C_3  and  C_4
REMARK    4  A    between atoms: C_4  and  C_5
REMARK    5  A    between atoms: C_5  and  C_6
REMARK    6  A    between atoms: C_6  and  C_7
REMARK    7  A    between atoms: C_7  and  C_8
REMARK    8  A    between atoms: C_11  and  C_12
REMARK    9  A    between atoms: C_12  and  C_14
REMARK   10  A    between atoms: C_14  and  C_15
REMARK   11  A    between atoms: C_15  and  N_16
REMARK   12  A    between atoms: N_16  and  C_17
REMARK   13  A    between atoms: N_16  and  C_18
REMARK                            x       y       z     vdW  Elec       q    Type
REMARK                         _______ _______ _______ _____ _____    ______ ____
ROOT
ATOM      1  C   UNL     1       5.766   5.959  17.527  0.00  0.00    +0.000 A 
ATOM      2  C   UNL     1       4.639   6.666  17.086  0.00  0.00    +0.000 A 
ATOM      3  C   UNL     1       3.496   6.751  17.881  0.00  0.00    +0.000 A 
ATOM      4  C   UNL     1       3.460   6.122  19.128  0.00  0.00    +0.000 A 
ATOM      5  C   UNL     1       4.566   5.381  19.560  0.00  0.00    +0.000 A 
ATOM      6  C   UNL     1       5.714   5.306  18.767  0.00  0.00    +0.000 A 
ENDROOT
BRANCH   4   7
ATOM      7  C   UNL     1       2.240   6.294  19.968  0.00  0.00    +0.000 C 
ATOM      8  O   UNL     1       1.800   7.425  20.165  0.00  0.00    +0.000 OA
BRANCH   7   9
ATOM      9  C   UNL     1       1.583   5.072  20.577  0.00  0.00    +0.000 C 
BRANCH   9  10
ATOM     10  C   UNL     1       1.325   4.007  19.506  0.00  0.00    +0.000 C 
BRANCH  10  11
ATOM     11  N   UNL     1       1.772   2.652  19.878  0.00  0.00    +0.000 NA
ATOM     12  C   UNL     1       2.712   2.086  18.908  0.00  0.00    +0.000 C 
ATOM     13  C   UNL     1       2.402   2.693  21.205  0.00  0.00    +0.000 C 
ENDBRANCH  10  11
ENDBRANCH   9  10
ENDBRANCH   7   9
ENDBRANCH   4   7
BRANCH   1  14
ATOM     14  C   UNL     1       7.015   5.900  16.681  0.00  0.00    +0.000 C 
BRANCH  14  15
ATOM     15  C   UNL     1       7.012   4.688  15.745  0.00  0.00    +0.000 C 
BRANCH  15  16
ATOM     16  C   UNL     1       6.297   4.987  14.429  0.00  0.00    +0.000 C 
BRANCH  16  17
ATOM     17  C   UNL     1       5.801   3.689  13.788  0.00  0.00    +0.000 C 
BRANCH  17  18
ATOM     18  C   UNL     1       6.381   3.493  12.388  0.00  0.00    +0.000 C 
BRANCH  18  20
ATOM     19  C   UNL     1       6.365   1.297  11.157  0.00  0.00    +0.000 C 
ATOM     20  C   UNL     1       5.542   2.501  11.584  0.00  0.00    +0.000 C 
ENDBRANCH  18  20
ENDBRANCH  17  18
ENDBRANCH  16  17
ENDBRANCH  15  16
ENDBRANCH  14  15
ENDBRANCH   1  14
TORSDOF 10
ENDMDL
MODEL 6
REMARK VINA RESULT:      -5.7      3.016      6.786
REMARK  Name = 
REMARK  13 active torsions:
REMARK  status: ('A' for Active; 'I' for Inactive)
REMARK    1  A    between atoms: C_1  and  C_2
REMARK    2  A    between atoms: C_2  and  C_3
REMARK    3  A    between atoms: C_3  and  C_4
REMARK    4  A    between atoms: C_4  and  C_5
REMARK    5  A    between atoms: C_5  and  C_6
REMARK    6  A    between atoms: C_6  and  C_7
REMARK    7  A    between atoms: C_7  and  C_8
REMARK    8  A    between atoms: C_11  and  C_12
REMARK    9  A    between atoms: C_12  and  C_14
REMARK   10  A    between atoms: C_14  and  C_15
REMARK   11  A    between atoms: C_15  and  N_16
REMARK   12  A    between atoms: N_16  and  C_17
REMARK   13  A    between atoms: N_16  and  C_18
REMARK                            x       y       z     vdW  Elec       q    Type
REMARK                         _______ _______ _______ _____ _____    ______ ____
ROOT
ATOM      1  C   UNL     1       5.119   4.332  16.764  0.00  0.00    +0.000 A 
ATOM      2  C   UNL     1       5.755   4.698  17.958  0.00  0.00    +0.000 A 
ATOM      3  C   UNL     1       5.404   4.095  19.166  0.00  0.00    +0.000 A 
ATOM      4  C   UNL     1       4.404   3.120  19.198  0.00  0.00    +0.000 A 
ATOM      5  C   UNL     1       3.737   2.776  18.018  0.00  0.00    +0.000 A 
ATOM      6  C   UNL     1       4.097   3.373  16.807  0.00  0.00    +0.000 A 
ENDROOT
BRANCH   4   7
ATOM      7  C   UNL     1       4.108   2.460  20.502  0.00  0.00    +0.000 C 
ATOM      8  O   UNL     1       4.998   1.836  21.076  0.00  0.00    +0.000 OA
BRANCH   7   9
ATOM      9  C   UNL     1       2.710   2.553  21.078  0.00  0.00    +0.000 C 
BRANCH   9  10
ATOM     10  C   UNL     1       2.433   3.968  21.597  0.00  0.00    +0.000 C 
BRANCH  10  11
ATOM     11  N   UNL     1       1.476   4.737  20.780  0.00  0.00    +0.000 NA
ATOM     12  C   UNL     1       2.127   5.788  19.994  0.00  0.00    +0.000 C 
ATOM     13  C   UNL     1       0.759   3.825  19.878  0.00  0.00    +0.000 C 
ENDBRANCH  10  11
ENDBRANCH   9  10
ENDBRANCH   7   9
ENDBRANCH   4   7
BRANCH   1  14
ATOM     14  C   UNL     1       5.528   4.960  15.453  0.00  0.00    +0.000 C 
BRANCH  14  15
ATOM     15  C   UNL     1       6.080   3.921  14.473  0.00  0.00    +0.000 C 
BRANCH  15  16
ATOM     16  C   UNL     1       6.905   4.569  13.362  0.00  0.00    +0.000 C 
BRANCH  16  17
ATOM     17  C   UNL     1       6.772   3.767  12.066  0.00  0.00    +0.000 C 
BRANCH  17  18
ATOM     18  C   UNL     1       5.439   3.024  11.995  0.00  0.00    +0.000 C 
BRANCH  18  20
ATOM     19  C   UNL     1       3.292   2.938  10.682  0.00  0.00    +0.000 C 
ATOM     20  C   UNL     1       4.407   3.828  11.206  0.00  0.00    +0.000 C 
ENDBRANCH  18  20
ENDBRANCH  17  18
ENDBRANCH  16  17
ENDBRANCH  15  16
ENDBRANCH  14  15
ENDBRANCH   1  14
TORSDOF 10
ENDMDL
MODEL 7
REMARK VINA RESULT:      -5.7      1.070      1.402
REMARK  Name = 
REMARK  13 active torsions:
REMARK  status: ('A' for Active; 'I' for Inactive)
REMARK    1  A    between atoms: C_1  and  C_2
REMARK    2  A    between atoms: C_2  and  C_3
REMARK    3  A    between atoms: C_3  and  C_4
REMARK    4  A    between atoms: C_4  and  C_5
REMARK    5  A    between atoms: C_5  and  C_6
REMARK    6  A    between atoms: C_6  and  C_7
REMARK    7  A    between atoms: C_7  and  C_8
REMARK    8  A    between atoms: C_11  and  C_12
REMARK    9  A    between atoms: C_12  and  C_14
REMARK   10  A    between atoms: C_14  and  C_15
REMARK   11  A    between atoms: C_15  and  N_16
REMARK   12  A    between atoms: N_16  and  C_17
REMARK   13  A    between atoms: N_16  and  C_18
REMARK                            x       y       z     vdW  Elec       q    Type
REMARK                         _______ _______ _______ _____ _____    ______ ____
ROOT
ATOM      1  C   UNL     1       3.918   5.605  19.190  0.00  0.00    +0.000 A 
ATOM      2  C   UNL     1       3.636   5.965  17.866  0.00  0.00    +0.000 A 
ATOM      3  C   UNL     1       4.564   5.729  16.851  0.00  0.00    +0.000 A 
ATOM      4  C   UNL     1       5.792   5.134  17.148  0.00  0.00    +0.000 A 
ATOM      5  C   UNL     1       6.098   4.806  18.474  0.00  0.00    +0.000 A 
ATOM      6  C   UNL     1       5.164   5.034  19.487  0.00  0.00    +0.000 A 
ENDROOT
BRANCH   4   7
ATOM      7  C   UNL     1       6.724   4.844  16.021  0.00  0.00    +0.000 C 
ATOM      8  O   UNL     1       7.851   4.417  16.266  0.00  0.00    +0.000 OA
BRANCH   7   9
ATOM      9  C   UNL     1       6.270   5.104  14.600  0.00  0.00    +0.000 C 
BRANCH   9  10
ATOM     10  C   UNL     1       5.843   3.797  13.922  0.00  0.00    +0.000 C 
BRANCH  10  11
ATOM     11  N   UNL     1       5.989   3.800  12.455  0.00  0.00    +0.000 NA
ATOM     12  C   UNL     1       7.291   4.315  12.022  0.00  0.00    +0.000 C 
ATOM     13  C   UNL     1       5.809   2.434  11.944  0.00  0.00    +0.000 C 
ENDBRANCH  10  11
ENDBRANCH   9  10
ENDBRANCH   7   9
ENDBRANCH   4   7
BRANCH   1  14
ATOM     14  C   UNL     1       2.897   5.828  20.281  0.00  0.00    +0.000 C 
BRANCH  14  15
ATOM     15  C   UNL     1       1.550   5.185  19.938  0.00  0.00    +0.000 C 
BRANCH  15  16
ATOM     16  C   UNL     1       1.379   3.827  20.618  0.00  0.00    +0.000 C 
BRANCH  16  17
ATOM     17  C   UNL     1       0.595   2.876  19.712  0.00  0.00    +0.000 C 
BRANCH  17  18
ATOM     18  C   UNL     1       1.438   2.398  18.531  0.00  0.00    +0.000 C 
BRANCH  18  20
ATOM     19  C   UNL     1       3.798   1.954  17.774  0.00  0.00    +0.000 C 
ATOM     20  C   UNL     1       2.870   2.097  18.969  0.00  0.00    +0.000 C 
ENDBRANCH  18  20
ENDBRANCH  17  18
ENDBRANCH  16  17
ENDBRANCH  15  16
ENDBRANCH  14  15
ENDBRANCH   1  14
TORSDOF 10
ENDMDL
MODEL 8
REMARK VINA RESULT:      -5.6      4.005      7.454
REMARK  Name = 
REMARK  13 active torsions:
REMARK  status: ('A' for Active; 'I' for Inactive)
REMARK    1  A    between atoms: C_1  and  C_2
REMARK    2  A    between atoms: C_2  and  C_3
REMARK    3  A    between atoms: C_3  and  C_4
REMARK    4  A    between atoms: C_4  and  C_5
REMARK    5  A    between atoms: C_5  and  C_6
REMARK    6  A    between atoms: C_6  and  C_7
REMARK    7  A    between atoms: C_7  and  C_8
REMARK    8  A    between atoms: C_11  and  C_12
REMARK    9  A    between atoms: C_12  and  C_14
REMARK   10  A    between atoms: C_14  and  C_15
REMARK   11  A    between atoms: C_15  and  N_16
REMARK   12  A    between atoms: N_16  and  C_17
REMARK   13  A    between atoms: N_16  and  C_18
REMARK                            x       y       z     vdW  Elec       q    Type
REMARK                         _______ _______ _______ _____ _____    ______ ____
ROOT
ATOM      1  C   UNL     1       6.750   5.774  18.224  0.00  0.00    +0.000 A 
ATOM      2  C   UNL     1       6.413   5.192  16.995  0.00  0.00    +0.000 A 
ATOM      3  C   UNL     1       5.381   4.258  16.909  0.00  0.00    +0.000 A 
ATOM      4  C   UNL     1       4.675   3.885  18.055  0.00  0.00    +0.000 A 
ATOM      5  C   UNL     1       5.029   4.432  19.293  0.00  0.00    +0.000 A 
ATOM      6  C   UNL     1       6.056   5.376  19.376  0.00  0.00    +0.000 A 
ENDROOT
BRANCH   4   7
ATOM      7  C   UNL     1       3.540   2.930  17.902  0.00  0.00    +0.000 C 
ATOM      8  O   UNL     1       3.772   1.724  17.841  0.00  0.00    +0.000 OA
BRANCH   7   9
ATOM      9  C   UNL     1       2.128   3.469  17.804  0.00  0.00    +0.000 C 
BRANCH   9  10
ATOM     10  C   UNL     1       1.309   3.068  19.035  0.00  0.00    +0.000 C 
BRANCH  10  11
ATOM     11  N   UNL     1       1.859   3.555  20.314  0.00  0.00    +0.000 NA
ATOM     12  C   UNL     1       1.521   4.956  20.572  0.00  0.00    +0.000 C 
ATOM     13  C   UNL     1       1.355   2.719  21.412  0.00  0.00    +0.000 C 
ENDBRANCH  10  11
ENDBRANCH   9  10
ENDBRANCH   7   9
ENDBRANCH   4   7
BRANCH   1  14
ATOM     14  C   UNL     1       7.842   6.814  18.308  0.00  0.00    +0.000 C 
BRANCH  14  15
ATOM     15  C   UNL     1       7.688   7.889  17.229  0.00  0.00    +0.000 C 
BRANCH  15  16
ATOM     16  C   UNL     1       7.890   9.294  17.793  0.00  0.00    +0.000 C 
BRANCH  16  17
ATOM     17  C   UNL     1       8.948   9.276  18.898  0.00  0.00    +0.000 C 
BRANCH  17  18
ATOM     18  C   UNL     1       9.480  10.677  19.193  0.00  0.00    +0.000 C 
BRANCH  18  20
ATOM     19  C   UNL     1      10.187  12.252  21.027  0.00  0.00    +0.000 C 
ATOM     20  C   UNL     1       9.443  10.969  20.693  0.00  0.00    +0.000 C 
ENDBRANCH  18  20
ENDBRANCH  17  18
ENDBRANCH  16  17
ENDBRANCH  15  16
ENDBRANCH  14  15
ENDBRANCH   1  14
TORSDOF 10
ENDMDL
MODEL 9
REMARK VINA RESULT:      -5.6      0.800      1.097
REMARK  Name = 
REMARK  13 active torsions:
REMARK  status: ('A' for Active; 'I' for Inactive)
REMARK    1  A    between atoms: C_1  and  C_2
REMARK    2  A    between atoms: C_2  and  C_3
REMARK    3  A    between atoms: C_3  and  C_4
REMARK    4  A    between atoms: C_4  and  C_5
REMARK    5  A    between atoms: C_5  and  C_6
REMARK    6  A    between atoms: C_6  and  C_7
REMARK    7  A    between atoms: C_7  and  C_8
REMARK    8  A    between atoms: C_11  and  C_12
REMARK    9  A    between atoms: C_12  and  C_14
REMARK   10  A    between atoms: C_14  and  C_15
REMARK   11  A    between atoms: C_15  and  N_16
REMARK   12  A    between atoms: N_16  and  C_17
REMARK   13  A    between atoms: N_16  and  C_18
REMARK                            x       y       z     vdW  Elec       q    Type
REMARK                         _______ _______ _______ _____ _____    ______ ____
ROOT
ATOM      1  C   UNL     1       3.443   5.933  19.158  0.00  0.00    +0.000 A 
ATOM      2  C   UNL     1       3.646   6.528  17.905  0.00  0.00    +0.000 A 
ATOM      3  C   UNL     1       4.815   6.286  17.184  0.00  0.00    +0.000 A 
ATOM      4  C   UNL     1       5.803   5.449  17.710  0.00  0.00    +0.000 A 
ATOM      5  C   UNL     1       5.626   4.882  18.976  0.00  0.00    +0.000 A 
ATOM      6  C   UNL     1       4.450   5.117  19.693  0.00  0.00    +0.000 A 
ENDROOT
BRANCH   4   7
ATOM      7  C   UNL     1       7.007   5.171  16.874  0.00  0.00    +0.000 C 
ATOM      8  O   UNL     1       7.902   4.461  17.327  0.00  0.00    +0.000 OA
BRANCH   7   9
ATOM      9  C   UNL     1       7.108   5.788  15.494  0.00  0.00    +0.000 C 
BRANCH   9  10
ATOM     10  C   UNL     1       7.314   4.703  14.432  0.00  0.00    +0.000 C 
BRANCH  10  11
ATOM     11  N   UNL     1       6.090   4.334  13.696  0.00  0.00    +0.000 NA
ATOM     12  C   UNL     1       6.374   3.558  12.487  0.00  0.00    +0.000 C 
ATOM     13  C   UNL     1       5.204   3.561  14.578  0.00  0.00    +0.000 C 
ENDBRANCH  10  11
ENDBRANCH   9  10
ENDBRANCH   7   9
ENDBRANCH   4   7
BRANCH   1  14
ATOM     14  C   UNL     1       2.160   6.168  19.920  0.00  0.00    +0.000 C 
BRANCH  14  15
ATOM     15  C   UNL     1       1.879   5.044  20.920  0.00  0.00    +0.000 C 
BRANCH  15  16
ATOM     16  C   UNL     1       0.808   4.081  20.409  0.00  0.00    +0.000 C 
BRANCH  16  17
ATOM     17  C   UNL     1       1.418   2.705  20.138  0.00  0.00    +0.000 C 
BRANCH  17  18
ATOM     18  C   UNL     1       1.156   2.243  18.706  0.00  0.00    +0.000 C 
BRANCH  18  20
ATOM     19  C   UNL     1       3.536   1.922  17.949  0.00  0.00    +0.000 C 
ATOM     20  C   UNL     1       2.260   2.727  17.767  0.00  0.00    +0.000 C 
ENDBRANCH  18  20
ENDBRANCH  17  18
ENDBRANCH  16  17
ENDBRANCH  15  16
ENDBRANCH  14  15
ENDBRANCH   1  14
TORSDOF 10
ENDMDL
