MODEL 1
REMARK VINA RESULT:      -8.3      0.000      0.000
REMARK  Name = 
REMARK  2 active torsions:
REMARK  status: ('A' for Active; 'I' for Inactive)
REMARK    1  A    between atoms: C_2  and  C_15
REMARK    2  A    between atoms: C_7  and  C_8
REMARK                            x       y       z     vdW  Elec       q    Type
REMARK                         _______ _______ _______ _____ _____    ______ ____
ROOT
ATOM      1  O   UNL     1       3.451   2.919  17.723  0.00  0.00    +0.000 OA
ATOM      2  C   UNL     1       3.951   3.158  18.817  0.00  0.00    +0.000 C 
ATOM      3  N   UNL     1       5.192   3.710  19.010  0.00  0.00    +0.000 N 
ATOM      4  C   UNL     1       6.020   4.118  18.004  0.00  0.00    +0.000 A 
ATOM      5  N   UNL     1       7.170   4.724  18.188  0.00  0.00    +0.000 NA
ATOM      6  N   UNL     1       7.689   4.964  16.939  0.00  0.00    +0.000 NA
ATOM      7  C   UNL     1       6.821   4.476  16.073  0.00  0.00    +0.000 A 
ATOM      8  O   UNL     1       5.722   3.926  16.684  0.00  0.00    +0.000 OA
ATOM      9  H   UNL     1       5.555   3.884  19.935  0.00  0.00    +0.000 HD
ENDROOT
BRANCH   7  10
ATOM     10  C   UNL     1       6.891   4.468  14.615  0.00  0.00    +0.000 A 
ATOM     11  C   UNL     1       6.082   3.565  13.902  0.00  0.00    +0.000 A 
ATOM     12  C   UNL     1       6.127   3.499  12.507  0.00  0.00    +0.000 A 
ATOM     13  C   UNL     1       6.982   4.343  11.802  0.00  0.00    +0.000 A 
ATOM     14  C   UNL     1       7.780   5.255  12.492  0.00  0.00    +0.000 A 
ATOM     15  C   UNL     1       7.735   5.320  13.890  0.00  0.00    +0.000 A 
ENDBRANCH   7  10
BRANCH   2  16
ATOM     16  C   UNL     1       3.244   2.792  20.143  0.00  0.00    +0.000 C 
ATOM     17  C   UNL     1       3.029   3.986  21.085  0.00  0.00    +0.000 C 
ATOM     18  C   UNL     1       1.993   4.966  20.539  0.00  0.00    +0.000 C 
ATOM     19  C   UNL     1       0.661   4.277  20.261  0.00  0.00    +0.000 C 
ATOM     20  C   UNL     1       0.814   3.033  19.392  0.00  0.00    +0.000 C 
ATOM     21  C   UNL     1       1.900   2.086  19.907  0.00  0.00    +0.000 C 
ENDBRANCH   2  16
TORSDOF 2
ENDMDL
MODEL 2
REMARK VINA RESULT:      -8.3      0.177      1.091
REMARK  Name = 
REMARK  2 active torsions:
REMARK  status: ('A' for Active; 'I' for Inactive)
REMARK    1  A    between atoms: C_2  and  C_15
REMARK    2  A    between atoms: C_7  and  C_8
REMARK                            x       y       z     vdW  Elec       q    Type
REMARK                         _______ _______ _______ _____ _____    ______ ____
ROOT
ATOM      1  O   UNL     1       3.463   2.693  17.616  0.00  0.00    +0.000 OA
ATOM      2  C   UNL     1       3.923   2.962  18.721  0.00  0.00    +0.000 C 
ATOM      3  N   UNL     1       5.125   3.587  18.940  0.00  0.00    +0.000 N 
ATOM      4  C   UNL     1       5.950   4.041  17.953  0.00  0.00    +0.000 A 
ATOM      5  N   UNL     1       7.059   4.714  18.162  0.00  0.00    +0.000 NA
ATOM      6  N   UNL     1       7.592   4.982  16.924  0.00  0.00    +0.000 NA
ATOM      7  C   UNL     1       6.773   4.443  16.040  0.00  0.00    +0.000 A 
ATOM      8  O   UNL     1       5.695   3.830  16.627  0.00  0.00    +0.000 OA
ATOM      9  H   UNL     1       5.456   3.782  19.873  0.00  0.00    +0.000 HD
ENDROOT
BRANCH   7  10
ATOM     10  C   UNL     1       6.878   4.437  14.583  0.00  0.00    +0.000 A 
ATOM     11  C   UNL     1       7.785   5.315  13.964  0.00  0.00    +0.000 A 
ATOM     12  C   UNL     1       7.908   5.366  12.573  0.00  0.00    +0.000 A 
ATOM     13  C   UNL     1       7.126   4.532  11.779  0.00  0.00    +0.000 A 
ATOM     14  C   UNL     1       6.232   3.644  12.377  0.00  0.00    +0.000 A 
ATOM     15  C   UNL     1       6.108   3.594  13.771  0.00  0.00    +0.000 A 
ENDBRANCH   7  10
BRANCH   2  16
ATOM     16  C   UNL     1       3.209   2.557  20.031  0.00  0.00    +0.000 C 
ATOM     17  C   UNL     1       3.099   3.694  21.058  0.00  0.00    +0.000 C 
ATOM     18  C   UNL     1       2.135   4.786  20.602  0.00  0.00    +0.000 C 
ATOM     19  C   UNL     1       0.750   4.222  20.303  0.00  0.00    +0.000 C 
ATOM     20  C   UNL     1       0.795   3.034  19.345  0.00  0.00    +0.000 C 
ATOM     21  C   UNL     1       1.811   1.973  19.772  0.00  0.00    +0.000 C 
ENDBRANCH   2  16
TORSDOF 2
ENDMDL
MODEL 3
REMARK VINA RESULT:      -8.0      0.849      1.541
REMARK  Name = 
REMARK  2 active torsions:
REMARK  status: ('A' for Active; 'I' for Inactive)
REMARK    1  A    between atoms: C_2  and  C_15
REMARK    2  A    between atoms: C_7  and  C_8
REMARK                            x       y       z     vdW  Elec       q    Type
REMARK                         _______ _______ _______ _____ _____    ______ ____
ROOT
ATOM      1  O   UNL     1       2.862   5.019  17.676  0.00  0.00    +0.000 OA
ATOM      2  C   UNL     1       3.358   4.980  18.797  0.00  0.00    +0.000 C 
ATOM      3  N   UNL     1       4.694   4.805  19.059  0.00  0.00    +0.000 N 
ATOM      4  C   UNL     1       5.661   4.703  18.102  0.00  0.00    +0.000 A 
ATOM      5  N   UNL     1       6.948   4.621  18.351  0.00  0.00    +0.000 NA
ATOM      6  N   UNL     1       7.577   4.533  17.133  0.00  0.00    +0.000 NA
ATOM      7  C   UNL     1       6.626   4.556  16.218  0.00  0.00    +0.000 A 
ATOM      8  O   UNL     1       5.373   4.672  16.766  0.00  0.00    +0.000 OA
ATOM      9  H   UNL     1       5.048   4.779  20.003  0.00  0.00    +0.000 HD
ENDROOT
BRANCH   7  10
ATOM     10  C   UNL     1       6.754   4.487  14.766  0.00  0.00    +0.000 A 
ATOM     11  C   UNL     1       5.916   3.612  14.052  0.00  0.00    +0.000 A 
ATOM     12  C   UNL     1       6.012   3.490  12.663  0.00  0.00    +0.000 A 
ATOM     13  C   UNL     1       6.948   4.248  11.966  0.00  0.00    +0.000 A 
ATOM     14  C   UNL     1       7.778   5.132  12.656  0.00  0.00    +0.000 A 
ATOM     15  C   UNL     1       7.682   5.253  14.048  0.00  0.00    +0.000 A 
ENDBRANCH   7  10
BRANCH   2  16
ATOM     16  C   UNL     1       2.500   5.060  20.080  0.00  0.00    +0.000 C 
ATOM     17  C   UNL     1       1.020   4.709  19.863  0.00  0.00    +0.000 C 
ATOM     18  C   UNL     1       0.823   3.228  19.551  0.00  0.00    +0.000 C 
ATOM     19  C   UNL     1       1.412   2.341  20.643  0.00  0.00    +0.000 C 
ATOM     20  C   UNL     1       2.863   2.690  20.963  0.00  0.00    +0.000 C 
ATOM     21  C   UNL     1       3.066   4.187  21.211  0.00  0.00    +0.000 C 
ENDBRANCH   2  16
TORSDOF 2
ENDMDL
MODEL 4
REMARK VINA RESULT:      -8.0      1.462      2.352
REMARK  Name = 
REMARK  2 active torsions:
REMARK  status: ('A' for Active; 'I' for Inactive)
REMARK    1  A    between atoms: C_2  and  C_15
REMARK    2  A    between atoms: C_7  and  C_8
REMARK                            x       y       z     vdW  Elec       q    Type
REMARK                         _______ _______ _______ _____ _____    ______ ____
ROOT
ATOM      1  O   UNL     1       2.079   3.647  17.047  0.00  0.00    +0.000 OA
ATOM      2  C   UNL     1       2.176   4.367  18.035  0.00  0.00    +0.000 C 
ATOM      3  N   UNL     1       3.209   5.240  18.272  0.00  0.00    +0.000 N 
ATOM      4  C   UNL     1       4.244   5.463  17.412  0.00  0.00    +0.000 A 
ATOM      5  N   UNL     1       5.186   6.359  17.599  0.00  0.00    +0.000 NA
ATOM      6  N   UNL     1       6.030   6.270  16.519  0.00  0.00    +0.000 NA
ATOM      7  C   UNL     1       5.549   5.313  15.747  0.00  0.00    +0.000 A 
ATOM      8  O   UNL     1       4.401   4.757  16.252  0.00  0.00    +0.000 OA
ATOM      9  H   UNL     1       3.239   5.808  19.105  0.00  0.00    +0.000 HD
ENDROOT
BRANCH   7  10
ATOM     10  C   UNL     1       6.070   4.816  14.477  0.00  0.00    +0.000 A 
ATOM     11  C   UNL     1       7.276   5.346  13.984  0.00  0.00    +0.000 A 
ATOM     12  C   UNL     1       7.807   4.922  12.763  0.00  0.00    +0.000 A 
ATOM     13  C   UNL     1       7.140   3.954  12.018  0.00  0.00    +0.000 A 
ATOM     14  C   UNL     1       5.951   3.406  12.498  0.00  0.00    +0.000 A 
ATOM     15  C   UNL     1       5.418   3.832  13.721  0.00  0.00    +0.000 A 
ENDBRANCH   7  10
BRANCH   2  16
ATOM     16  C   UNL     1       1.150   4.323  19.190  0.00  0.00    +0.000 C 
ATOM     17  C   UNL     1       0.706   2.904  19.576  0.00  0.00    +0.000 C 
ATOM     18  C   UNL     1       1.831   2.114  20.242  0.00  0.00    +0.000 C 
ATOM     19  C   UNL     1       2.375   2.839  21.468  0.00  0.00    +0.000 C 
ATOM     20  C   UNL     1       2.763   4.285  21.170  0.00  0.00    +0.000 C 
ATOM     21  C   UNL     1       1.657   5.053  20.444  0.00  0.00    +0.000 C 
ENDBRANCH   2  16
TORSDOF 2
ENDMDL
MODEL 5
REMARK VINA RESULT:      -8.0      0.858      1.861
REMARK  Name = 
REMARK  2 active torsions:
REMARK  status: ('A' for Active; 'I' for Inactive)
REMARK    1  A    between atoms: C_2  and  C_15
REMARK    2  A    between atoms: C_7  and  C_8
REMARK                            x       y       z     vdW  Elec       q    Type
REMARK                         _______ _______ _______ _____ _____    ______ ____
ROOT
ATOM      1  O   UNL     1       2.887   4.990  17.739  0.00  0.00    +0.000 OA
ATOM      2  C   UNL     1       3.403   4.987  18.852  0.00  0.00    +0.000 C 
ATOM      3  N   UNL     1       4.745   4.835  19.096  0.00  0.00    +0.000 N 
ATOM      4  C   UNL     1       5.697   4.717  18.126  0.00  0.00    +0.000 A 
ATOM      5  N   UNL     1       6.989   4.657  18.355  0.00  0.00    +0.000 NA
ATOM      6  N   UNL     1       7.598   4.542  17.129  0.00  0.00    +0.000 NA
ATOM      7  C   UNL     1       6.631   4.530  16.231  0.00  0.00    +0.000 A 
ATOM      8  O   UNL     1       5.386   4.647  16.797  0.00  0.00    +0.000 OA
ATOM      9  H   UNL     1       5.115   4.838  20.034  0.00  0.00    +0.000 HD
ENDROOT
BRANCH   7  10
ATOM     10  C   UNL     1       6.735   4.423  14.778  0.00  0.00    +0.000 A 
ATOM     11  C   UNL     1       7.688   5.211  14.106  0.00  0.00    +0.000 A 
ATOM     12  C   UNL     1       7.813   5.164  12.715  0.00  0.00    +0.000 A 
ATOM     13  C   UNL     1       6.989   4.321  11.975  0.00  0.00    +0.000 A 
ATOM     14  C   UNL     1       6.049   3.522  12.626  0.00  0.00    +0.000 A 
ATOM     15  C   UNL     1       5.923   3.570  14.020  0.00  0.00    +0.000 A 
ENDBRANCH   7  10
BRANCH   2  16
ATOM     16  C   UNL     1       2.565   5.093  20.147  0.00  0.00    +0.000 C 
ATOM     17  C   UNL     1       1.065   4.836  19.942  0.00  0.00    +0.000 C 
ATOM     18  C   UNL     1       0.775   3.376  19.603  0.00  0.00    +0.000 C 
ATOM     19  C   UNL     1       1.322   2.433  20.670  0.00  0.00    +0.000 C 
ATOM     20  C   UNL     1       2.794   2.688  20.980  0.00  0.00    +0.000 C 
ATOM     21  C   UNL     1       3.090   4.164  21.254  0.00  0.00    +0.000 C 
ENDBRANCH   2  16
TORSDOF 2
ENDMDL
MODEL 6
REMARK VINA RESULT:      -8.0      1.527      2.142
REMARK  Name = 
REMARK  2 active torsions:
REMARK  status: ('A' for Active; 'I' for Inactive)
REMARK    1  A    between atoms: C_2  and  C_15
REMARK    2  A    between atoms: C_7  and  C_8
REMARK                            x       y       z     vdW  Elec       q    Type
REMARK                         _______ _______ _______ _____ _____    ______ ____
ROOT
ATOM      1  O   UNL     1       2.151   3.595  17.072  0.00  0.00    +0.000 OA
ATOM      2  C   UNL     1       2.198   4.367  18.024  0.00  0.00    +0.000 C 
ATOM      3  N   UNL     1       3.170   5.317  18.217  0.00  0.00    +0.000 N 
ATOM      4  C   UNL     1       4.189   5.567  17.346  0.00  0.00    +0.000 A 
ATOM      5  N   UNL     1       5.069   6.532  17.488  0.00  0.00    +0.000 NA
ATOM      6  N   UNL     1       5.919   6.447  16.412  0.00  0.00    +0.000 NA
ATOM      7  C   UNL     1       5.504   5.424  15.687  0.00  0.00    +0.000 A 
ATOM      8  O   UNL     1       4.394   4.818  16.221  0.00  0.00    +0.000 OA
ATOM      9  H   UNL     1       3.160   5.925  19.022  0.00  0.00    +0.000 HD
ENDROOT
BRANCH   7  10
ATOM     10  C   UNL     1       6.059   4.902  14.442  0.00  0.00    +0.000 A 
ATOM     11  C   UNL     1       5.326   3.942  13.722  0.00  0.00    +0.000 A 
ATOM     12  C   UNL     1       5.821   3.392  12.537  0.00  0.00    +0.000 A 
ATOM     13  C   UNL     1       7.060   3.801  12.050  0.00  0.00    +0.000 A 
ATOM     14  C   UNL     1       7.794   4.764  12.743  0.00  0.00    +0.000 A 
ATOM     15  C   UNL     1       7.298   5.314  13.931  0.00  0.00    +0.000 A 
ENDBRANCH   7  10
BRANCH   2  16
ATOM     16  C   UNL     1       1.175   4.310  19.181  0.00  0.00    +0.000 C 
ATOM     17  C   UNL     1       0.731   2.886  19.551  0.00  0.00    +0.000 C 
ATOM     18  C   UNL     1       1.856   2.087  20.204  0.00  0.00    +0.000 C 
ATOM     19  C   UNL     1       2.406   2.797  21.437  0.00  0.00    +0.000 C 
ATOM     20  C   UNL     1       2.794   4.245  21.156  0.00  0.00    +0.000 C 
ATOM     21  C   UNL     1       1.687   5.023  20.442  0.00  0.00    +0.000 C 
ENDBRANCH   2  16
TORSDOF 2
ENDMDL
MODEL 7
REMARK VINA RESULT:      -7.9      4.841      8.713
REMARK  Name = 
REMARK  2 active torsions:
REMARK  status: ('A' for Active; 'I' for Inactive)
REMARK    1  A    between atoms: C_2  and  C_15
REMARK    2  A    between atoms: C_7  and  C_8
REMARK                            x       y       z     vdW  Elec       q    Type
REMARK                         _______ _______ _______ _____ _____    ______ ____
ROOT
ATOM      1  O   UNL     1       3.353   6.133  19.600  0.00  0.00    +0.000 OA
ATOM      2  C   UNL     1       3.624   6.358  18.426  0.00  0.00    +0.000 C 
ATOM      3  N   UNL     1       3.135   7.412  17.695  0.00  0.00    +0.000 N 
ATOM      4  C   UNL     1       2.319   8.385  18.194  0.00  0.00    +0.000 A 
ATOM      5  N   UNL     1       1.920   9.439  17.520  0.00  0.00    +0.000 NA
ATOM      6  N   UNL     1       1.120  10.165  18.368  0.00  0.00    +0.000 NA
ATOM      7  C   UNL     1       1.076   9.496  19.505  0.00  0.00    +0.000 A 
ATOM      8  O   UNL     1       1.829   8.349  19.469  0.00  0.00    +0.000 OA
ATOM      9  H   UNL     1       3.391   7.548  16.729  0.00  0.00    +0.000 HD
ENDROOT
BRANCH   7  10
ATOM     10  C   UNL     1       0.363   9.830  20.735  0.00  0.00    +0.000 A 
ATOM     11  C   UNL     1      -0.134  11.136  20.897  0.00  0.00    +0.000 A 
ATOM     12  C   UNL     1      -0.804  11.515  22.064  0.00  0.00    +0.000 A 
ATOM     13  C   UNL     1      -0.991  10.589  23.086  0.00  0.00    +0.000 A 
ATOM     14  C   UNL     1      -0.517   9.285  22.935  0.00  0.00    +0.000 A 
ATOM     15  C   UNL     1       0.155   8.906  21.767  0.00  0.00    +0.000 A 
ENDBRANCH   7  10
BRANCH   2  16
ATOM     16  C   UNL     1       4.522   5.415  17.593  0.00  0.00    +0.000 C 
ATOM     17  C   UNL     1       5.380   6.138  16.543  0.00  0.00    +0.000 C 
ATOM     18  C   UNL     1       6.476   6.986  17.184  0.00  0.00    +0.000 C 
ATOM     19  C   UNL     1       7.367   6.153  18.099  0.00  0.00    +0.000 C 
ATOM     20  C   UNL     1       6.570   5.346  19.120  0.00  0.00    +0.000 C 
ATOM     21  C   UNL     1       5.431   4.549  18.479  0.00  0.00    +0.000 C 
ENDBRANCH   2  16
TORSDOF 2
ENDMDL
MODEL 8
REMARK VINA RESULT:      -7.9      4.797      8.642
REMARK  Name = 
REMARK  2 active torsions:
REMARK  status: ('A' for Active; 'I' for Inactive)
REMARK    1  A    between atoms: C_2  and  C_15
REMARK    2  A    between atoms: C_7  and  C_8
REMARK                            x       y       z     vdW  Elec       q    Type
REMARK                         _______ _______ _______ _____ _____    ______ ____
ROOT
ATOM      1  O   UNL     1       3.373   6.114  19.682  0.00  0.00    +0.000 OA
ATOM      2  C   UNL     1       3.637   6.299  18.498  0.00  0.00    +0.000 C 
ATOM      3  N   UNL     1       3.147   7.330  17.736  0.00  0.00    +0.000 N 
ATOM      4  C   UNL     1       2.338   8.322  18.208  0.00  0.00    +0.000 A 
ATOM      5  N   UNL     1       1.938   9.355  17.502  0.00  0.00    +0.000 NA
ATOM      6  N   UNL     1       1.148  10.112  18.331  0.00  0.00    +0.000 NA
ATOM      7  C   UNL     1       1.110   9.483  19.491  0.00  0.00    +0.000 A 
ATOM      8  O   UNL     1       1.857   8.331  19.488  0.00  0.00    +0.000 OA
ATOM      9  H   UNL     1       3.396   7.432  16.764  0.00  0.00    +0.000 HD
ENDROOT
BRANCH   7  10
ATOM     10  C   UNL     1       0.408   9.861  20.714  0.00  0.00    +0.000 A 
ATOM     11  C   UNL     1       0.444   8.987  21.815  0.00  0.00    +0.000 A 
ATOM     12  C   UNL     1      -0.230   9.289  23.001  0.00  0.00    +0.000 A 
ATOM     13  C   UNL     1      -0.948  10.477  23.104  0.00  0.00    +0.000 A 
ATOM     14  C   UNL     1      -0.983  11.363  22.027  0.00  0.00    +0.000 A 
ATOM     15  C   UNL     1      -0.308  11.059  20.838  0.00  0.00    +0.000 A 
ENDBRANCH   7  10
BRANCH   2  16
ATOM     16  C   UNL     1       4.525   5.325  17.691  0.00  0.00    +0.000 C 
ATOM     17  C   UNL     1       5.338   6.000  16.576  0.00  0.00    +0.000 C 
ATOM     18  C   UNL     1       6.438   6.899  17.135  0.00  0.00    +0.000 C 
ATOM     19  C   UNL     1       7.371   6.132  18.066  0.00  0.00    +0.000 C 
ATOM     20  C   UNL     1       6.619   5.371  19.154  0.00  0.00    +0.000 C 
ATOM     21  C   UNL     1       5.475   4.523  18.595  0.00  0.00    +0.000 C 
ENDBRANCH   2  16
TORSDOF 2
ENDMDL
MODEL 9
REMARK VINA RESULT:      -7.7      4.546      8.065
REMARK  Name = 
REMARK  2 active torsions:
REMARK  status: ('A' for Active; 'I' for Inactive)
REMARK    1  A    between atoms: C_2  and  C_15
REMARK    2  A    between atoms: C_7  and  C_8
REMARK                            x       y       z     vdW  Elec       q    Type
REMARK                         _______ _______ _______ _____ _____    ______ ____
ROOT
ATOM      1  O   UNL     1       3.254   5.688  20.072  0.00  0.00    +0.000 OA
ATOM      2  C   UNL     1       3.574   5.740  18.889  0.00  0.00    +0.000 C 
ATOM      3  N   UNL     1       3.193   6.727  18.015  0.00  0.00    +0.000 N 
ATOM      4  C   UNL     1       2.446   7.816  18.358  0.00  0.00    +0.000 A 
ATOM      5  N   UNL     1       2.153   8.803  17.543  0.00  0.00    +0.000 NA
ATOM      6  N   UNL     1       1.393   9.692  18.264  0.00  0.00    +0.000 NA
ATOM      7  C   UNL     1       1.264   9.179  19.473  0.00  0.00    +0.000 A 
ATOM      8  O   UNL     1       1.920   7.981  19.609  0.00  0.00    +0.000 OA
ATOM      9  H   UNL     1       3.486   6.719  17.050  0.00  0.00    +0.000 HD
ENDROOT
BRANCH   7  10
ATOM     10  C   UNL     1       0.548   9.722  20.624  0.00  0.00    +0.000 A 
ATOM     11  C   UNL     1       0.382   8.913  21.763  0.00  0.00    +0.000 A 
ATOM     12  C   UNL     1      -0.315   9.375  22.883  0.00  0.00    +0.000 A 
ATOM     13  C   UNL     1      -0.854  10.659  22.881  0.00  0.00    +0.000 A 
ATOM     14  C   UNL     1      -0.686  11.479  21.766  0.00  0.00    +0.000 A 
ATOM     15  C   UNL     1       0.012  11.016  20.644  0.00  0.00    +0.000 A 
ENDBRANCH   7  10
BRANCH   2  16
ATOM     16  C   UNL     1       4.414   4.632  18.215  0.00  0.00    +0.000 C 
ATOM     17  C   UNL     1       4.760   3.458  19.144  0.00  0.00    +0.000 C 
ATOM     18  C   UNL     1       3.530   2.627  19.498  0.00  0.00    +0.000 C 
ATOM     19  C   UNL     1       2.825   2.109  18.249  0.00  0.00    +0.000 C 
ATOM     20  C   UNL     1       2.521   3.217  17.245  0.00  0.00    +0.000 C 
ATOM     21  C   UNL     1       3.742   4.088  16.944  0.00  0.00    +0.000 C 
ENDBRANCH   2  16
TORSDOF 2
ENDMDL
