MODEL 1
REMARK VINA RESULT:      -7.5      0.000      0.000
REMARK  Name = 
REMARK  1 active torsions:
REMARK  status: ('A' for Active; 'I' for Inactive)
REMARK    1  A    between atoms: C_1  and  N_2
REMARK                            x       y       z     vdW  Elec       q    Type
REMARK                         _______ _______ _______ _____ _____    ______ ____
ROOT
ATOM      1  C   UNL     1       1.675   2.229  19.676  0.00  0.00    +0.000 C 
ATOM      2  N   UNL     1       2.407   3.456  19.461  0.00  0.00    +0.000 N 
ATOM      3  C   UNL     1       2.393   4.486  20.413  0.00  0.00    +0.000 C 
ATOM      4  O   UNL     1       2.096   4.259  21.585  0.00  0.00    +0.000 OA
ATOM      5  C   UNL     1       2.685   5.871  19.990  0.00  0.00    +0.000 A 
ATOM      6  N   UNL     1       2.129   6.863  20.783  0.00  0.00    +0.000 N 
ATOM      7  C   UNL     1       1.744   7.895  19.974  0.00  0.00    +0.000 A 
ATOM      8  C   UNL     1       0.762   8.870  20.162  0.00  0.00    +0.000 A 
ATOM      9  C   UNL     1       0.531   9.745  19.100  0.00  0.00    +0.000 A 
ATOM     10  C   UNL     1       1.310   9.692  17.946  0.00  0.00    +0.000 A 
ATOM     11  C   UNL     1       2.334   8.747  17.813  0.00  0.00    +0.000 A 
ATOM     12  C   UNL     1       2.522   7.786  18.828  0.00  0.00    +0.000 A 
ATOM     13  C   UNL     1       3.301   6.557  18.907  0.00  0.00    +0.000 A 
ATOM     14  C   UNL     1       4.274   6.219  17.723  0.00  0.00    +0.000 C 
ATOM     15  N   UNL     1       4.930   4.886  17.546  0.00  0.00    +0.000 NA
ATOM     16  C   UNL     1       4.428   4.091  16.378  0.00  0.00    +0.000 C 
ATOM     17  C   UNL     1       3.257   3.177  16.887  0.00  0.00    +0.000 C 
ATOM     18  C   UNL     1       3.108   3.760  18.269  0.00  0.00    +0.000 C 
ATOM     19  C   UNL     1       4.583   4.002  18.626  0.00  0.00    +0.000 C 
ATOM     20  H   UNL     1       1.705   6.663  21.680  0.00  0.00    +0.000 HD
ENDROOT
TORSDOF 0
ENDMDL
MODEL 2
REMARK VINA RESULT:      -7.5      3.284      4.324
REMARK  Name = 
REMARK  1 active torsions:
REMARK  status: ('A' for Active; 'I' for Inactive)
REMARK    1  A    between atoms: C_1  and  N_2
REMARK                            x       y       z     vdW  Elec       q    Type
REMARK                         _______ _______ _______ _____ _____    ______ ____
ROOT
ATOM      1  C   UNL     1       2.629   2.566  21.595  0.00  0.00    +0.000 C 
ATOM      2  N   UNL     1       3.136   2.864  20.275  0.00  0.00    +0.000 N 
ATOM      3  C   UNL     1       4.494   2.709  19.966  0.00  0.00    +0.000 C 
ATOM      4  O   UNL     1       5.217   1.980  20.645  0.00  0.00    +0.000 OA
ATOM      5  C   UNL     1       5.077   3.473  18.845  0.00  0.00    +0.000 A 
ATOM      6  N   UNL     1       6.440   3.716  18.938  0.00  0.00    +0.000 N 
ATOM      7  C   UNL     1       6.689   4.963  18.439  0.00  0.00    +0.000 A 
ATOM      8  C   UNL     1       7.733   5.851  18.709  0.00  0.00    +0.000 A 
ATOM      9  C   UNL     1       7.662   7.108  18.108  0.00  0.00    +0.000 A 
ATOM     10  C   UNL     1       6.639   7.420  17.216  0.00  0.00    +0.000 A 
ATOM     11  C   UNL     1       5.643   6.485  16.910  0.00  0.00    +0.000 A 
ATOM     12  C   UNL     1       5.633   5.243  17.580  0.00  0.00    +0.000 A 
ATOM     13  C   UNL     1       4.650   4.173  17.684  0.00  0.00    +0.000 A 
ATOM     14  C   UNL     1       3.362   4.262  16.791  0.00  0.00    +0.000 C 
ATOM     15  N   UNL     1       2.163   3.386  16.979  0.00  0.00    +0.000 NA
ATOM     16  C   UNL     1       0.947   4.093  17.500  0.00  0.00    +0.000 C 
ATOM     17  C   UNL     1       0.967   3.991  19.067  0.00  0.00    +0.000 C 
ATOM     18  C   UNL     1       2.350   3.413  19.233  0.00  0.00    +0.000 C 
ATOM     19  C   UNL     1       2.386   2.442  18.041  0.00  0.00    +0.000 C 
ATOM     20  H   UNL     1       7.024   3.258  19.625  0.00  0.00    +0.000 HD
ENDROOT
TORSDOF 0
ENDMDL
MODEL 3
REMARK VINA RESULT:      -7.1      3.097      6.344
REMARK  Name = 
REMARK  1 active torsions:
REMARK  status: ('A' for Active; 'I' for Inactive)
REMARK    1  A    between atoms: C_1  and  N_2
REMARK                            x       y       z     vdW  Elec       q    Type
REMARK                         _______ _______ _______ _____ _____    ______ ____
ROOT
ATOM      1  C   UNL     1       3.620   7.754  17.915  0.00  0.00    +0.000 C 
ATOM      2  N   UNL     1       4.292   6.528  17.549  0.00  0.00    +0.000 N 
ATOM      3  C   UNL     1       5.635   6.528  17.145  0.00  0.00    +0.000 C 
ATOM      4  O   UNL     1       6.383   7.460  17.438  0.00  0.00    +0.000 OA
ATOM      5  C   UNL     1       6.142   5.421  16.309  0.00  0.00    +0.000 A 
ATOM      6  N   UNL     1       7.231   5.734  15.508  0.00  0.00    +0.000 N 
ATOM      7  C   UNL     1       7.097   5.070  14.322  0.00  0.00    +0.000 A 
ATOM      8  C   UNL     1       7.607   5.370  13.057  0.00  0.00    +0.000 A 
ATOM      9  C   UNL     1       7.211   4.544  12.005  0.00  0.00    +0.000 A 
ATOM     10  C   UNL     1       6.414   3.425  12.233  0.00  0.00    +0.000 A 
ATOM     11  C   UNL     1       5.972   3.109  13.523  0.00  0.00    +0.000 A 
ATOM     12  C   UNL     1       6.273   3.983  14.589  0.00  0.00    +0.000 A 
ATOM     13  C   UNL     1       5.790   4.088  15.960  0.00  0.00    +0.000 A 
ATOM     14  C   UNL     1       4.845   2.958  16.501  0.00  0.00    +0.000 C 
ATOM     15  N   UNL     1       4.075   3.067  17.779  0.00  0.00    +0.000 NA
ATOM     16  C   UNL     1       2.591   3.196  17.607  0.00  0.00    +0.000 C 
ATOM     17  C   UNL     1       2.246   4.727  17.552  0.00  0.00    +0.000 C 
ATOM     18  C   UNL     1       3.651   5.267  17.477  0.00  0.00    +0.000 C 
ATOM     19  C   UNL     1       4.365   4.308  18.444  0.00  0.00    +0.000 C 
ATOM     20  H   UNL     1       7.749   6.596  15.614  0.00  0.00    +0.000 HD
ENDROOT
TORSDOF 0
ENDMDL
MODEL 4
REMARK VINA RESULT:      -7.1      3.465      5.117
REMARK  Name = 
REMARK  1 active torsions:
REMARK  status: ('A' for Active; 'I' for Inactive)
REMARK    1  A    between atoms: C_1  and  N_2
REMARK                            x       y       z     vdW  Elec       q    Type
REMARK                         _______ _______ _______ _____ _____    ______ ____
ROOT
ATOM      1  C   UNL     1       6.686   5.254  14.432  0.00  0.00    +0.000 C 
ATOM      2  N   UNL     1       6.473   4.872  15.810  0.00  0.00    +0.000 N 
ATOM      3  C   UNL     1       5.729   3.731  16.140  0.00  0.00    +0.000 C 
ATOM      4  O   UNL     1       5.559   2.828  15.321  0.00  0.00    +0.000 OA
ATOM      5  C   UNL     1       5.094   3.637  17.470  0.00  0.00    +0.000 A 
ATOM      6  N   UNL     1       3.973   2.824  17.537  0.00  0.00    +0.000 N 
ATOM      7  C   UNL     1       3.078   3.394  18.397  0.00  0.00    +0.000 A 
ATOM      8  C   UNL     1       1.688   3.272  18.465  0.00  0.00    +0.000 A 
ATOM      9  C   UNL     1       1.031   4.066  19.405  0.00  0.00    +0.000 A 
ATOM     10  C   UNL     1       1.746   4.874  20.286  0.00  0.00    +0.000 A 
ATOM     11  C   UNL     1       3.144   4.925  20.240  0.00  0.00    +0.000 A 
ATOM     12  C   UNL     1       3.828   4.211  19.234  0.00  0.00    +0.000 A 
ATOM     13  C   UNL     1       5.205   4.228  18.759  0.00  0.00    +0.000 A 
ATOM     14  C   UNL     1       6.254   5.080  19.558  0.00  0.00    +0.000 C 
ATOM     15  N   UNL     1       7.624   5.397  19.047  0.00  0.00    +0.000 NA
ATOM     16  C   UNL     1       7.840   6.837  18.686  0.00  0.00    +0.000 C 
ATOM     17  C   UNL     1       7.495   7.006  17.163  0.00  0.00    +0.000 C 
ATOM     18  C   UNL     1       6.902   5.642  16.918  0.00  0.00    +0.000 C 
ATOM     19  C   UNL     1       7.845   4.776  17.769  0.00  0.00    +0.000 C 
ATOM     20  H   UNL     1       3.710   2.204  16.781  0.00  0.00    +0.000 HD
ENDROOT
TORSDOF 0
ENDMDL
MODEL 5
REMARK VINA RESULT:      -6.6      2.728      4.631
REMARK  Name = 
REMARK  1 active torsions:
REMARK  status: ('A' for Active; 'I' for Inactive)
REMARK    1  A    between atoms: C_1  and  N_2
REMARK                            x       y       z     vdW  Elec       q    Type
REMARK                         _______ _______ _______ _____ _____    ______ ____
ROOT
ATOM      1  C   UNL     1       6.696   7.906  17.551  0.00  0.00    +0.000 C 
ATOM      2  N   UNL     1       5.708   6.892  17.256  0.00  0.00    +0.000 N 
ATOM      3  C   UNL     1       4.354   7.088  17.560  0.00  0.00    +0.000 C 
ATOM      4  O   UNL     1       3.900   8.219  17.725  0.00  0.00    +0.000 OA
ATOM      5  C   UNL     1       3.474   5.916  17.741  0.00  0.00    +0.000 A 
ATOM      6  N   UNL     1       2.368   6.123  18.553  0.00  0.00    +0.000 N 
ATOM      7  C   UNL     1       2.147   4.986  19.276  0.00  0.00    +0.000 A 
ATOM      8  C   UNL     1       1.516   4.810  20.510  0.00  0.00    +0.000 A 
ATOM      9  C   UNL     1       1.530   3.523  21.047  0.00  0.00    +0.000 A 
ATOM     10  C   UNL     1       2.075   2.456  20.337  0.00  0.00    +0.000 A 
ATOM     11  C   UNL     1       2.641   2.649  19.071  0.00  0.00    +0.000 A 
ATOM     12  C   UNL     1       2.731   3.957  18.549  0.00  0.00    +0.000 A 
ATOM     13  C   UNL     1       3.446   4.531  17.417  0.00  0.00    +0.000 A 
ATOM     14  C   UNL     1       4.183   3.555  16.433  0.00  0.00    +0.000 C 
ATOM     15  N   UNL     1       5.159   4.010  15.394  0.00  0.00    +0.000 NA
ATOM     16  C   UNL     1       6.583   3.623  15.661  0.00  0.00    +0.000 C 
ATOM     17  C   UNL     1       7.257   4.795  16.460  0.00  0.00    +0.000 C 
ATOM     18  C   UNL     1       6.021   5.613  16.735  0.00  0.00    +0.000 C 
ATOM     19  C   UNL     1       5.277   5.443  15.400  0.00  0.00    +0.000 C 
ATOM     20  H   UNL     1       2.088   7.047  18.856  0.00  0.00    +0.000 HD
ENDROOT
TORSDOF 0
ENDMDL
MODEL 6
REMARK VINA RESULT:      -6.5      1.261      1.447
REMARK  Name = 
REMARK  1 active torsions:
REMARK  status: ('A' for Active; 'I' for Inactive)
REMARK    1  A    between atoms: C_1  and  N_2
REMARK                            x       y       z     vdW  Elec       q    Type
REMARK                         _______ _______ _______ _____ _____    ______ ____
ROOT
ATOM      1  C   UNL     1       3.317   1.986  18.054  0.00  0.00    +0.000 C 
ATOM      2  N   UNL     1       3.798   3.347  18.129  0.00  0.00    +0.000 N 
ATOM      3  C   UNL     1       3.608   4.123  19.281  0.00  0.00    +0.000 C 
ATOM      4  O   UNL     1       3.383   3.593  20.369  0.00  0.00    +0.000 OA
ATOM      5  C   UNL     1       3.623   5.596  19.176  0.00  0.00    +0.000 A 
ATOM      6  N   UNL     1       2.904   6.267  20.155  0.00  0.00    +0.000 N 
ATOM      7  C   UNL     1       2.314   7.358  19.582  0.00  0.00    +0.000 A 
ATOM      8  C   UNL     1       1.169   8.064  19.956  0.00  0.00    +0.000 A 
ATOM      9  C   UNL     1       0.754   9.089  19.105  0.00  0.00    +0.000 A 
ATOM     10  C   UNL     1       1.505   9.438  17.985  0.00  0.00    +0.000 A 
ATOM     11  C   UNL     1       2.688   8.757  17.672  0.00  0.00    +0.000 A 
ATOM     12  C   UNL     1       3.075   7.651  18.457  0.00  0.00    +0.000 A 
ATOM     13  C   UNL     1       4.075   6.606  18.283  0.00  0.00    +0.000 A 
ATOM     14  C   UNL     1       5.070   6.726  17.076  0.00  0.00    +0.000 C 
ATOM     15  N   UNL     1       5.964   5.613  16.627  0.00  0.00    +0.000 NA
ATOM     16  C   UNL     1       5.599   5.012  15.303  0.00  0.00    +0.000 C 
ATOM     17  C   UNL     1       4.634   3.803  15.574  0.00  0.00    +0.000 C 
ATOM     18  C   UNL     1       4.404   4.031  17.046  0.00  0.00    +0.000 C 
ATOM     19  C   UNL     1       5.814   4.465  17.480  0.00  0.00    +0.000 C 
ATOM     20  H   UNL     1       2.544   5.800  20.976  0.00  0.00    +0.000 HD
ENDROOT
TORSDOF 0
ENDMDL
MODEL 7
REMARK VINA RESULT:      -6.3      3.068      4.363
REMARK  Name = 
REMARK  1 active torsions:
REMARK  status: ('A' for Active; 'I' for Inactive)
REMARK    1  A    between atoms: C_1  and  N_2
REMARK                            x       y       z     vdW  Elec       q    Type
REMARK                         _______ _______ _______ _____ _____    ______ ____
ROOT
ATOM      1  C   UNL     1       8.567   4.252  18.256  0.00  0.00    +0.000 C 
ATOM      2  N   UNL     1       7.275   4.859  18.022  0.00  0.00    +0.000 N 
ATOM      3  C   UNL     1       6.473   5.293  19.087  0.00  0.00    +0.000 C 
ATOM      4  O   UNL     1       6.962   5.526  20.192  0.00  0.00    +0.000 OA
ATOM      5  C   UNL     1       5.015   5.417  18.894  0.00  0.00    +0.000 A 
ATOM      6  N   UNL     1       4.251   5.293  20.046  0.00  0.00    +0.000 N 
ATOM      7  C   UNL     1       3.100   4.629  19.730  0.00  0.00    +0.000 A 
ATOM      8  C   UNL     1       2.254   3.859  20.530  0.00  0.00    +0.000 A 
ATOM      9  C   UNL     1       1.192   3.218  19.891  0.00  0.00    +0.000 A 
ATOM     10  C   UNL     1       0.948   3.417  18.534  0.00  0.00    +0.000 A 
ATOM     11  C   UNL     1       1.773   4.251  17.770  0.00  0.00    +0.000 A 
ATOM     12  C   UNL     1       2.912   4.829  18.368  0.00  0.00    +0.000 A 
ATOM     13  C   UNL     1       4.075   5.524  17.832  0.00  0.00    +0.000 A 
ATOM     14  C   UNL     1       4.089   5.876  16.302  0.00  0.00    +0.000 C 
ATOM     15  N   UNL     1       5.308   6.346  15.573  0.00  0.00    +0.000 NA
ATOM     16  C   UNL     1       5.869   5.361  14.591  0.00  0.00    +0.000 C 
ATOM     17  C   UNL     1       6.947   4.498  15.340  0.00  0.00    +0.000 C 
ATOM     18  C   UNL     1       6.680   4.981  16.743  0.00  0.00    +0.000 C 
ATOM     19  C   UNL     1       6.421   6.473  16.474  0.00  0.00    +0.000 C 
ATOM     20  H   UNL     1       4.664   5.294  20.970  0.00  0.00    +0.000 HD
ENDROOT
TORSDOF 0
ENDMDL
MODEL 8
REMARK VINA RESULT:      -6.2      2.649      6.308
REMARK  Name = 
REMARK  1 active torsions:
REMARK  status: ('A' for Active; 'I' for Inactive)
REMARK    1  A    between atoms: C_1  and  N_2
REMARK                            x       y       z     vdW  Elec       q    Type
REMARK                         _______ _______ _______ _____ _____    ______ ____
ROOT
ATOM      1  C   UNL     1      -0.628  11.205  18.210  0.00  0.00    +0.000 C 
ATOM      2  N   UNL     1       0.244  10.376  19.012  0.00  0.00    +0.000 N 
ATOM      3  C   UNL     1       1.333   9.703  18.441  0.00  0.00    +0.000 C 
ATOM      4  O   UNL     1       1.811  10.070  17.368  0.00  0.00    +0.000 OA
ATOM      5  C   UNL     1       1.878   8.504  19.109  0.00  0.00    +0.000 A 
ATOM      6  N   UNL     1       2.522   7.601  18.275  0.00  0.00    +0.000 N 
ATOM      7  C   UNL     1       2.245   6.338  18.715  0.00  0.00    +0.000 A 
ATOM      8  C   UNL     1       2.231   5.125  18.023  0.00  0.00    +0.000 A 
ATOM      9  C   UNL     1       1.809   3.999  18.731  0.00  0.00    +0.000 A 
ATOM     10  C   UNL     1       1.502   4.080  20.087  0.00  0.00    +0.000 A 
ATOM     11  C   UNL     1       1.591   5.297  20.773  0.00  0.00    +0.000 A 
ATOM     12  C   UNL     1       1.917   6.469  20.058  0.00  0.00    +0.000 A 
ATOM     13  C   UNL     1       1.864   7.887  20.390  0.00  0.00    +0.000 A 
ATOM     14  C   UNL     1       1.521   8.290  21.868  0.00  0.00    +0.000 C 
ATOM     15  N   UNL     1       1.180   9.685  22.287  0.00  0.00    +0.000 NA
ATOM     16  C   UNL     1      -0.251   9.886  22.688  0.00  0.00    +0.000 C 
ATOM     17  C   UNL     1      -1.049  10.332  21.411  0.00  0.00    +0.000 C 
ATOM     18  C   UNL     1       0.030  10.102  20.385  0.00  0.00    +0.000 C 
ATOM     19  C   UNL     1       1.262  10.585  21.169  0.00  0.00    +0.000 C 
ATOM     20  H   UNL     1       2.757   7.825  17.317  0.00  0.00    +0.000 HD
ENDROOT
TORSDOF 0
ENDMDL
MODEL 9
REMARK VINA RESULT:      -6.2      4.900      7.178
REMARK  Name = 
REMARK  1 active torsions:
REMARK  status: ('A' for Active; 'I' for Inactive)
REMARK    1  A    between atoms: C_1  and  N_2
REMARK                            x       y       z     vdW  Elec       q    Type
REMARK                         _______ _______ _______ _____ _____    ______ ____
ROOT
ATOM      1  C   UNL     1      -1.515  11.056  23.195  0.00  0.00    +0.000 C 
ATOM      2  N   UNL     1      -1.061  11.067  21.822  0.00  0.00    +0.000 N 
ATOM      3  C   UNL     1      -1.501  12.046  20.920  0.00  0.00    +0.000 C 
ATOM      4  O   UNL     1      -1.960  13.115  21.321  0.00  0.00    +0.000 OA
ATOM      5  C   UNL     1      -1.463  11.768  19.470  0.00  0.00    +0.000 A 
ATOM      6  N   UNL     1      -2.380  12.475  18.706  0.00  0.00    +0.000 N 
ATOM      7  C   UNL     1      -2.829  11.659  17.707  0.00  0.00    +0.000 A 
ATOM      8  C   UNL     1      -4.028  11.683  16.992  0.00  0.00    +0.000 A 
ATOM      9  C   UNL     1      -4.245  10.644  16.088  0.00  0.00    +0.000 A 
ATOM     10  C   UNL     1      -3.265   9.681  15.855  0.00  0.00    +0.000 A 
ATOM     11  C   UNL     1      -2.043   9.719  16.536  0.00  0.00    +0.000 A 
ATOM     12  C   UNL     1      -1.839  10.700  17.530  0.00  0.00    +0.000 A 
ATOM     13  C   UNL     1      -0.825  10.878  18.562  0.00  0.00    +0.000 A 
ATOM     14  C   UNL     1       0.412   9.912  18.560  0.00  0.00    +0.000 C 
ATOM     15  N   UNL     1       1.382   9.810  19.695  0.00  0.00    +0.000 NA
ATOM     16  C   UNL     1       1.318   8.521  20.459  0.00  0.00    +0.000 C 
ATOM     17  C   UNL     1       0.316   8.721  21.652  0.00  0.00    +0.000 C 
ATOM     18  C   UNL     1      -0.232  10.068  21.256  0.00  0.00    +0.000 C 
ATOM     19  C   UNL     1       1.047  10.743  20.736  0.00  0.00    +0.000 C 
ATOM     20  H   UNL     1      -2.912  13.249  19.081  0.00  0.00    +0.000 HD
ENDROOT
TORSDOF 0
ENDMDL
