MODEL 1
REMARK VINA RESULT:      -6.5      0.000      0.000
REMARK  Name = 
REMARK  9 active torsions:
REMARK  status: ('A' for Active; 'I' for Inactive)
REMARK    1  A    between atoms: C_1  and  O_2
REMARK    2  A    between atoms: O_2  and  C_3
REMARK    3  A    between atoms: C_4  and  O_5
REMARK    4  A    between atoms: C_9  and  O_10
REMARK    5  A    between atoms: O_10  and  C_11
REMARK    6  A    between atoms: C_15  and  S_16
REMARK    7  A    between atoms: S_16  and  C_17
REMARK    8  A    between atoms: C_22  and  N_23
REMARK    9  A    between atoms: C_24  and  C_26
REMARK                            x       y       z     vdW  Elec       q    Type
REMARK                         _______ _______ _______ _____ _____    ______ ____
ROOT
ATOM      1  C   UNL     1      -3.429  14.001  22.770  0.00  0.00    +0.000 A 
ATOM      2  C   UNL     1      -3.763  12.749  23.291  0.00  0.00    +0.000 A 
ATOM      3  C   UNL     1      -2.816  11.750  23.431  0.00  0.00    +0.000 A 
ATOM      4  C   UNL     1      -1.491  11.914  22.968  0.00  0.00    +0.000 A 
ATOM      5  C   UNL     1      -1.113  13.171  22.343  0.00  0.00    +0.000 A 
ATOM      6  C   UNL     1      -2.122  14.204  22.249  0.00  0.00    +0.000 A 
ATOM      7  C   UNL     1       0.257  13.372  21.575  0.00  0.00    +0.000 A 
ATOM      8  C   UNL     1       0.976  14.469  21.889  0.00  0.00    +0.000 A 
ATOM      9  C   UNL     1       2.288  14.756  21.291  0.00  0.00    +0.000 A 
ATOM     10  C   UNL     1       2.371  14.977  19.979  0.00  0.00    +0.000 A 
ATOM     11  C   UNL     1       2.510  13.727  19.166  0.00  0.00    +0.000 A 
ATOM     12  O   UNL     1       3.255  13.677  18.179  0.00  0.00    +0.000 OA
ATOM     13  C   UNL     1       1.696  12.530  19.557  0.00  0.00    +0.000 A 
ATOM     14  C   UNL     1       0.756  12.374  20.525  0.00  0.00    +0.000 A 
ATOM     15  C   UNL     1       0.060  11.047  20.661  0.00  0.00    +0.000 C 
ATOM     16  C   UNL     1       0.361  10.240  21.923  0.00  0.00    +0.000 C 
ATOM     17  C   UNL     1      -0.694  10.581  23.013  0.00  0.00    +0.000 C 
ENDROOT
BRANCH  15  18
ATOM     18  N   UNL     1      -0.906  10.626  19.677  0.00  0.00    +0.000 N 
ATOM     19  C   UNL     1      -1.811  11.344  18.959  0.00  0.00    +0.000 C 
ATOM     20  O   UNL     1      -2.184  12.469  19.288  0.00  0.00    +0.000 OA
ATOM     21  H   UNL     1      -0.648   9.753  19.200  0.00  0.00    +0.000 HD
BRANCH  19  22
ATOM     22  C   UNL     1      -2.255  10.552  17.705  0.00  0.00    +0.000 C 
ATOM     23  F   UNL     1      -1.243   9.715  17.295  0.00  0.00    +0.000 F 
ATOM     24  F   UNL     1      -3.325   9.744  17.929  0.00  0.00    +0.000 F 
ATOM     25  F   UNL     1      -2.546  11.339  16.638  0.00  0.00    +0.000 F 
ENDBRANCH  19  22
ENDBRANCH  15  18
BRANCH   1  27
ATOM     26  C   UNL     1      -4.664  15.707  23.864  0.00  0.00    +0.000 C 
ATOM     27  O   UNL     1      -4.398  14.970  22.660  0.00  0.00    +0.000 OA
ENDBRANCH   1  27
BRANCH   2  28
ATOM     28  O   UNL     1      -5.048  12.397  23.612  0.00  0.00    +0.000 OA
ATOM     29  H   UNL     1      -5.123  12.448  24.582  0.00  0.00    +0.000 HD
ENDBRANCH   2  28
BRANCH   6  30
ATOM     30  O   UNL     1      -1.727  15.319  21.544  0.00  0.00    +0.000 OA
ATOM     31  C   UNL     1      -1.594  16.575  22.192  0.00  0.00    +0.000 C 
ENDBRANCH   6  30
BRANCH  10  32
ATOM     32  S   UNL     1       1.730  16.361  19.156  0.00  0.00    +0.000 S 
ATOM     33  C   UNL     1       0.137  15.657  18.631  0.00  0.00    +0.000 C 
ENDBRANCH  10  32
TORSDOF 6
ENDMDL
MODEL 2
REMARK VINA RESULT:      -6.4      0.750      1.089
REMARK  Name = 
REMARK  9 active torsions:
REMARK  status: ('A' for Active; 'I' for Inactive)
REMARK    1  A    between atoms: C_1  and  O_2
REMARK    2  A    between atoms: O_2  and  C_3
REMARK    3  A    between atoms: C_4  and  O_5
REMARK    4  A    between atoms: C_9  and  O_10
REMARK    5  A    between atoms: O_10  and  C_11
REMARK    6  A    between atoms: C_15  and  S_16
REMARK    7  A    between atoms: S_16  and  C_17
REMARK    8  A    between atoms: C_22  and  N_23
REMARK    9  A    between atoms: C_24  and  C_26
REMARK                            x       y       z     vdW  Elec       q    Type
REMARK                         _______ _______ _______ _____ _____    ______ ____
ROOT
ATOM      1  C   UNL     1      -3.056  13.840  22.834  0.00  0.00    +0.000 A 
ATOM      2  C   UNL     1      -3.403  12.592  23.359  0.00  0.00    +0.000 A 
ATOM      3  C   UNL     1      -2.487  11.557  23.423  0.00  0.00    +0.000 A 
ATOM      4  C   UNL     1      -1.189  11.679  22.878  0.00  0.00    +0.000 A 
ATOM      5  C   UNL     1      -0.805  12.932  22.246  0.00  0.00    +0.000 A 
ATOM      6  C   UNL     1      -1.779  14.002  22.232  0.00  0.00    +0.000 A 
ATOM      7  C   UNL     1       0.519  13.094  21.394  0.00  0.00    +0.000 A 
ATOM      8  C   UNL     1       1.298  14.159  21.676  0.00  0.00    +0.000 A 
ATOM      9  C   UNL     1       2.578  14.407  20.998  0.00  0.00    +0.000 A 
ATOM     10  C   UNL     1       2.585  14.646  19.686  0.00  0.00    +0.000 A 
ATOM     11  C   UNL     1       2.624  13.404  18.848  0.00  0.00    +0.000 A 
ATOM     12  O   UNL     1       3.301  13.342  17.815  0.00  0.00    +0.000 OA
ATOM     13  C   UNL     1       1.792  12.232  19.276  0.00  0.00    +0.000 A 
ATOM     14  C   UNL     1       0.912  12.095  20.300  0.00  0.00    +0.000 A 
ATOM     15  C   UNL     1       0.176  10.792  20.464  0.00  0.00    +0.000 C 
ATOM     16  C   UNL     1       0.527   9.955  21.693  0.00  0.00    +0.000 C 
ATOM     17  C   UNL     1      -0.441  10.318  22.854  0.00  0.00    +0.000 C 
ENDROOT
BRANCH  15  18
ATOM     18  N   UNL     1      -0.866  10.422  19.539  0.00  0.00    +0.000 N 
ATOM     19  C   UNL     1      -1.837  11.173  18.951  0.00  0.00    +0.000 C 
ATOM     20  O   UNL     1      -2.192  12.266  19.387  0.00  0.00    +0.000 OA
ATOM     21  H   UNL     1      -0.641   9.588  18.983  0.00  0.00    +0.000 HD
BRANCH  19  22
ATOM     22  C   UNL     1      -2.379  10.459  17.689  0.00  0.00    +0.000 C 
ATOM     23  F   UNL     1      -2.768  11.391  16.753  0.00  0.00    +0.000 F 
ATOM     24  F   UNL     1      -1.451   9.687  17.066  0.00  0.00    +0.000 F 
ATOM     25  F   UNL     1      -3.471   9.689  17.925  0.00  0.00    +0.000 F 
ENDBRANCH  19  22
ENDBRANCH  15  18
BRANCH   1  27
ATOM     26  C   UNL     1      -3.965  15.744  23.920  0.00  0.00    +0.000 C 
ATOM     27  O   UNL     1      -3.993  14.845  22.800  0.00  0.00    +0.000 OA
ENDBRANCH   1  27
BRANCH   2  28
ATOM     28  O   UNL     1      -4.677  12.282  23.758  0.00  0.00    +0.000 OA
ATOM     29  H   UNL     1      -5.086  13.109  24.070  0.00  0.00    +0.000 HD
ENDBRANCH   2  28
BRANCH   6  30
ATOM     30  O   UNL     1      -1.388  15.113  21.518  0.00  0.00    +0.000 OA
ATOM     31  C   UNL     1      -2.098  15.514  20.356  0.00  0.00    +0.000 C 
ENDBRANCH   6  30
BRANCH  10  32
ATOM     32  S   UNL     1       1.945  16.064  18.925  0.00  0.00    +0.000 S 
ATOM     33  C   UNL     1       3.492  16.733  18.240  0.00  0.00    +0.000 C 
ENDBRANCH  10  32
TORSDOF 6
ENDMDL
MODEL 3
REMARK VINA RESULT:      -6.3      1.247      1.403
REMARK  Name = 
REMARK  9 active torsions:
REMARK  status: ('A' for Active; 'I' for Inactive)
REMARK    1  A    between atoms: C_1  and  O_2
REMARK    2  A    between atoms: O_2  and  C_3
REMARK    3  A    between atoms: C_4  and  O_5
REMARK    4  A    between atoms: C_9  and  O_10
REMARK    5  A    between atoms: O_10  and  C_11
REMARK    6  A    between atoms: C_15  and  S_16
REMARK    7  A    between atoms: S_16  and  C_17
REMARK    8  A    between atoms: C_22  and  N_23
REMARK    9  A    between atoms: C_24  and  C_26
REMARK                            x       y       z     vdW  Elec       q    Type
REMARK                         _______ _______ _______ _____ _____    ______ ____
ROOT
ATOM      1  C   UNL     1      -2.767  13.938  23.302  0.00  0.00    +0.000 A 
ATOM      2  C   UNL     1      -3.062  12.592  23.530  0.00  0.00    +0.000 A 
ATOM      3  C   UNL     1      -2.149  11.594  23.239  0.00  0.00    +0.000 A 
ATOM      4  C   UNL     1      -0.916  11.877  22.610  0.00  0.00    +0.000 A 
ATOM      5  C   UNL     1      -0.594  13.256  22.277  0.00  0.00    +0.000 A 
ATOM      6  C   UNL     1      -1.560  14.274  22.631  0.00  0.00    +0.000 A 
ATOM      7  C   UNL     1       0.633  13.655  21.360  0.00  0.00    +0.000 A 
ATOM      8  C   UNL     1       1.442  14.633  21.817  0.00  0.00    +0.000 A 
ATOM      9  C   UNL     1       2.645  15.070  21.095  0.00  0.00    +0.000 A 
ATOM     10  C   UNL     1       2.514  15.629  19.892  0.00  0.00    +0.000 A 
ATOM     11  C   UNL     1       2.460  14.636  18.770  0.00  0.00    +0.000 A 
ATOM     12  O   UNL     1       3.024  14.849  17.691  0.00  0.00    +0.000 OA
ATOM     13  C   UNL     1       1.673  13.377  18.974  0.00  0.00    +0.000 A 
ATOM     14  C   UNL     1       0.904  12.969  20.017  0.00  0.00    +0.000 A 
ATOM     15  C   UNL     1       0.184  11.651  19.923  0.00  0.00    +0.000 C 
ATOM     16  C   UNL     1       0.659  10.542  20.861  0.00  0.00    +0.000 C 
ATOM     17  C   UNL     1      -0.180  10.582  22.169  0.00  0.00    +0.000 C 
ENDROOT
BRANCH  15  18
ATOM     18  N   UNL     1      -0.952  11.500  19.049  0.00  0.00    +0.000 N 
ATOM     19  C   UNL     1      -1.253  10.528  18.146  0.00  0.00    +0.000 C 
ATOM     20  O   UNL     1      -0.409   9.762  17.683  0.00  0.00    +0.000 OA
ATOM     21  H   UNL     1      -1.796  11.977  19.390  0.00  0.00    +0.000 HD
BRANCH  19  22
ATOM     22  C   UNL     1      -2.768  10.535  17.831  0.00  0.00    +0.000 C 
ATOM     23  F   UNL     1      -3.263   9.252  17.873  0.00  0.00    +0.000 F 
ATOM     24  F   UNL     1      -3.503  11.237  18.733  0.00  0.00    +0.000 F 
ATOM     25  F   UNL     1      -3.065  11.010  16.594  0.00  0.00    +0.000 F 
ENDBRANCH  19  22
ENDBRANCH  15  18
BRANCH   1  27
ATOM     26  C   UNL     1      -3.508  15.540  24.889  0.00  0.00    +0.000 C 
ATOM     27  O   UNL     1      -3.698  14.899  23.617  0.00  0.00    +0.000 OA
ENDBRANCH   1  27
BRANCH   2  28
ATOM     28  O   UNL     1      -4.289  12.164  23.968  0.00  0.00    +0.000 OA
ATOM     29  H   UNL     1      -4.538  11.403  23.415  0.00  0.00    +0.000 HD
ENDBRANCH   2  28
BRANCH   6  30
ATOM     30  O   UNL     1      -1.241  15.537  22.181  0.00  0.00    +0.000 OA
ATOM     31  C   UNL     1      -1.917  16.100  21.068  0.00  0.00    +0.000 C 
ENDBRANCH   6  30
BRANCH  10  32
ATOM     32  S   UNL     1       1.804  17.178  19.580  0.00  0.00    +0.000 S 
ATOM     33  C   UNL     1       2.639  18.133  20.883  0.00  0.00    +0.000 C 
ENDBRANCH  10  32
TORSDOF 6
ENDMDL
MODEL 4
REMARK VINA RESULT:      -6.3      1.122      1.314
REMARK  Name = 
REMARK  9 active torsions:
REMARK  status: ('A' for Active; 'I' for Inactive)
REMARK    1  A    between atoms: C_1  and  O_2
REMARK    2  A    between atoms: O_2  and  C_3
REMARK    3  A    between atoms: C_4  and  O_5
REMARK    4  A    between atoms: C_9  and  O_10
REMARK    5  A    between atoms: O_10  and  C_11
REMARK    6  A    between atoms: C_15  and  S_16
REMARK    7  A    between atoms: S_16  and  C_17
REMARK    8  A    between atoms: C_22  and  N_23
REMARK    9  A    between atoms: C_24  and  C_26
REMARK                            x       y       z     vdW  Elec       q    Type
REMARK                         _______ _______ _______ _____ _____    ______ ____
ROOT
ATOM      1  C   UNL     1      -2.778  13.974  23.219  0.00  0.00    +0.000 A 
ATOM      2  C   UNL     1      -3.081  12.634  23.472  0.00  0.00    +0.000 A 
ATOM      3  C   UNL     1      -2.168  11.627  23.214  0.00  0.00    +0.000 A 
ATOM      4  C   UNL     1      -0.925  11.892  22.596  0.00  0.00    +0.000 A 
ATOM      5  C   UNL     1      -0.594  13.262  22.238  0.00  0.00    +0.000 A 
ATOM      6  C   UNL     1      -1.560  14.291  22.558  0.00  0.00    +0.000 A 
ATOM      7  C   UNL     1       0.647  13.637  21.330  0.00  0.00    +0.000 A 
ATOM      8  C   UNL     1       1.454  14.622  21.778  0.00  0.00    +0.000 A 
ATOM      9  C   UNL     1       2.667  15.040  21.062  0.00  0.00    +0.000 A 
ATOM     10  C   UNL     1       2.555  15.573  19.846  0.00  0.00    +0.000 A 
ATOM     11  C   UNL     1       2.512  14.557  18.745  0.00  0.00    +0.000 A 
ATOM     12  O   UNL     1       3.091  14.745  17.669  0.00  0.00    +0.000 OA
ATOM     13  C   UNL     1       1.717  13.305  18.964  0.00  0.00    +0.000 A 
ATOM     14  C   UNL     1       0.933  12.923  20.005  0.00  0.00    +0.000 A 
ATOM     15  C   UNL     1       0.209  11.605  19.930  0.00  0.00    +0.000 C 
ATOM     16  C   UNL     1       0.667  10.514  20.897  0.00  0.00    +0.000 C 
ATOM     17  C   UNL     1      -0.190  10.585  22.192  0.00  0.00    +0.000 C 
ENDROOT
BRANCH  15  18
ATOM     18  N   UNL     1      -0.915  11.441  19.043  0.00  0.00    +0.000 N 
ATOM     19  C   UNL     1      -1.189  10.471  18.129  0.00  0.00    +0.000 C 
ATOM     20  O   UNL     1      -0.326   9.726  17.667  0.00  0.00    +0.000 OA
ATOM     21  H   UNL     1      -1.772  11.897  19.381  0.00  0.00    +0.000 HD
BRANCH  19  22
ATOM     22  C   UNL     1      -2.701  10.451  17.799  0.00  0.00    +0.000 C 
ATOM     23  F   UNL     1      -3.392  11.206  18.720  0.00  0.00    +0.000 F 
ATOM     24  F   UNL     1      -2.996  10.996  16.590  0.00  0.00    +0.000 F 
ATOM     25  F   UNL     1      -3.252   9.212  17.843  0.00  0.00    +0.000 F 
ENDBRANCH  19  22
ENDBRANCH  15  18
BRANCH   1  27
ATOM     26  C   UNL     1      -3.656  15.471  24.838  0.00  0.00    +0.000 C 
ATOM     27  O   UNL     1      -3.709  14.945  23.502  0.00  0.00    +0.000 OA
ENDBRANCH   1  27
BRANCH   2  28
ATOM     28  O   UNL     1      -4.315  12.220  23.902  0.00  0.00    +0.000 OA
ATOM     29  H   UNL     1      -4.270  12.155  24.873  0.00  0.00    +0.000 HD
ENDBRANCH   2  28
BRANCH   6  30
ATOM     30  O   UNL     1      -1.231  15.543  22.086  0.00  0.00    +0.000 OA
ATOM     31  C   UNL     1      -0.919  16.596  22.985  0.00  0.00    +0.000 C 
ENDBRANCH   6  30
BRANCH  10  32
ATOM     32  S   UNL     1       1.855  17.118  19.492  0.00  0.00    +0.000 S 
ATOM     33  C   UNL     1       0.246  16.555  18.860  0.00  0.00    +0.000 C 
ENDBRANCH  10  32
TORSDOF 6
ENDMDL
MODEL 5
REMARK VINA RESULT:      -5.9      1.299      1.487
REMARK  Name = 
REMARK  9 active torsions:
REMARK  status: ('A' for Active; 'I' for Inactive)
REMARK    1  A    between atoms: C_1  and  O_2
REMARK    2  A    between atoms: O_2  and  C_3
REMARK    3  A    between atoms: C_4  and  O_5
REMARK    4  A    between atoms: C_9  and  O_10
REMARK    5  A    between atoms: O_10  and  C_11
REMARK    6  A    between atoms: C_15  and  S_16
REMARK    7  A    between atoms: S_16  and  C_17
REMARK    8  A    between atoms: C_22  and  N_23
REMARK    9  A    between atoms: C_24  and  C_26
REMARK                            x       y       z     vdW  Elec       q    Type
REMARK                         _______ _______ _______ _____ _____    ______ ____
ROOT
ATOM      1  C   UNL     1      -3.053  14.250  22.606  0.00  0.00    +0.000 A 
ATOM      2  C   UNL     1      -3.436  12.947  22.932  0.00  0.00    +0.000 A 
ATOM      3  C   UNL     1      -2.521  11.910  22.954  0.00  0.00    +0.000 A 
ATOM      4  C   UNL     1      -1.178  12.097  22.557  0.00  0.00    +0.000 A 
ATOM      5  C   UNL     1      -0.747  13.419  22.129  0.00  0.00    +0.000 A 
ATOM      6  C   UNL     1      -1.725  14.485  22.156  0.00  0.00    +0.000 A 
ATOM      7  C   UNL     1       0.652  13.685  21.437  0.00  0.00    +0.000 A 
ATOM      8  C   UNL     1       1.389  14.703  21.926  0.00  0.00    +0.000 A 
ATOM      9  C   UNL     1       2.726  15.032  21.412  0.00  0.00    +0.000 A 
ATOM     10  C   UNL     1       2.858  15.436  20.148  0.00  0.00    +0.000 A 
ATOM     11  C   UNL     1       2.990  14.310  19.168  0.00  0.00    +0.000 A 
ATOM     12  O   UNL     1       3.765  14.378  18.206  0.00  0.00    +0.000 OA
ATOM     13  C   UNL     1       2.133  13.095  19.360  0.00  0.00    +0.000 A 
ATOM     14  C   UNL     1       1.159  12.832  20.269  0.00  0.00    +0.000 A 
ATOM     15  C   UNL     1       0.423  11.521  20.194  0.00  0.00    +0.000 C 
ATOM     16  C   UNL     1       0.662  10.533  21.335  0.00  0.00    +0.000 C 
ATOM     17  C   UNL     1      -0.418  10.748  22.433  0.00  0.00    +0.000 C 
ENDROOT
BRANCH  15  18
ATOM     18  N   UNL     1      -0.521  11.274  19.133  0.00  0.00    +0.000 N 
ATOM     19  C   UNL     1      -0.551  10.303  18.181  0.00  0.00    +0.000 C 
ATOM     20  O   UNL     1       0.441   9.649  17.862  0.00  0.00    +0.000 OA
ATOM     21  H   UNL     1      -1.460  11.644  19.329  0.00  0.00    +0.000 HD
BRANCH  19  22
ATOM     22  C   UNL     1      -1.981  10.154  17.607  0.00  0.00    +0.000 C 
ATOM     23  F   UNL     1      -2.754   9.403  18.463  0.00  0.00    +0.000 F 
ATOM     24  F   UNL     1      -2.634  11.338  17.473  0.00  0.00    +0.000 F 
ATOM     25  F   UNL     1      -2.023   9.518  16.409  0.00  0.00    +0.000 F 
ENDBRANCH  19  22
ENDBRANCH  15  18
BRANCH   1  27
ATOM     26  C   UNL     1      -4.814  15.324  21.432  0.00  0.00    +0.000 C 
ATOM     27  O   UNL     1      -3.992  15.254  22.608  0.00  0.00    +0.000 OA
ENDBRANCH   1  27
BRANCH   2  28
ATOM     28  O   UNL     1      -4.740  12.592  23.163  0.00  0.00    +0.000 OA
ATOM     29  H   UNL     1      -5.293  13.340  22.874  0.00  0.00    +0.000 HD
ENDBRANCH   2  28
BRANCH   6  30
ATOM     30  O   UNL     1      -1.278  15.677  21.630  0.00  0.00    +0.000 OA
ATOM     31  C   UNL     1      -1.558  16.023  20.282  0.00  0.00    +0.000 C 
ENDBRANCH   6  30
BRANCH  10  32
ATOM     32  S   UNL     1       2.280  16.941  19.514  0.00  0.00    +0.000 S 
ATOM     33  C   UNL     1       2.934  18.051  20.798  0.00  0.00    +0.000 C 
ENDBRANCH  10  32
TORSDOF 6
ENDMDL
MODEL 6
REMARK VINA RESULT:      -5.9      7.311     10.840
REMARK  Name = 
REMARK  9 active torsions:
REMARK  status: ('A' for Active; 'I' for Inactive)
REMARK    1  A    between atoms: C_1  and  O_2
REMARK    2  A    between atoms: O_2  and  C_3
REMARK    3  A    between atoms: C_4  and  O_5
REMARK    4  A    between atoms: C_9  and  O_10
REMARK    5  A    between atoms: O_10  and  C_11
REMARK    6  A    between atoms: C_15  and  S_16
REMARK    7  A    between atoms: S_16  and  C_17
REMARK    8  A    between atoms: C_22  and  N_23
REMARK    9  A    between atoms: C_24  and  C_26
REMARK                            x       y       z     vdW  Elec       q    Type
REMARK                         _______ _______ _______ _____ _____    ______ ____
ROOT
ATOM      1  C   UNL     1      10.110  14.584  17.906  0.00  0.00    +0.000 A 
ATOM      2  C   UNL     1      10.144  15.851  17.319  0.00  0.00    +0.000 A 
ATOM      3  C   UNL     1       9.756  16.981  18.017  0.00  0.00    +0.000 A 
ATOM      4  C   UNL     1       9.219  16.898  19.321  0.00  0.00    +0.000 A 
ATOM      5  C   UNL     1       9.085  15.592  19.948  0.00  0.00    +0.000 A 
ATOM      6  C   UNL     1       9.536  14.439  19.198  0.00  0.00    +0.000 A 
ATOM      7  C   UNL     1       8.277  15.361  21.289  0.00  0.00    +0.000 A 
ATOM      8  C   UNL     1       8.892  14.647  22.255  0.00  0.00    +0.000 A 
ATOM      9  C   UNL     1       8.281  14.396  23.567  0.00  0.00    +0.000 A 
ATOM     10  C   UNL     1       7.159  13.679  23.637  0.00  0.00    +0.000 A 
ATOM     11  C   UNL     1       5.913  14.490  23.448  0.00  0.00    +0.000 A 
ATOM     12  O   UNL     1       4.894  14.274  24.114  0.00  0.00    +0.000 OA
ATOM     13  C   UNL     1       5.916  15.563  22.401  0.00  0.00    +0.000 A 
ATOM     14  C   UNL     1       6.865  15.918  21.497  0.00  0.00    +0.000 A 
ATOM     15  C   UNL     1       6.569  17.026  20.522  0.00  0.00    +0.000 C 
ATOM     16  C   UNL     1       7.366  18.319  20.690  0.00  0.00    +0.000 C 
ATOM     17  C   UNL     1       8.635  18.258  19.794  0.00  0.00    +0.000 C 
ENDROOT
BRANCH  15  18
ATOM     18  N   UNL     1       5.640  16.817  19.440  0.00  0.00    +0.000 N 
ATOM     19  C   UNL     1       5.370  15.704  18.707  0.00  0.00    +0.000 C 
ATOM     20  O   UNL     1       6.141  14.749  18.633  0.00  0.00    +0.000 OA
ATOM     21  H   UNL     1       4.841  17.465  19.458  0.00  0.00    +0.000 HD
BRANCH  19  22
ATOM     22  C   UNL     1       3.984  15.828  18.028  0.00  0.00    +0.000 C 
ATOM     23  F   UNL     1       3.068  15.035  18.681  0.00  0.00    +0.000 F 
ATOM     24  F   UNL     1       3.471  17.086  18.076  0.00  0.00    +0.000 F 
ATOM     25  F   UNL     1       3.973  15.424  16.733  0.00  0.00    +0.000 F 
ENDBRANCH  19  22
ENDBRANCH  15  18
BRANCH   1  27
ATOM     26  C   UNL     1      11.937  13.279  17.136  0.00  0.00    +0.000 C 
ATOM     27  O   UNL     1      10.516  13.490  17.180  0.00  0.00    +0.000 OA
ENDBRANCH   1  27
BRANCH   2  28
ATOM     28  O   UNL     1      10.475  16.052  16.003  0.00  0.00    +0.000 OA
ATOM     29  H   UNL     1       9.731  16.529  15.594  0.00  0.00    +0.000 HD
ENDBRANCH   2  28
BRANCH   6  30
ATOM     30  O   UNL     1       9.273  13.231  19.805  0.00  0.00    +0.000 OA
ATOM     31  C   UNL     1      10.332  12.400  20.253  0.00  0.00    +0.000 C 
ENDBRANCH   6  30
BRANCH  10  32
ATOM     32  S   UNL     1       7.032  11.986  23.292  0.00  0.00    +0.000 S 
ATOM     33  C   UNL     1       6.677  11.387  24.973  0.00  0.00    +0.000 C 
ENDBRANCH  10  32
TORSDOF 6
ENDMDL
MODEL 7
REMARK VINA RESULT:      -5.9      1.156      1.335
REMARK  Name = 
REMARK  9 active torsions:
REMARK  status: ('A' for Active; 'I' for Inactive)
REMARK    1  A    between atoms: C_1  and  O_2
REMARK    2  A    between atoms: O_2  and  C_3
REMARK    3  A    between atoms: C_4  and  O_5
REMARK    4  A    between atoms: C_9  and  O_10
REMARK    5  A    between atoms: O_10  and  C_11
REMARK    6  A    between atoms: C_15  and  S_16
REMARK    7  A    between atoms: S_16  and  C_17
REMARK    8  A    between atoms: C_22  and  N_23
REMARK    9  A    between atoms: C_24  and  C_26
REMARK                            x       y       z     vdW  Elec       q    Type
REMARK                         _______ _______ _______ _____ _____    ______ ____
ROOT
ATOM      1  C   UNL     1      -3.132  14.633  22.893  0.00  0.00    +0.000 A 
ATOM      2  C   UNL     1      -3.697  13.430  23.323  0.00  0.00    +0.000 A 
ATOM      3  C   UNL     1      -2.968  12.253  23.333  0.00  0.00    +0.000 A 
ATOM      4  C   UNL     1      -1.653  12.192  22.820  0.00  0.00    +0.000 A 
ATOM      5  C   UNL     1      -1.047  13.401  22.284  0.00  0.00    +0.000 A 
ATOM      6  C   UNL     1      -1.829  14.618  22.327  0.00  0.00    +0.000 A 
ATOM      7  C   UNL     1       0.310  13.393  21.469  0.00  0.00    +0.000 A 
ATOM      8  C   UNL     1       1.246  14.292  21.838  0.00  0.00    +0.000 A 
ATOM      9  C   UNL     1       2.569  14.365  21.202  0.00  0.00    +0.000 A 
ATOM     10  C   UNL     1       2.654  14.685  19.911  0.00  0.00    +0.000 A 
ATOM     11  C   UNL     1       2.511  13.511  18.990  0.00  0.00    +0.000 A 
ATOM     12  O   UNL     1       3.199  13.405  17.967  0.00  0.00    +0.000 OA
ATOM     13  C   UNL     1       1.484  12.471  19.319  0.00  0.00    +0.000 A 
ATOM     14  C   UNL     1       0.563  12.417  20.316  0.00  0.00    +0.000 A 
ATOM     15  C   UNL     1      -0.384  11.248  20.375  0.00  0.00    +0.000 C 
ATOM     16  C   UNL     1      -0.213  10.285  21.549  0.00  0.00    +0.000 C 
ATOM     17  C   UNL     1      -1.141  10.728  22.715  0.00  0.00    +0.000 C 
ENDROOT
BRANCH  15  18
ATOM     18  N   UNL     1      -1.445  11.120  19.409  0.00  0.00    +0.000 N 
ATOM     19  C   UNL     1      -1.521  10.382  18.268  0.00  0.00    +0.000 C 
ATOM     20  O   UNL     1      -0.530   9.944  17.689  0.00  0.00    +0.000 OA
ATOM     21  H   UNL     1      -2.376  11.317  19.797  0.00  0.00    +0.000 HD
BRANCH  19  22
ATOM     22  C   UNL     1      -2.999  10.182  17.853  0.00  0.00    +0.000 C 
ATOM     23  F   UNL     1      -3.146  10.422  16.506  0.00  0.00    +0.000 F 
ATOM     24  F   UNL     1      -3.446   8.913  18.046  0.00  0.00    +0.000 F 
ATOM     25  F   UNL     1      -3.860  11.025  18.479  0.00  0.00    +0.000 F 
ENDBRANCH  19  22
ENDBRANCH  15  18
BRANCH   1  27
ATOM     26  C   UNL     1      -4.803  15.928  21.815  0.00  0.00    +0.000 C 
ATOM     27  O   UNL     1      -3.888  15.781  22.912  0.00  0.00    +0.000 OA
ENDBRANCH   1  27
BRANCH   2  28
ATOM     28  O   UNL     1      -5.016  13.313  23.677  0.00  0.00    +0.000 OA
ATOM     29  H   UNL     1      -5.236  14.095  24.214  0.00  0.00    +0.000 HD
ENDBRANCH   2  28
BRANCH   6  30
ATOM     30  O   UNL     1      -1.237  15.692  21.699  0.00  0.00    +0.000 OA
ATOM     31  C   UNL     1      -1.584  16.030  20.365  0.00  0.00    +0.000 C 
ENDBRANCH   6  30
BRANCH  10  32
ATOM     32  S   UNL     1       2.282  16.238  19.239  0.00  0.00    +0.000 S 
ATOM     33  C   UNL     1       3.967  16.760  18.797  0.00  0.00    +0.000 C 
ENDBRANCH  10  32
TORSDOF 6
ENDMDL
MODEL 8
REMARK VINA RESULT:      -5.9      6.941     10.626
REMARK  Name = 
REMARK  9 active torsions:
REMARK  status: ('A' for Active; 'I' for Inactive)
REMARK    1  A    between atoms: C_1  and  O_2
REMARK    2  A    between atoms: O_2  and  C_3
REMARK    3  A    between atoms: C_4  and  O_5
REMARK    4  A    between atoms: C_9  and  O_10
REMARK    5  A    between atoms: O_10  and  C_11
REMARK    6  A    between atoms: C_15  and  S_16
REMARK    7  A    between atoms: S_16  and  C_17
REMARK    8  A    between atoms: C_22  and  N_23
REMARK    9  A    between atoms: C_24  and  C_26
REMARK                            x       y       z     vdW  Elec       q    Type
REMARK                         _______ _______ _______ _____ _____    ______ ____
ROOT
ATOM      1  C   UNL     1      10.414  13.142  19.123  0.00  0.00    +0.000 A 
ATOM      2  C   UNL     1      10.340  14.160  18.170  0.00  0.00    +0.000 A 
ATOM      3  C   UNL     1       9.785  15.392  18.471  0.00  0.00    +0.000 A 
ATOM      4  C   UNL     1       9.181  15.647  19.722  0.00  0.00    +0.000 A 
ATOM      5  C   UNL     1       9.158  14.592  20.723  0.00  0.00    +0.000 A 
ATOM      6  C   UNL     1       9.782  13.331  20.383  0.00  0.00    +0.000 A 
ATOM      7  C   UNL     1       8.301  14.685  22.050  0.00  0.00    +0.000 A 
ATOM      8  C   UNL     1       8.932  14.387  23.205  0.00  0.00    +0.000 A 
ATOM      9  C   UNL     1       8.274  14.478  24.515  0.00  0.00    +0.000 A 
ATOM     10  C   UNL     1       7.239  13.681  24.781  0.00  0.00    +0.000 A 
ATOM     11  C   UNL     1       5.923  14.231  24.319  0.00  0.00    +0.000 A 
ATOM     12  O   UNL     1       4.896  14.103  24.995  0.00  0.00    +0.000 OA
ATOM     13  C   UNL     1       5.869  14.920  22.989  0.00  0.00    +0.000 A 
ATOM     14  C   UNL     1       6.825  15.096  22.041  0.00  0.00    +0.000 A 
ATOM     15  C   UNL     1       6.466  15.803  20.761  0.00  0.00    +0.000 C 
ATOM     16  C   UNL     1       7.100  17.175  20.534  0.00  0.00    +0.000 C 
ATOM     17  C   UNL     1       8.420  17.002  19.731  0.00  0.00    +0.000 C 
ENDROOT
BRANCH  15  18
ATOM     18  N   UNL     1       5.634  15.155  19.779  0.00  0.00    +0.000 N 
ATOM     19  C   UNL     1       4.415  15.500  19.283  0.00  0.00    +0.000 C 
ATOM     20  O   UNL     1       3.655  16.277  19.858  0.00  0.00    +0.000 OA
ATOM     21  H   UNL     1       6.163  14.572  19.118  0.00  0.00    +0.000 HD
BRANCH  19  22
ATOM     22  C   UNL     1       4.166  14.797  17.926  0.00  0.00    +0.000 C 
ATOM     23  F   UNL     1       5.342  14.265  17.450  0.00  0.00    +0.000 F 
ATOM     24  F   UNL     1       3.304  13.749  18.013  0.00  0.00    +0.000 F 
ATOM     25  F   UNL     1       3.711  15.630  16.956  0.00  0.00    +0.000 F 
ENDBRANCH  19  22
ENDBRANCH  15  18
BRANCH   1  27
ATOM     26  C   UNL     1      12.331  11.749  19.251  0.00  0.00    +0.000 C 
ATOM     27  O   UNL     1      10.985  11.938  18.786  0.00  0.00    +0.000 OA
ENDBRANCH   1  27
BRANCH   2  28
ATOM     28  O   UNL     1      10.726  13.986  16.866  0.00  0.00    +0.000 OA
ATOM     29  H   UNL     1      10.614  13.041  16.661  0.00  0.00    +0.000 HD
ENDBRANCH   2  28
BRANCH   6  30
ATOM     30  O   UNL     1       9.620  12.346  21.331  0.00  0.00    +0.000 OA
ATOM     31  C   UNL     1       8.958  11.133  21.008  0.00  0.00    +0.000 C 
ENDBRANCH   6  30
BRANCH  10  32
ATOM     32  S   UNL     1       7.325  11.963  24.981  0.00  0.00    +0.000 S 
ATOM     33  C   UNL     1       7.083  11.881  26.782  0.00  0.00    +0.000 C 
ENDBRANCH  10  32
TORSDOF 6
ENDMDL
MODEL 9
REMARK VINA RESULT:      -5.8      3.732      6.582
REMARK  Name = 
REMARK  9 active torsions:
REMARK  status: ('A' for Active; 'I' for Inactive)
REMARK    1  A    between atoms: C_1  and  O_2
REMARK    2  A    between atoms: O_2  and  C_3
REMARK    3  A    between atoms: C_4  and  O_5
REMARK    4  A    between atoms: C_9  and  O_10
REMARK    5  A    between atoms: O_10  and  C_11
REMARK    6  A    between atoms: C_15  and  S_16
REMARK    7  A    between atoms: S_16  and  C_17
REMARK    8  A    between atoms: C_22  and  N_23
REMARK    9  A    between atoms: C_24  and  C_26
REMARK                            x       y       z     vdW  Elec       q    Type
REMARK                         _______ _______ _______ _____ _____    ______ ____
ROOT
ATOM      1  C   UNL     1      -4.446  11.797  18.106  0.00  0.00    +0.000 A 
ATOM      2  C   UNL     1      -3.187  11.623  17.527  0.00  0.00    +0.000 A 
ATOM      3  C   UNL     1      -2.026  11.798  18.259  0.00  0.00    +0.000 A 
ATOM      4  C   UNL     1      -2.053  12.253  19.596  0.00  0.00    +0.000 A 
ATOM      5  C   UNL     1      -3.338  12.528  20.221  0.00  0.00    +0.000 A 
ATOM      6  C   UNL     1      -4.530  12.298  19.434  0.00  0.00    +0.000 A 
ATOM      7  C   UNL     1      -3.475  13.269  21.613  0.00  0.00    +0.000 A 
ATOM      8  C   UNL     1      -4.285  12.698  22.529  0.00  0.00    +0.000 A 
ATOM      9  C   UNL     1      -4.469  13.249  23.879  0.00  0.00    +0.000 A 
ATOM     10  C   UNL     1      -5.022  14.454  24.021  0.00  0.00    +0.000 A 
ATOM     11  C   UNL     1      -4.039  15.582  23.925  0.00  0.00    +0.000 A 
ATOM     12  O   UNL     1      -4.119  16.574  24.658  0.00  0.00    +0.000 OA
ATOM     13  C   UNL     1      -2.959  15.497  22.887  0.00  0.00    +0.000 A 
ATOM     14  C   UNL     1      -2.727  14.569  21.923  0.00  0.00    +0.000 A 
ATOM     15  C   UNL     1      -1.572  14.770  20.979  0.00  0.00    +0.000 C 
ATOM     16  C   UNL     1      -0.408  13.787  21.100  0.00  0.00    +0.000 C 
ATOM     17  C   UNL     1      -0.632  12.603  20.118  0.00  0.00    +0.000 C 
ENDROOT
BRANCH  15  18
ATOM     18  N   UNL     1      -1.629  15.791  19.962  0.00  0.00    +0.000 N 
ATOM     19  C   UNL     1      -1.189  17.078  19.973  0.00  0.00    +0.000 C 
ATOM     20  O   UNL     1      -0.957  17.696  21.010  0.00  0.00    +0.000 OA
ATOM     21  H   UNL     1      -1.677  15.413  19.007  0.00  0.00    +0.000 HD
BRANCH  19  22
ATOM     22  C   UNL     1      -1.020  17.602  18.526  0.00  0.00    +0.000 C 
ATOM     23  F   UNL     1      -2.197  18.168  18.091  0.00  0.00    +0.000 F 
ATOM     24  F   UNL     1      -0.084  18.581  18.414  0.00  0.00    +0.000 F 
ATOM     25  F   UNL     1      -0.717  16.632  17.627  0.00  0.00    +0.000 F 
ENDBRANCH  19  22
ENDBRANCH  15  18
BRANCH   1  27
ATOM     26  C   UNL     1      -6.197  12.800  16.856  0.00  0.00    +0.000 C 
ATOM     27  O   UNL     1      -5.574  11.601  17.346  0.00  0.00    +0.000 OA
ENDBRANCH   1  27
BRANCH   2  28
ATOM     28  O   UNL     1      -3.012  11.357  16.193  0.00  0.00    +0.000 OA
ATOM     29  H   UNL     1      -3.014  10.388  16.095  0.00  0.00    +0.000 HD
ENDBRANCH   2  28
BRANCH   6  30
ATOM     30  O   UNL     1      -5.699  12.689  20.049  0.00  0.00    +0.000 OA
ATOM     31  C   UNL     1      -6.687  11.733  20.398  0.00  0.00    +0.000 C 
ENDBRANCH   6  30
BRANCH  10  32
ATOM     32  S   UNL     1      -6.673  14.845  23.673  0.00  0.00    +0.000 S 
ATOM     33  C   UNL     1      -7.446  13.293  24.224  0.00  0.00    +0.000 C 
ENDBRANCH  10  32
TORSDOF 6
ENDMDL
