MODEL 1
REMARK VINA RESULT:      -8.5      0.000      0.000
REMARK  Name = 
REMARK  4 active torsions:
REMARK  status: ('A' for Active; 'I' for Inactive)
REMARK    1  A    between atoms: C_2  and  C_12
REMARK    2  A    between atoms: C_7  and  C_8
REMARK    3  A    between atoms: C_15  and  S_16
REMARK    4  A    between atoms: S_16  and  C_19
REMARK                            x       y       z     vdW  Elec       q    Type
REMARK                         _______ _______ _______ _____ _____    ______ ____
ROOT
ATOM      1  C   UNL     1       2.050   7.503  19.514  0.00  0.00    +0.000 A 
ATOM      2  C   UNL     1       2.765   7.441  18.309  0.00  0.00    +0.000 A 
ATOM      3  C   UNL     1       3.461   6.278  17.960  0.00  0.00    +0.000 A 
ATOM      4  C   UNL     1       3.422   5.167  18.808  0.00  0.00    +0.000 A 
ATOM      5  C   UNL     1       2.700   5.215  20.007  0.00  0.00    +0.000 A 
ATOM      6  C   UNL     1       2.007   6.380  20.354  0.00  0.00    +0.000 A 
ENDROOT
BRANCH   1   8
ATOM      7  O   UNL     1       1.310   9.665  19.027  0.00  0.00    +0.000 OA
ATOM      8  C   UNL     1       1.348   8.772  19.866  0.00  0.00    +0.000 C 
ATOM      9  N   UNL     1       0.872   8.826  21.157  0.00  0.00    +0.000 N 
ATOM     10  C   UNL     1       0.220   9.888  21.734  0.00  0.00    +0.000 A 
ATOM     11  N   UNL     1       0.074   9.994  23.036  0.00  0.00    +0.000 NA
ATOM     12  N   UNL     1      -0.547  11.176  23.392  0.00  0.00    +0.000 NA
ATOM     13  C   UNL     1      -0.904  11.874  22.335  0.00  0.00    +0.000 A 
ATOM     14  S   UNL     1      -0.524  11.134  20.839  0.00  0.00    +0.000 S 
ATOM     15  H   UNL     1       1.181   8.140  21.832  0.00  0.00    +0.000 HD
BRANCH  13  16
ATOM     16  C   UNL     1      -1.583  13.240  22.430  0.00  0.00    +0.000 C 
ATOM     17  C   UNL     1      -1.378  14.070  23.682  0.00  0.00    +0.000 C 
ATOM     18  C   UNL     1      -0.708  14.478  22.416  0.00  0.00    +0.000 C 
ENDBRANCH  13  16
ENDBRANCH   1   8
BRANCH   4  19
ATOM     19  S   UNL     1       4.399   3.730  18.409  0.00  0.00    +0.000 S 
ATOM     20  O   UNL     1       5.302   3.512  19.524  0.00  0.00    +0.000 OA
ATOM     21  O   UNL     1       3.474   2.683  18.006  0.00  0.00    +0.000 OA
BRANCH  19  22
ATOM     22  C   UNL     1       5.390   4.138  16.989  0.00  0.00    +0.000 A 
ATOM     23  C   UNL     1       4.854   3.993  15.706  0.00  0.00    +0.000 A 
ATOM     24  C   UNL     1       5.630   4.331  14.596  0.00  0.00    +0.000 A 
ATOM     25  C   UNL     1       6.923   4.828  14.770  0.00  0.00    +0.000 A 
ATOM     26  C   UNL     1       7.441   5.001  16.055  0.00  0.00    +0.000 A 
ATOM     27  C   UNL     1       6.674   4.661  17.170  0.00  0.00    +0.000 A 
ENDBRANCH  19  22
ENDBRANCH   4  19
TORSDOF 4
ENDMDL
MODEL 2
REMARK VINA RESULT:      -8.5      0.223      1.364
REMARK  Name = 
REMARK  4 active torsions:
REMARK  status: ('A' for Active; 'I' for Inactive)
REMARK    1  A    between atoms: C_2  and  C_12
REMARK    2  A    between atoms: C_7  and  C_8
REMARK    3  A    between atoms: C_15  and  S_16
REMARK    4  A    between atoms: S_16  and  C_19
REMARK                            x       y       z     vdW  Elec       q    Type
REMARK                         _______ _______ _______ _____ _____    ______ ____
ROOT
ATOM      1  C   UNL     1       2.094   7.681  19.420  0.00  0.00    +0.000 A 
ATOM      2  C   UNL     1       2.080   6.569  20.274  0.00  0.00    +0.000 A 
ATOM      3  C   UNL     1       2.797   5.414  19.942  0.00  0.00    +0.000 A 
ATOM      4  C   UNL     1       3.549   5.382  18.764  0.00  0.00    +0.000 A 
ATOM      5  C   UNL     1       3.580   6.492  17.912  0.00  0.00    +0.000 A 
ATOM      6  C   UNL     1       2.860   7.644  18.245  0.00  0.00    +0.000 A 
ENDROOT
BRANCH   1   8
ATOM      7  O   UNL     1       1.104   9.742  18.940  0.00  0.00    +0.000 OA
ATOM      8  C   UNL     1       1.290   8.882  19.793  0.00  0.00    +0.000 C 
ATOM      9  N   UNL     1       0.897   8.923  21.112  0.00  0.00    +0.000 N 
ATOM     10  C   UNL     1       0.178   9.929  21.710  0.00  0.00    +0.000 A 
ATOM     11  N   UNL     1       0.109  10.055  23.017  0.00  0.00    +0.000 NA
ATOM     12  N   UNL     1      -0.606  11.177  23.391  0.00  0.00    +0.000 NA
ATOM     13  C   UNL     1      -1.103  11.806  22.346  0.00  0.00    +0.000 A 
ATOM     14  S   UNL     1      -0.748  11.066  20.843  0.00  0.00    +0.000 S 
ATOM     15  H   UNL     1       1.320   8.291  21.779  0.00  0.00    +0.000 HD
BRANCH  13  16
ATOM     16  C   UNL     1      -1.912  13.097  22.459  0.00  0.00    +0.000 C 
ATOM     17  C   UNL     1      -1.602  14.055  23.593  0.00  0.00    +0.000 C 
ATOM     18  C   UNL     1      -1.202  14.413  22.203  0.00  0.00    +0.000 C 
ENDBRANCH  13  16
ENDBRANCH   1   8
BRANCH   4  19
ATOM     19  S   UNL     1       4.371   3.870  18.294  0.00  0.00    +0.000 S 
ATOM     20  O   UNL     1       5.269   3.524  19.380  0.00  0.00    +0.000 OA
ATOM     21  O   UNL     1       3.338   2.936  17.877  0.00  0.00    +0.000 OA
BRANCH  19  22
ATOM     22  C   UNL     1       5.370   4.230  16.866  0.00  0.00    +0.000 A 
ATOM     23  C   UNL     1       6.696   4.640  17.034  0.00  0.00    +0.000 A 
ATOM     24  C   UNL     1       7.480   4.904  15.911  0.00  0.00    +0.000 A 
ATOM     25  C   UNL     1       6.948   4.740  14.631  0.00  0.00    +0.000 A 
ATOM     26  C   UNL     1       5.633   4.298  14.469  0.00  0.00    +0.000 A 
ATOM     27  C   UNL     1       4.841   4.037  15.587  0.00  0.00    +0.000 A 
ENDBRANCH  19  22
ENDBRANCH   4  19
TORSDOF 4
ENDMDL
MODEL 3
REMARK VINA RESULT:      -8.5      0.616      1.328
REMARK  Name = 
REMARK  4 active torsions:
REMARK  status: ('A' for Active; 'I' for Inactive)
REMARK    1  A    between atoms: C_2  and  C_12
REMARK    2  A    between atoms: C_7  and  C_8
REMARK    3  A    between atoms: C_15  and  S_16
REMARK    4  A    between atoms: S_16  and  C_19
REMARK                            x       y       z     vdW  Elec       q    Type
REMARK                         _______ _______ _______ _____ _____    ______ ____
ROOT
ATOM      1  C   UNL     1       2.143   7.702  19.314  0.00  0.00    +0.000 A 
ATOM      2  C   UNL     1       2.151   6.617  20.204  0.00  0.00    +0.000 A 
ATOM      3  C   UNL     1       2.906   5.475  19.917  0.00  0.00    +0.000 A 
ATOM      4  C   UNL     1       3.672   5.426  18.748  0.00  0.00    +0.000 A 
ATOM      5  C   UNL     1       3.680   6.509  17.861  0.00  0.00    +0.000 A 
ATOM      6  C   UNL     1       2.923   7.649  18.149  0.00  0.00    +0.000 A 
ENDROOT
BRANCH   1   8
ATOM      7  O   UNL     1       1.053   9.687  18.742  0.00  0.00    +0.000 OA
ATOM      8  C   UNL     1       1.300   8.890  19.639  0.00  0.00    +0.000 C 
ATOM      9  N   UNL     1       0.946   8.996  20.965  0.00  0.00    +0.000 N 
ATOM     10  C   UNL     1       0.203  10.008  21.524  0.00  0.00    +0.000 A 
ATOM     11  N   UNL     1       0.167  10.212  22.822  0.00  0.00    +0.000 NA
ATOM     12  N   UNL     1      -0.583  11.326  23.150  0.00  0.00    +0.000 NA
ATOM     13  C   UNL     1      -1.137  11.867  22.085  0.00  0.00    +0.000 A 
ATOM     14  S   UNL     1      -0.796  11.051  20.619  0.00  0.00    +0.000 S 
ATOM     15  H   UNL     1       1.414   8.425  21.655  0.00  0.00    +0.000 HD
BRANCH  13  16
ATOM     16  C   UNL     1      -1.996  13.130  22.145  0.00  0.00    +0.000 C 
ATOM     17  C   UNL     1      -2.985  13.392  21.026  0.00  0.00    +0.000 C 
ATOM     18  C   UNL     1      -3.489  12.971  22.363  0.00  0.00    +0.000 C 
ENDBRANCH  13  16
ENDBRANCH   1   8
BRANCH   4  19
ATOM     19  S   UNL     1       4.542   3.925  18.337  0.00  0.00    +0.000 S 
ATOM     20  O   UNL     1       5.496   3.685  19.404  0.00  0.00    +0.000 OA
ATOM     21  O   UNL     1       3.537   2.923  18.020  0.00  0.00    +0.000 OA
BRANCH  19  22
ATOM     22  C   UNL     1       5.468   4.237  16.850  0.00  0.00    +0.000 A 
ATOM     23  C   UNL     1       4.852   4.080  15.605  0.00  0.00    +0.000 A 
ATOM     24  C   UNL     1       5.578   4.343  14.442  0.00  0.00    +0.000 A 
ATOM     25  C   UNL     1       6.902   4.779  14.527  0.00  0.00    +0.000 A 
ATOM     26  C   UNL     1       7.501   4.964  15.774  0.00  0.00    +0.000 A 
ATOM     27  C   UNL     1       6.785   4.699  16.940  0.00  0.00    +0.000 A 
ENDBRANCH  19  22
ENDBRANCH   4  19
TORSDOF 4
ENDMDL
MODEL 4
REMARK VINA RESULT:      -8.4      0.639      1.326
REMARK  Name = 
REMARK  4 active torsions:
REMARK  status: ('A' for Active; 'I' for Inactive)
REMARK    1  A    between atoms: C_2  and  C_12
REMARK    2  A    between atoms: C_7  and  C_8
REMARK    3  A    between atoms: C_15  and  S_16
REMARK    4  A    between atoms: S_16  and  C_19
REMARK                            x       y       z     vdW  Elec       q    Type
REMARK                         _______ _______ _______ _____ _____    ______ ____
ROOT
ATOM      1  C   UNL     1       2.135   7.640  19.335  0.00  0.00    +0.000 A 
ATOM      2  C   UNL     1       2.931   7.633  18.180  0.00  0.00    +0.000 A 
ATOM      3  C   UNL     1       3.725   6.522  17.876  0.00  0.00    +0.000 A 
ATOM      4  C   UNL     1       3.706   5.406  18.718  0.00  0.00    +0.000 A 
ATOM      5  C   UNL     1       2.905   5.399  19.866  0.00  0.00    +0.000 A 
ATOM      6  C   UNL     1       2.113   6.512  20.169  0.00  0.00    +0.000 A 
ENDROOT
BRANCH   1   8
ATOM      7  O   UNL     1       1.127   9.662  18.739  0.00  0.00    +0.000 OA
ATOM      8  C   UNL     1       1.327   8.857  19.642  0.00  0.00    +0.000 C 
ATOM      9  N   UNL     1       0.949   8.977  20.959  0.00  0.00    +0.000 N 
ATOM     10  C   UNL     1       0.230  10.015  21.502  0.00  0.00    +0.000 A 
ATOM     11  N   UNL     1       0.174  10.222  22.799  0.00  0.00    +0.000 NA
ATOM     12  N   UNL     1      -0.544  11.361  23.110  0.00  0.00    +0.000 NA
ATOM     13  C   UNL     1      -1.055  11.921  22.034  0.00  0.00    +0.000 A 
ATOM     14  S   UNL     1      -0.712  11.091  20.576  0.00  0.00    +0.000 S 
ATOM     15  H   UNL     1       1.382   8.391  21.659  0.00  0.00    +0.000 HD
BRANCH  13  16
ATOM     16  C   UNL     1      -1.871  13.212  22.075  0.00  0.00    +0.000 C 
ATOM     17  C   UNL     1      -2.885  13.469  20.977  0.00  0.00    +0.000 C 
ATOM     18  C   UNL     1      -3.361  13.112  22.343  0.00  0.00    +0.000 C 
ENDBRANCH  13  16
ENDBRANCH   1   8
BRANCH   4  19
ATOM     19  S   UNL     1       4.803   4.041  18.383  0.00  0.00    +0.000 S 
ATOM     20  O   UNL     1       5.834   4.069  19.403  0.00  0.00    +0.000 OA
ATOM     21  O   UNL     1       3.973   2.858  18.219  0.00  0.00    +0.000 OA
BRANCH  19  22
ATOM     22  C   UNL     1       5.587   4.360  16.818  0.00  0.00    +0.000 A 
ATOM     23  C   UNL     1       6.909   4.815  16.786  0.00  0.00    +0.000 A 
ATOM     24  C   UNL     1       7.525   5.048  15.555  0.00  0.00    +0.000 A 
ATOM     25  C   UNL     1       6.830   4.808  14.368  0.00  0.00    +0.000 A 
ATOM     26  C   UNL     1       5.521   4.323  14.407  0.00  0.00    +0.000 A 
ATOM     27  C   UNL     1       4.897   4.093  15.632  0.00  0.00    +0.000 A 
ENDBRANCH  19  22
ENDBRANCH   4  19
TORSDOF 4
ENDMDL
MODEL 5
REMARK VINA RESULT:      -8.3      0.615      1.149
REMARK  Name = 
REMARK  4 active torsions:
REMARK  status: ('A' for Active; 'I' for Inactive)
REMARK    1  A    between atoms: C_2  and  C_12
REMARK    2  A    between atoms: C_7  and  C_8
REMARK    3  A    between atoms: C_15  and  S_16
REMARK    4  A    between atoms: S_16  and  C_19
REMARK                            x       y       z     vdW  Elec       q    Type
REMARK                         _______ _______ _______ _____ _____    ______ ____
ROOT
ATOM      1  C   UNL     1       1.848   7.934  19.525  0.00  0.00    +0.000 A 
ATOM      2  C   UNL     1       1.794   6.858  20.424  0.00  0.00    +0.000 A 
ATOM      3  C   UNL     1       2.363   5.625  20.085  0.00  0.00    +0.000 A 
ATOM      4  C   UNL     1       3.007   5.476  18.853  0.00  0.00    +0.000 A 
ATOM      5  C   UNL     1       3.077   6.547  17.955  0.00  0.00    +0.000 A 
ATOM      6  C   UNL     1       2.505   7.778  18.296  0.00  0.00    +0.000 A 
ENDROOT
BRANCH   1   8
ATOM      7  O   UNL     1       1.275  10.163  19.128  0.00  0.00    +0.000 OA
ATOM      8  C   UNL     1       1.201   9.222  19.910  0.00  0.00    +0.000 C 
ATOM      9  N   UNL     1       0.642   9.231  21.168  0.00  0.00    +0.000 N 
ATOM     10  C   UNL     1       0.017  10.297  21.767  0.00  0.00    +0.000 A 
ATOM     11  N   UNL     1      -0.211  10.336  23.061  0.00  0.00    +0.000 NA
ATOM     12  N   UNL     1      -0.783  11.533  23.450  0.00  0.00    +0.000 NA
ATOM     13  C   UNL     1      -1.024  12.313  22.417  0.00  0.00    +0.000 A 
ATOM     14  S   UNL     1      -0.587  11.638  20.906  0.00  0.00    +0.000 S 
ATOM     15  H   UNL     1       0.862   8.488  21.817  0.00  0.00    +0.000 HD
BRANCH  13  16
ATOM     16  C   UNL     1      -1.625  13.712  22.553  0.00  0.00    +0.000 C 
ATOM     17  C   UNL     1      -1.471  14.446  23.871  0.00  0.00    +0.000 C 
ATOM     18  C   UNL     1      -0.678  14.888  22.690  0.00  0.00    +0.000 C 
ENDBRANCH  13  16
ENDBRANCH   1   8
BRANCH   4  19
ATOM     19  S   UNL     1       3.632   3.872  18.384  0.00  0.00    +0.000 S 
ATOM     20  O   UNL     1       4.105   3.233  19.598  0.00  0.00    +0.000 OA
ATOM     21  O   UNL     1       2.604   3.234  17.578  0.00  0.00    +0.000 OA
BRANCH  19  22
ATOM     22  C   UNL     1       5.042   4.138  17.333  0.00  0.00    +0.000 A 
ATOM     23  C   UNL     1       4.904   4.023  15.946  0.00  0.00    +0.000 A 
ATOM     24  C   UNL     1       6.009   4.250  15.125  0.00  0.00    +0.000 A 
ATOM     25  C   UNL     1       7.237   4.607  15.687  0.00  0.00    +0.000 A 
ATOM     26  C   UNL     1       7.361   4.751  17.070  0.00  0.00    +0.000 A 
ATOM     27  C   UNL     1       6.262   4.522  17.898  0.00  0.00    +0.000 A 
ENDBRANCH  19  22
ENDBRANCH   4  19
TORSDOF 4
ENDMDL
MODEL 6
REMARK VINA RESULT:      -8.0      1.322      1.951
REMARK  Name = 
REMARK  4 active torsions:
REMARK  status: ('A' for Active; 'I' for Inactive)
REMARK    1  A    between atoms: C_2  and  C_12
REMARK    2  A    between atoms: C_7  and  C_8
REMARK    3  A    between atoms: C_15  and  S_16
REMARK    4  A    between atoms: S_16  and  C_19
REMARK                            x       y       z     vdW  Elec       q    Type
REMARK                         _______ _______ _______ _____ _____    ______ ____
ROOT
ATOM      1  C   UNL     1       1.612   6.874  20.546  0.00  0.00    +0.000 A 
ATOM      2  C   UNL     1       1.488   5.569  21.044  0.00  0.00    +0.000 A 
ATOM      3  C   UNL     1       2.261   4.532  20.509  0.00  0.00    +0.000 A 
ATOM      4  C   UNL     1       3.176   4.807  19.488  0.00  0.00    +0.000 A 
ATOM      5  C   UNL     1       3.315   6.110  18.993  0.00  0.00    +0.000 A 
ATOM      6  C   UNL     1       2.540   7.143  19.529  0.00  0.00    +0.000 A 
ENDROOT
BRANCH   1   8
ATOM      7  O   UNL     1      -0.381   7.641  21.494  0.00  0.00    +0.000 OA
ATOM      8  C   UNL     1       0.746   7.946  21.120  0.00  0.00    +0.000 C 
ATOM      9  N   UNL     1       1.301   9.205  21.098  0.00  0.00    +0.000 N 
ATOM     10  C   UNL     1       0.700  10.360  21.536  0.00  0.00    +0.000 A 
ATOM     11  N   UNL     1       1.150  11.550  21.204  0.00  0.00    +0.000 NA
ATOM     12  N   UNL     1       0.348  12.562  21.698  0.00  0.00    +0.000 NA
ATOM     13  C   UNL     1      -0.629  12.087  22.441  0.00  0.00    +0.000 A 
ATOM     14  S   UNL     1      -0.630  10.383  22.601  0.00  0.00    +0.000 S 
ATOM     15  H   UNL     1       2.125   9.378  20.539  0.00  0.00    +0.000 HD
BRANCH  13  16
ATOM     16  C   UNL     1      -1.688  12.977  23.092  0.00  0.00    +0.000 C 
ATOM     17  C   UNL     1      -1.934  14.357  22.515  0.00  0.00    +0.000 C 
ATOM     18  C   UNL     1      -2.947  13.286  22.305  0.00  0.00    +0.000 C 
ENDBRANCH  13  16
ENDBRANCH   1   8
BRANCH   4  19
ATOM     19  S   UNL     1       4.076   3.463  18.737  0.00  0.00    +0.000 S 
ATOM     20  O   UNL     1       4.898   2.874  19.778  0.00  0.00    +0.000 OA
ATOM     21  O   UNL     1       3.106   2.646  18.026  0.00  0.00    +0.000 OA
BRANCH  19  22
ATOM     22  C   UNL     1       5.170   4.168  17.523  0.00  0.00    +0.000 A 
ATOM     23  C   UNL     1       6.449   4.583  17.903  0.00  0.00    +0.000 A 
ATOM     24  C   UNL     1       7.309   5.120  16.943  0.00  0.00    +0.000 A 
ATOM     25  C   UNL     1       6.898   5.221  15.613  0.00  0.00    +0.000 A 
ATOM     26  C   UNL     1       5.630   4.775  15.235  0.00  0.00    +0.000 A 
ATOM     27  C   UNL     1       4.763   4.242  16.188  0.00  0.00    +0.000 A 
ENDBRANCH  19  22
ENDBRANCH   4  19
TORSDOF 4
ENDMDL
MODEL 7
REMARK VINA RESULT:      -7.9      1.477      2.107
REMARK  Name = 
REMARK  4 active torsions:
REMARK  status: ('A' for Active; 'I' for Inactive)
REMARK    1  A    between atoms: C_2  and  C_12
REMARK    2  A    between atoms: C_7  and  C_8
REMARK    3  A    between atoms: C_15  and  S_16
REMARK    4  A    between atoms: S_16  and  C_19
REMARK                            x       y       z     vdW  Elec       q    Type
REMARK                         _______ _______ _______ _____ _____    ______ ____
ROOT
ATOM      1  C   UNL     1       1.845   7.306  20.116  0.00  0.00    +0.000 A 
ATOM      2  C   UNL     1       1.837   6.068  20.777  0.00  0.00    +0.000 A 
ATOM      3  C   UNL     1       2.436   4.949  20.188  0.00  0.00    +0.000 A 
ATOM      4  C   UNL     1       3.064   5.075  18.945  0.00  0.00    +0.000 A 
ATOM      5  C   UNL     1       3.088   6.309  18.283  0.00  0.00    +0.000 A 
ATOM      6  C   UNL     1       2.486   7.425  18.874  0.00  0.00    +0.000 A 
ENDROOT
BRANCH   1   8
ATOM      7  O   UNL     1       1.233   8.571  21.983  0.00  0.00    +0.000 OA
ATOM      8  C   UNL     1       1.167   8.467  20.763  0.00  0.00    +0.000 C 
ATOM      9  N   UNL     1       0.462   9.274  19.899  0.00  0.00    +0.000 N 
ATOM     10  C   UNL     1      -0.271  10.384  20.246  0.00  0.00    +0.000 A 
ATOM     11  N   UNL     1      -1.158  10.916  19.434  0.00  0.00    +0.000 NA
ATOM     12  N   UNL     1      -1.823  11.976  20.020  0.00  0.00    +0.000 NA
ATOM     13  C   UNL     1      -1.354  12.238  21.222  0.00  0.00    +0.000 A 
ATOM     14  S   UNL     1      -0.065  11.225  21.713  0.00  0.00    +0.000 S 
ATOM     15  H   UNL     1       0.268   8.952  18.961  0.00  0.00    +0.000 HD
BRANCH  13  16
ATOM     16  C   UNL     1      -1.923  13.341  22.115  0.00  0.00    +0.000 C 
ATOM     17  C   UNL     1      -3.378  13.735  21.949  0.00  0.00    +0.000 C 
ATOM     18  C   UNL     1      -2.963  12.959  23.151  0.00  0.00    +0.000 C 
ENDBRANCH  13  16
ENDBRANCH   1   8
BRANCH   4  19
ATOM     19  S   UNL     1       3.727   3.621  18.151  0.00  0.00    +0.000 S 
ATOM     20  O   UNL     1       4.283   2.787  19.200  0.00  0.00    +0.000 OA
ATOM     21  O   UNL     1       2.687   3.100  17.280  0.00  0.00    +0.000 OA
BRANCH  19  22
ATOM     22  C   UNL     1       5.074   4.150  17.115  0.00  0.00    +0.000 A 
ATOM     23  C   UNL     1       6.309   4.462  17.690  0.00  0.00    +0.000 A 
ATOM     24  C   UNL     1       7.367   4.860  16.871  0.00  0.00    +0.000 A 
ATOM     25  C   UNL     1       7.194   4.923  15.487  0.00  0.00    +0.000 A 
ATOM     26  C   UNL     1       5.968   4.579  14.916  0.00  0.00    +0.000 A 
ATOM     27  C   UNL     1       4.904   4.185  15.728  0.00  0.00    +0.000 A 
ENDBRANCH  19  22
ENDBRANCH   4  19
TORSDOF 4
ENDMDL
MODEL 8
REMARK VINA RESULT:      -7.9      1.528      1.941
REMARK  Name = 
REMARK  4 active torsions:
REMARK  status: ('A' for Active; 'I' for Inactive)
REMARK    1  A    between atoms: C_2  and  C_12
REMARK    2  A    between atoms: C_7  and  C_8
REMARK    3  A    between atoms: C_15  and  S_16
REMARK    4  A    between atoms: S_16  and  C_19
REMARK                            x       y       z     vdW  Elec       q    Type
REMARK                         _______ _______ _______ _____ _____    ______ ____
ROOT
ATOM      1  C   UNL     1       1.906   7.196  20.141  0.00  0.00    +0.000 A 
ATOM      2  C   UNL     1       2.631   7.270  18.943  0.00  0.00    +0.000 A 
ATOM      3  C   UNL     1       3.292   6.142  18.447  0.00  0.00    +0.000 A 
ATOM      4  C   UNL     1       3.209   4.930  19.139  0.00  0.00    +0.000 A 
ATOM      5  C   UNL     1       2.477   4.843  20.330  0.00  0.00    +0.000 A 
ATOM      6  C   UNL     1       1.819   5.974  20.825  0.00  0.00    +0.000 A 
ENDROOT
BRANCH   1   8
ATOM      7  O   UNL     1       1.205   8.605  21.868  0.00  0.00    +0.000 OA
ATOM      8  C   UNL     1       1.243   8.430  20.655  0.00  0.00    +0.000 C 
ATOM      9  N   UNL     1       0.667   9.219  19.685  0.00  0.00    +0.000 N 
ATOM     10  C   UNL     1      -0.027  10.385  19.898  0.00  0.00    +0.000 A 
ATOM     11  N   UNL     1      -0.805  10.913  18.978  0.00  0.00    +0.000 NA
ATOM     12  N   UNL     1      -1.456  12.041  19.438  0.00  0.00    +0.000 NA
ATOM     13  C   UNL     1      -1.083  12.352  20.662  0.00  0.00    +0.000 A 
ATOM     14  S   UNL     1       0.095  11.304  21.328  0.00  0.00    +0.000 S 
ATOM     15  H   UNL     1       0.540   8.850  18.752  0.00  0.00    +0.000 HD
BRANCH  13  16
ATOM     16  C   UNL     1      -1.664  13.536  21.434  0.00  0.00    +0.000 C 
ATOM     17  C   UNL     1      -3.117  13.909  21.211  0.00  0.00    +0.000 C 
ATOM     18  C   UNL     1      -2.717  13.257  22.489  0.00  0.00    +0.000 C 
ENDBRANCH  13  16
ENDBRANCH   1   8
BRANCH   4  19
ATOM     19  S   UNL     1       4.144   3.526  18.559  0.00  0.00    +0.000 S 
ATOM     20  O   UNL     1       4.963   3.078  19.670  0.00  0.00    +0.000 OA
ATOM     21  O   UNL     1       3.199   2.613  17.936  0.00  0.00    +0.000 OA
BRANCH  19  22
ATOM     22  C   UNL     1       5.240   4.108  17.284  0.00  0.00    +0.000 A 
ATOM     23  C   UNL     1       6.518   4.560  17.623  0.00  0.00    +0.000 A 
ATOM     24  C   UNL     1       7.380   4.999  16.617  0.00  0.00    +0.000 A 
ATOM     25  C   UNL     1       6.972   4.966  15.282  0.00  0.00    +0.000 A 
ATOM     26  C   UNL     1       5.706   4.483  14.947  0.00  0.00    +0.000 A 
ATOM     27  C   UNL     1       4.837   4.047  15.947  0.00  0.00    +0.000 A 
ENDBRANCH  19  22
ENDBRANCH   4  19
TORSDOF 4
ENDMDL
MODEL 9
REMARK VINA RESULT:      -7.8      2.127      2.837
REMARK  Name = 
REMARK  4 active torsions:
REMARK  status: ('A' for Active; 'I' for Inactive)
REMARK    1  A    between atoms: C_2  and  C_12
REMARK    2  A    between atoms: C_7  and  C_8
REMARK    3  A    between atoms: C_15  and  S_16
REMARK    4  A    between atoms: S_16  and  C_19
REMARK                            x       y       z     vdW  Elec       q    Type
REMARK                         _______ _______ _______ _____ _____    ______ ____
ROOT
ATOM      1  C   UNL     1       1.625   8.839  19.137  0.00  0.00    +0.000 A 
ATOM      2  C   UNL     1       2.225   8.961  17.875  0.00  0.00    +0.000 A 
ATOM      3  C   UNL     1       3.120   7.986  17.422  0.00  0.00    +0.000 A 
ATOM      4  C   UNL     1       3.398   6.875  18.224  0.00  0.00    +0.000 A 
ATOM      5  C   UNL     1       2.794   6.738  19.480  0.00  0.00    +0.000 A 
ATOM      6  C   UNL     1       1.901   7.716  19.931  0.00  0.00    +0.000 A 
ENDROOT
BRANCH   1   8
ATOM      7  O   UNL     1       0.343  10.761  18.783  0.00  0.00    +0.000 OA
ATOM      8  C   UNL     1       0.700   9.917  19.598  0.00  0.00    +0.000 C 
ATOM      9  N   UNL     1       0.403   9.882  20.941  0.00  0.00    +0.000 N 
ATOM     10  C   UNL     1      -0.395  10.774  21.615  0.00  0.00    +0.000 A 
ATOM     11  N   UNL     1      -0.385  10.867  22.927  0.00  0.00    +0.000 NA
ATOM     12  N   UNL     1      -1.210  11.879  23.379  0.00  0.00    +0.000 NA
ATOM     13  C   UNL     1      -1.859  12.455  22.389  0.00  0.00    +0.000 A 
ATOM     14  S   UNL     1      -1.521  11.796  20.846  0.00  0.00    +0.000 S 
ATOM     15  H   UNL     1       0.951   9.299  21.559  0.00  0.00    +0.000 HD
BRANCH  13  16
ATOM     16  C   UNL     1      -2.818  13.628  22.593  0.00  0.00    +0.000 C 
ATOM     17  C   UNL     1      -2.743  14.415  23.887  0.00  0.00    +0.000 C 
ATOM     18  C   UNL     1      -2.240  15.030  22.627  0.00  0.00    +0.000 C 
ENDBRANCH  13  16
ENDBRANCH   1   8
BRANCH   4  19
ATOM     19  S   UNL     1       4.623   5.695  17.687  0.00  0.00    +0.000 S 
ATOM     20  O   UNL     1       4.699   5.795  16.242  0.00  0.00    +0.000 OA
ATOM     21  O   UNL     1       5.811   5.915  18.496  0.00  0.00    +0.000 OA
BRANCH  19  22
ATOM     22  C   UNL     1       4.006   4.072  18.081  0.00  0.00    +0.000 A 
ATOM     23  C   UNL     1       4.542   3.372  19.164  0.00  0.00    +0.000 A 
ATOM     24  C   UNL     1       4.043   2.107  19.479  0.00  0.00    +0.000 A 
ATOM     25  C   UNL     1       3.003   1.558  18.727  0.00  0.00    +0.000 A 
ATOM     26  C   UNL     1       2.449   2.277  17.665  0.00  0.00    +0.000 A 
ATOM     27  C   UNL     1       2.946   3.539  17.341  0.00  0.00    +0.000 A 
ENDBRANCH  19  22
ENDBRANCH   4  19
TORSDOF 4
ENDMDL
