MODEL 1
REMARK VINA RESULT:      -7.6      0.000      0.000
REMARK  Name = 
REMARK  6 active torsions:
REMARK  status: ('A' for Active; 'I' for Inactive)
REMARK    1  A    between atoms: C_1  and  C_2
REMARK    2  A    between atoms: C_2  and  C_3
REMARK    3  A    between atoms: C_3  and  C_4
REMARK    4  A    between atoms: C_4  and  N_5
REMARK    5  A    between atoms: CA_14  and  C_15
REMARK    6  A    between atoms: C_18  and  C_19
REMARK                            x       y       z     vdW  Elec       q    Type
REMARK                         _______ _______ _______ _____ _____    ______ ____
ROOT
ATOM      1  N   UNL     1       2.852   5.755  19.676  0.00  0.00    +0.000 N 
ATOM      2  C   UNL     1       2.397   7.020  19.352  0.00  0.00    +0.000 A 
ATOM      3  C   UNL     1       1.474   7.879  20.002  0.00  0.00    +0.000 A 
ATOM      4  C   UNL     1       1.192   9.133  19.445  0.00  0.00    +0.000 A 
ATOM      5  C   UNL     1       1.809   9.546  18.258  0.00  0.00    +0.000 A 
ATOM      6  C   UNL     1       2.720   8.704  17.609  0.00  0.00    +0.000 A 
ATOM      7  C   UNL     1       2.990   7.457  18.181  0.00  0.00    +0.000 A 
ATOM      8  C   UNL     1       3.828   6.466  17.758  0.00  0.00    +0.000 A 
ATOM      9  C   UNL     1       4.642   6.412  16.632  0.00  0.00    +0.000 A 
ATOM     10  CA  UNL     1       5.408   5.254  16.444  0.00  0.00    +0.000 A 
ATOM     11  N   UNL     1       5.344   4.243  17.360  0.00  0.00    +0.000 NA
ATOM     12  C   UNL     1       4.550   4.281  18.474  0.00  0.00    +0.000 A 
ATOM     13  C   UNL     1       4.613   3.099  19.393  0.00  0.00    +0.000 C 
ATOM     14  C   UNL     1       3.746   5.438  18.681  0.00  0.00    +0.000 A 
ENDROOT
BRANCH  10  15
ATOM     15  C   UNL     1       6.281   5.125  15.265  0.00  0.00    +0.000 C 
ATOM     16  O   UNL     1       7.426   5.550  15.292  0.00  0.00    +0.000 OA
ENDBRANCH  10  15
BRANCH   1  17
ATOM     17  C   UNL     1       2.492   4.854  20.808  0.00  0.00    +0.000 C 
BRANCH  17  18
ATOM     18  C   UNL     1       1.121   4.194  20.678  0.00  0.00    +0.000 C 
BRANCH  18  20
ATOM     19  C   UNL     1       0.988   2.706  18.681  0.00  0.00    +0.000 C 
ATOM     20  C   UNL     1       1.138   2.742  20.207  0.00  0.00    +0.000 C 
ENDBRANCH  18  20
ENDBRANCH  17  18
ENDBRANCH   1  17
TORSDOF 4
ENDMDL
MODEL 2
REMARK VINA RESULT:      -7.3      2.247      4.664
REMARK  Name = 
REMARK  6 active torsions:
REMARK  status: ('A' for Active; 'I' for Inactive)
REMARK    1  A    between atoms: C_1  and  C_2
REMARK    2  A    between atoms: C_2  and  C_3
REMARK    3  A    between atoms: C_3  and  C_4
REMARK    4  A    between atoms: C_4  and  N_5
REMARK    5  A    between atoms: CA_14  and  C_15
REMARK    6  A    between atoms: C_18  and  C_19
REMARK                            x       y       z     vdW  Elec       q    Type
REMARK                         _______ _______ _______ _____ _____    ______ ____
ROOT
ATOM      1  N   UNL     1       4.176   4.322  18.510  0.00  0.00    +0.000 N 
ATOM      2  C   UNL     1       4.859   4.554  17.331  0.00  0.00    +0.000 A 
ATOM      3  C   UNL     1       5.746   3.736  16.585  0.00  0.00    +0.000 A 
ATOM      4  C   UNL     1       6.307   4.231  15.401  0.00  0.00    +0.000 A 
ATOM      5  C   UNL     1       6.002   5.520  14.947  0.00  0.00    +0.000 A 
ATOM      6  C   UNL     1       5.129   6.335  15.678  0.00  0.00    +0.000 A 
ATOM      7  C   UNL     1       4.578   5.823  16.857  0.00  0.00    +0.000 A 
ATOM      8  C   UNL     1       3.709   6.400  17.737  0.00  0.00    +0.000 A 
ATOM      9  C   UNL     1       3.136   7.667  17.717  0.00  0.00    +0.000 A 
ATOM     10  CA  UNL     1       2.268   7.999  18.765  0.00  0.00    +0.000 A 
ATOM     11  N   UNL     1       2.006   7.084  19.744  0.00  0.00    +0.000 NA
ATOM     12  C   UNL     1       2.560   5.834  19.778  0.00  0.00    +0.000 A 
ATOM     13  C   UNL     1       2.151   4.940  20.909  0.00  0.00    +0.000 C 
ATOM     14  C   UNL     1       3.461   5.474  18.735  0.00  0.00    +0.000 A 
ENDROOT
BRANCH  10  15
ATOM     15  C   UNL     1       1.637   9.330  18.812  0.00  0.00    +0.000 C 
ATOM     16  O   UNL     1       0.680   9.535  19.543  0.00  0.00    +0.000 OA
ENDBRANCH  10  15
BRANCH   1  17
ATOM     17  C   UNL     1       4.173   3.136  19.414  0.00  0.00    +0.000 C 
BRANCH  17  18
ATOM     18  C   UNL     1       3.502   1.896  18.826  0.00  0.00    +0.000 C 
BRANCH  18  20
ATOM     19  C   UNL     1       1.046   2.320  18.730  0.00  0.00    +0.000 C 
ATOM     20  C   UNL     1       2.324   2.171  17.895  0.00  0.00    +0.000 C 
ENDBRANCH  18  20
ENDBRANCH  17  18
ENDBRANCH   1  17
TORSDOF 4
ENDMDL
MODEL 3
REMARK VINA RESULT:      -6.8      2.592      5.559
REMARK  Name = 
REMARK  6 active torsions:
REMARK  status: ('A' for Active; 'I' for Inactive)
REMARK    1  A    between atoms: C_1  and  C_2
REMARK    2  A    between atoms: C_2  and  C_3
REMARK    3  A    between atoms: C_3  and  C_4
REMARK    4  A    between atoms: C_4  and  N_5
REMARK    5  A    between atoms: CA_14  and  C_15
REMARK    6  A    between atoms: C_18  and  C_19
REMARK                            x       y       z     vdW  Elec       q    Type
REMARK                         _______ _______ _______ _____ _____    ______ ____
ROOT
ATOM      1  N   UNL     1       3.437   6.815  18.091  0.00  0.00    +0.000 N 
ATOM      2  C   UNL     1       4.176   6.090  17.173  0.00  0.00    +0.000 A 
ATOM      3  C   UNL     1       4.930   6.501  16.045  0.00  0.00    +0.000 A 
ATOM      4  C   UNL     1       5.595   5.539  15.275  0.00  0.00    +0.000 A 
ATOM      5  C   UNL     1       5.522   4.180  15.606  0.00  0.00    +0.000 A 
ATOM      6  C   UNL     1       4.778   3.765  16.716  0.00  0.00    +0.000 A 
ATOM      7  C   UNL     1       4.122   4.741  17.474  0.00  0.00    +0.000 A 
ATOM      8  C   UNL     1       3.348   4.606  18.590  0.00  0.00    +0.000 A 
ATOM      9  C   UNL     1       2.981   3.457  19.282  0.00  0.00    +0.000 A 
ATOM     10  CA  UNL     1       2.166   3.615  20.410  0.00  0.00    +0.000 A 
ATOM     11  N   UNL     1       1.778   4.867  20.795  0.00  0.00    +0.000 NA
ATOM     12  C   UNL     1       2.131   6.007  20.127  0.00  0.00    +0.000 A 
ATOM     13  C   UNL     1       1.641   7.305  20.693  0.00  0.00    +0.000 C 
ATOM     14  C   UNL     1       2.945   5.875  18.965  0.00  0.00    +0.000 A 
ENDROOT
BRANCH  10  15
ATOM     15  C   UNL     1       1.729   2.439  21.181  0.00  0.00    +0.000 C 
ATOM     16  O   UNL     1       1.379   2.556  22.345  0.00  0.00    +0.000 OA
ENDBRANCH  10  15
BRANCH   1  17
ATOM     17  C   UNL     1       3.159   8.276  18.177  0.00  0.00    +0.000 C 
BRANCH  17  18
ATOM     18  C   UNL     1       1.796   8.694  17.629  0.00  0.00    +0.000 C 
BRANCH  18  20
ATOM     19  C   UNL     1      -0.198  10.014  18.338  0.00  0.00    +0.000 C 
ATOM     20  C   UNL     1       1.311  10.073  18.066  0.00  0.00    +0.000 C 
ENDBRANCH  18  20
ENDBRANCH  17  18
ENDBRANCH   1  17
TORSDOF 4
ENDMDL
MODEL 4
REMARK VINA RESULT:      -6.7      2.318      4.625
REMARK  Name = 
REMARK  6 active torsions:
REMARK  status: ('A' for Active; 'I' for Inactive)
REMARK    1  A    between atoms: C_1  and  C_2
REMARK    2  A    between atoms: C_2  and  C_3
REMARK    3  A    between atoms: C_3  and  C_4
REMARK    4  A    between atoms: C_4  and  N_5
REMARK    5  A    between atoms: CA_14  and  C_15
REMARK    6  A    between atoms: C_18  and  C_19
REMARK                            x       y       z     vdW  Elec       q    Type
REMARK                         _______ _______ _______ _____ _____    ______ ____
ROOT
ATOM      1  N   UNL     1       3.748   4.876  18.759  0.00  0.00    +0.000 N 
ATOM      2  C   UNL     1       4.532   4.853  17.620  0.00  0.00    +0.000 A 
ATOM      3  C   UNL     1       5.360   3.840  17.072  0.00  0.00    +0.000 A 
ATOM      4  C   UNL     1       6.055   4.088  15.881  0.00  0.00    +0.000 A 
ATOM      5  C   UNL     1       5.941   5.322  15.229  0.00  0.00    +0.000 A 
ATOM      6  C   UNL     1       5.129   6.329  15.764  0.00  0.00    +0.000 A 
ATOM      7  C   UNL     1       4.442   6.062  16.952  0.00  0.00    +0.000 A 
ATOM      8  C   UNL     1       3.594   6.857  17.668  0.00  0.00    +0.000 A 
ATOM      9  C   UNL     1       3.183   8.163  17.424  0.00  0.00    +0.000 A 
ATOM     10  CA  UNL     1       2.294   8.741  18.339  0.00  0.00    +0.000 A 
ATOM     11  N   UNL     1       1.857   8.015  19.410  0.00  0.00    +0.000 NA
ATOM     12  C   UNL     1       2.250   6.730  19.664  0.00  0.00    +0.000 A 
ATOM     13  C   UNL     1       1.659   6.064  20.870  0.00  0.00    +0.000 C 
ATOM     14  C   UNL     1       3.167   6.122  18.760  0.00  0.00    +0.000 A 
ENDROOT
BRANCH  10  15
ATOM     15  C   UNL     1       1.830  10.126  18.149  0.00  0.00    +0.000 C 
ATOM     16  O   UNL     1       0.777  10.500  18.643  0.00  0.00    +0.000 OA
ENDBRANCH  10  15
BRANCH   1  17
ATOM     17  C   UNL     1       3.540   3.845  19.814  0.00  0.00    +0.000 C 
BRANCH  17  18
ATOM     18  C   UNL     1       2.658   2.673  19.386  0.00  0.00    +0.000 C 
BRANCH  18  20
ATOM     19  C   UNL     1       1.552   2.559  21.618  0.00  0.00    +0.000 C 
ATOM     20  C   UNL     1       1.315   2.571  20.103  0.00  0.00    +0.000 C 
ENDBRANCH  18  20
ENDBRANCH  17  18
ENDBRANCH   1  17
TORSDOF 4
ENDMDL
MODEL 5
REMARK VINA RESULT:      -6.7      2.393      5.490
REMARK  Name = 
REMARK  6 active torsions:
REMARK  status: ('A' for Active; 'I' for Inactive)
REMARK    1  A    between atoms: C_1  and  C_2
REMARK    2  A    between atoms: C_2  and  C_3
REMARK    3  A    between atoms: C_3  and  C_4
REMARK    4  A    between atoms: C_4  and  N_5
REMARK    5  A    between atoms: CA_14  and  C_15
REMARK    6  A    between atoms: C_18  and  C_19
REMARK                            x       y       z     vdW  Elec       q    Type
REMARK                         _______ _______ _______ _____ _____    ______ ____
ROOT
ATOM      1  N   UNL     1       4.606   4.438  17.505  0.00  0.00    +0.000 N 
ATOM      2  C   UNL     1       3.587   3.586  17.892  0.00  0.00    +0.000 A 
ATOM      3  C   UNL     1       3.539   2.173  18.003  0.00  0.00    +0.000 A 
ATOM      4  C   UNL     1       2.356   1.556  18.429  0.00  0.00    +0.000 A 
ATOM      5  C   UNL     1       1.224   2.318  18.744  0.00  0.00    +0.000 A 
ATOM      6  C   UNL     1       1.262   3.713  18.635  0.00  0.00    +0.000 A 
ATOM      7  C   UNL     1       2.452   4.310  18.210  0.00  0.00    +0.000 A 
ATOM      8  C   UNL     1       2.751   5.630  18.028  0.00  0.00    +0.000 A 
ATOM      9  C   UNL     1       1.949   6.753  18.202  0.00  0.00    +0.000 A 
ATOM     10  CA  UNL     1       2.524   8.003  17.938  0.00  0.00    +0.000 A 
ATOM     11  N   UNL     1       3.828   8.078  17.540  0.00  0.00    +0.000 NA
ATOM     12  C   UNL     1       4.631   6.984  17.365  0.00  0.00    +0.000 A 
ATOM     13  C   UNL     1       6.047   7.239  16.948  0.00  0.00    +0.000 C 
ATOM     14  C   UNL     1       4.068   5.698  17.610  0.00  0.00    +0.000 A 
ENDROOT
BRANCH  10  15
ATOM     15  C   UNL     1       1.728   9.233  18.088  0.00  0.00    +0.000 C 
ATOM     16  O   UNL     1       1.256   9.537  19.173  0.00  0.00    +0.000 OA
ENDBRANCH  10  15
BRANCH   1  17
ATOM     17  C   UNL     1       5.992   4.146  17.040  0.00  0.00    +0.000 C 
BRANCH  17  18
ATOM     18  C   UNL     1       6.073   3.524  15.648  0.00  0.00    +0.000 C 
BRANCH  18  20
ATOM     19  C   UNL     1       6.004   3.766  13.167  0.00  0.00    +0.000 C 
ATOM     20  C   UNL     1       5.644   4.433  14.500  0.00  0.00    +0.000 C 
ENDBRANCH  18  20
ENDBRANCH  17  18
ENDBRANCH   1  17
TORSDOF 4
ENDMDL
MODEL 6
REMARK VINA RESULT:      -6.6      2.577      5.350
REMARK  Name = 
REMARK  6 active torsions:
REMARK  status: ('A' for Active; 'I' for Inactive)
REMARK    1  A    between atoms: C_1  and  C_2
REMARK    2  A    between atoms: C_2  and  C_3
REMARK    3  A    between atoms: C_3  and  C_4
REMARK    4  A    between atoms: C_4  and  N_5
REMARK    5  A    between atoms: CA_14  and  C_15
REMARK    6  A    between atoms: C_18  and  C_19
REMARK                            x       y       z     vdW  Elec       q    Type
REMARK                         _______ _______ _______ _____ _____    ______ ____
ROOT
ATOM      1  N   UNL     1       4.324   4.762  18.266  0.00  0.00    +0.000 N 
ATOM      2  C   UNL     1       3.694   4.190  19.355  0.00  0.00    +0.000 A 
ATOM      3  C   UNL     1       3.873   2.932  19.986  0.00  0.00    +0.000 A 
ATOM      4  C   UNL     1       3.084   2.601  21.096  0.00  0.00    +0.000 A 
ATOM      5  C   UNL     1       2.125   3.495  21.586  0.00  0.00    +0.000 A 
ATOM      6  C   UNL     1       1.940   4.738  20.967  0.00  0.00    +0.000 A 
ATOM      7  C   UNL     1       2.737   5.050  19.862  0.00  0.00    +0.000 A 
ATOM      8  C   UNL     1       2.761   6.179  19.094  0.00  0.00    +0.000 A 
ATOM      9  C   UNL     1       1.988   7.331  19.186  0.00  0.00    +0.000 A 
ATOM     10  CA  UNL     1       2.230   8.346  18.251  0.00  0.00    +0.000 A 
ATOM     11  N   UNL     1       3.204   8.181  17.309  0.00  0.00    +0.000 NA
ATOM     12  C   UNL     1       3.974   7.055  17.205  0.00  0.00    +0.000 A 
ATOM     13  C   UNL     1       5.018   7.041  16.130  0.00  0.00    +0.000 C 
ATOM     14  C   UNL     1       3.738   5.999  18.132  0.00  0.00    +0.000 A 
ENDROOT
BRANCH  10  15
ATOM     15  C   UNL     1       1.439   9.588  18.283  0.00  0.00    +0.000 C 
ATOM     16  O   UNL     1       0.798   9.889  19.278  0.00  0.00    +0.000 OA
ENDBRANCH  10  15
BRANCH   1  17
ATOM     17  C   UNL     1       5.386   4.228  17.367  0.00  0.00    +0.000 C 
BRANCH  17  18
ATOM     18  C   UNL     1       6.810   4.438  17.878  0.00  0.00    +0.000 C 
BRANCH  18  20
ATOM     19  C   UNL     1       7.812   6.657  18.420  0.00  0.00    +0.000 C 
ATOM     20  C   UNL     1       6.964   5.499  18.964  0.00  0.00    +0.000 C 
ENDBRANCH  18  20
ENDBRANCH  17  18
ENDBRANCH   1  17
TORSDOF 4
ENDMDL
MODEL 7
REMARK VINA RESULT:      -6.6      2.579      4.705
REMARK  Name = 
REMARK  6 active torsions:
REMARK  status: ('A' for Active; 'I' for Inactive)
REMARK    1  A    between atoms: C_1  and  C_2
REMARK    2  A    between atoms: C_2  and  C_3
REMARK    3  A    between atoms: C_3  and  C_4
REMARK    4  A    between atoms: C_4  and  N_5
REMARK    5  A    between atoms: CA_14  and  C_15
REMARK    6  A    between atoms: C_18  and  C_19
REMARK                            x       y       z     vdW  Elec       q    Type
REMARK                         _______ _______ _______ _____ _____    ______ ____
ROOT
ATOM      1  N   UNL     1       3.662   6.413  17.836  0.00  0.00    +0.000 N 
ATOM      2  C   UNL     1       2.872   7.432  18.337  0.00  0.00    +0.000 A 
ATOM      3  C   UNL     1       2.660   8.760  17.887  0.00  0.00    +0.000 A 
ATOM      4  C   UNL     1       1.788   9.596  18.598  0.00  0.00    +0.000 A 
ATOM      5  C   UNL     1       1.129   9.135  19.743  0.00  0.00    +0.000 A 
ATOM      6  C   UNL     1       1.335   7.827  20.196  0.00  0.00    +0.000 A 
ATOM      7  C   UNL     1       2.207   7.007  19.473  0.00  0.00    +0.000 A 
ATOM      8  C   UNL     1       2.572   5.710  19.694  0.00  0.00    +0.000 A 
ATOM      9  C   UNL     1       2.188   4.841  20.710  0.00  0.00    +0.000 A 
ATOM     10  CA  UNL     1       2.726   3.549  20.690  0.00  0.00    +0.000 A 
ATOM     11  N   UNL     1       3.581   3.185  19.689  0.00  0.00    +0.000 NA
ATOM     12  C   UNL     1       3.967   4.026  18.681  0.00  0.00    +0.000 A 
ATOM     13  C   UNL     1       4.892   3.466  17.644  0.00  0.00    +0.000 C 
ATOM     14  C   UNL     1       3.449   5.354  18.686  0.00  0.00    +0.000 A 
ENDROOT
BRANCH  10  15
ATOM     15  C   UNL     1       2.374   2.581  21.744  0.00  0.00    +0.000 C 
ATOM     16  O   UNL     1       1.267   2.604  22.261  0.00  0.00    +0.000 OA
ENDBRANCH  10  15
BRANCH   1  17
ATOM     17  C   UNL     1       4.584   6.386  16.665  0.00  0.00    +0.000 C 
BRANCH  17  18
ATOM     18  C   UNL     1       5.907   7.116  16.887  0.00  0.00    +0.000 C 
BRANCH  18  20
ATOM     19  C   UNL     1       7.544   6.169  18.513  0.00  0.00    +0.000 C 
ATOM     20  C   UNL     1       7.131   6.217  17.036  0.00  0.00    +0.000 C 
ENDBRANCH  18  20
ENDBRANCH  17  18
ENDBRANCH   1  17
TORSDOF 4
ENDMDL
MODEL 8
REMARK VINA RESULT:      -6.5      2.177      4.586
REMARK  Name = 
REMARK  6 active torsions:
REMARK  status: ('A' for Active; 'I' for Inactive)
REMARK    1  A    between atoms: C_1  and  C_2
REMARK    2  A    between atoms: C_2  and  C_3
REMARK    3  A    between atoms: C_3  and  C_4
REMARK    4  A    between atoms: C_4  and  N_5
REMARK    5  A    between atoms: CA_14  and  C_15
REMARK    6  A    between atoms: C_18  and  C_19
REMARK                            x       y       z     vdW  Elec       q    Type
REMARK                         _______ _______ _______ _____ _____    ______ ____
ROOT
ATOM      1  N   UNL     1       2.690   5.846  19.673  0.00  0.00    +0.000 N 
ATOM      2  C   UNL     1       3.514   5.523  18.610  0.00  0.00    +0.000 A 
ATOM      3  C   UNL     1       4.197   4.323  18.286  0.00  0.00    +0.000 A 
ATOM      4  C   UNL     1       4.978   4.268  17.124  0.00  0.00    +0.000 A 
ATOM      5  C   UNL     1       5.090   5.382  16.283  0.00  0.00    +0.000 A 
ATOM      6  C   UNL     1       4.421   6.571  16.597  0.00  0.00    +0.000 A 
ATOM      7  C   UNL     1       3.645   6.605  17.760  0.00  0.00    +0.000 A 
ATOM      8  C   UNL     1       2.899   7.623  18.282  0.00  0.00    +0.000 A 
ATOM      9  C   UNL     1       2.710   8.917  17.810  0.00  0.00    +0.000 A 
ATOM     10  CA  UNL     1       1.880   9.761  18.559  0.00  0.00    +0.000 A 
ATOM     11  N   UNL     1       1.285   9.293  19.695  0.00  0.00    +0.000 NA
ATOM     12  C   UNL     1       1.459   8.023  20.172  0.00  0.00    +0.000 A 
ATOM     13  C   UNL     1       0.715   7.657  21.420  0.00  0.00    +0.000 C 
ATOM     14  C   UNL     1       2.312   7.147  19.441  0.00  0.00    +0.000 A 
ENDROOT
BRANCH  10  15
ATOM     15  C   UNL     1       1.648  11.150  18.124  0.00  0.00    +0.000 C 
ATOM     16  O   UNL     1       2.582  11.930  18.017  0.00  0.00    +0.000 OA
ENDBRANCH  10  15
BRANCH   1  17
ATOM     17  C   UNL     1       2.273   5.043  20.857  0.00  0.00    +0.000 C 
BRANCH  17  18
ATOM     18  C   UNL     1       1.085   4.117  20.605  0.00  0.00    +0.000 C 
BRANCH  18  20
ATOM     19  C   UNL     1       0.937   2.444  18.761  0.00  0.00    +0.000 C 
ATOM     20  C   UNL     1       1.444   2.693  20.188  0.00  0.00    +0.000 C 
ENDBRANCH  18  20
ENDBRANCH  17  18
ENDBRANCH   1  17
TORSDOF 4
ENDMDL
MODEL 9
REMARK VINA RESULT:      -6.5      2.387      5.242
REMARK  Name = 
REMARK  6 active torsions:
REMARK  status: ('A' for Active; 'I' for Inactive)
REMARK    1  A    between atoms: C_1  and  C_2
REMARK    2  A    between atoms: C_2  and  C_3
REMARK    3  A    between atoms: C_3  and  C_4
REMARK    4  A    between atoms: C_4  and  N_5
REMARK    5  A    between atoms: CA_14  and  C_15
REMARK    6  A    between atoms: C_18  and  C_19
REMARK                            x       y       z     vdW  Elec       q    Type
REMARK                         _______ _______ _______ _____ _____    ______ ____
ROOT
ATOM      1  N   UNL     1       4.261   4.732  18.464  0.00  0.00    +0.000 N 
ATOM      2  C   UNL     1       3.451   4.145  19.419  0.00  0.00    +0.000 A 
ATOM      3  C   UNL     1       3.512   2.874  20.045  0.00  0.00    +0.000 A 
ATOM      4  C   UNL     1       2.544   2.529  20.998  0.00  0.00    +0.000 A 
ATOM      5  C   UNL     1       1.521   3.423  21.336  0.00  0.00    +0.000 A 
ATOM      6  C   UNL     1       1.452   4.679  20.721  0.00  0.00    +0.000 A 
ATOM      7  C   UNL     1       2.428   5.005  19.774  0.00  0.00    +0.000 A 
ATOM      8  C   UNL     1       2.589   6.148  19.044  0.00  0.00    +0.000 A 
ATOM      9  C   UNL     1       1.820   7.306  19.028  0.00  0.00    +0.000 A 
ATOM     10  CA  UNL     1       2.223   8.337  18.169  0.00  0.00    +0.000 A 
ATOM     11  N   UNL     1       3.342   8.180  17.402  0.00  0.00    +0.000 NA
ATOM     12  C   UNL     1       4.111   7.048  17.407  0.00  0.00    +0.000 A 
ATOM     13  C   UNL     1       5.322   7.045  16.525  0.00  0.00    +0.000 C 
ATOM     14  C   UNL     1       3.714   5.977  18.258  0.00  0.00    +0.000 A 
ENDROOT
BRANCH  10  15
ATOM     15  C   UNL     1       1.446   9.586  18.091  0.00  0.00    +0.000 C 
ATOM     16  O   UNL     1       0.712   9.917  19.010  0.00  0.00    +0.000 OA
ENDBRANCH  10  15
BRANCH   1  17
ATOM     17  C   UNL     1       5.457   4.205  17.748  0.00  0.00    +0.000 C 
BRANCH  17  18
ATOM     18  C   UNL     1       5.168   3.670  16.347  0.00  0.00    +0.000 C 
BRANCH  18  20
ATOM     19  C   UNL     1       5.758   4.067  13.956  0.00  0.00    +0.000 C 
ATOM     20  C   UNL     1       6.322   3.782  15.354  0.00  0.00    +0.000 C 
ENDBRANCH  18  20
ENDBRANCH  17  18
ENDBRANCH   1  17
TORSDOF 4
ENDMDL
