MODEL 1
REMARK VINA RESULT:      -7.8      0.000      0.000
REMARK  Name = 
REMARK  8 active torsions:
REMARK  status: ('A' for Active; 'I' for Inactive)
REMARK    1  A    between atoms: C_1  and  C_2
REMARK    2  A    between atoms: C_7  and  C_8
REMARK    3  A    between atoms: N_10  and  C_11
REMARK    4  A    between atoms: C_11  and  C_12
REMARK    5  A    between atoms: C_12  and  C_13
REMARK    6  A    between atoms: C_13  and  N_14
REMARK    7  A    between atoms: C_15  and  C_17
REMARK    8  A    between atoms: C_22  and  C_23
REMARK                            x       y       z     vdW  Elec       q    Type
REMARK                         _______ _______ _______ _____ _____    ______ ____
ROOT
ATOM      1  C   UNL     1       7.480   6.831  18.045  0.00  0.00    +0.000 C 
ENDROOT
BRANCH   1   2
ATOM      2  C   UNL     1       6.594   5.999  17.106  0.00  0.00    +0.000 C 
BRANCH   2   5
ATOM      3  C   UNL     1       5.050   4.736  18.578  0.00  0.00    +0.000 C 
ATOM      4  O   UNL     1       5.938   3.976  18.959  0.00  0.00    +0.000 OA
ATOM      5  N   UNL     1       5.282   5.762  17.682  0.00  0.00    +0.000 N 
ATOM      6  H   UNL     1       4.477   6.104  17.172  0.00  0.00    +0.000 HD
BRANCH   3  13
ATOM      7  C   UNL     1       2.947   2.965  17.124  0.00  0.00    +0.000 C 
ATOM      8  C   UNL     1       2.675   3.740  18.383  0.00  0.00    +0.000 A 
ATOM      9  C   UNL     1       1.362   3.696  18.894  0.00  0.00    +0.000 A 
ATOM     10  C   UNL     1       1.002   4.417  20.033  0.00  0.00    +0.000 A 
ATOM     11  C   UNL     1       1.949   5.192  20.690  0.00  0.00    +0.000 A 
ATOM     12  C   UNL     1       3.256   5.252  20.196  0.00  0.00    +0.000 A 
ATOM     13  C   UNL     1       3.638   4.534  19.050  0.00  0.00    +0.000 A 
ENDBRANCH   3  13
ENDBRANCH   2   5
ENDBRANCH   1   2
BRANCH   1  14
ATOM     14  C   UNL     1       7.598   8.291  17.588  0.00  0.00    +0.000 C 
BRANCH  14  15
ATOM     15  N   UNL     1       8.632   9.044  18.295  0.00  0.00    +0.000 N 
ATOM     16  C   UNL     1       8.739  10.416  18.162  0.00  0.00    +0.000 C 
ATOM     17  O   UNL     1       7.940  11.066  17.491  0.00  0.00    +0.000 OA
ATOM     18  H   UNL     1       9.464   8.542  18.577  0.00  0.00    +0.000 HD
BRANCH  16  19
ATOM     19  C   UNL     1       9.917  11.115  18.786  0.00  0.00    +0.000 A 
ATOM     20  C   UNL     1      10.903  11.534  17.861  0.00  0.00    +0.000 A 
ATOM     21  C   UNL     1      12.015  12.275  18.265  0.00  0.00    +0.000 A 
ATOM     22  C   UNL     1      12.162  12.629  19.596  0.00  0.00    +0.000 A 
ATOM     23  C   UNL     1      11.200  12.224  20.524  0.00  0.00    +0.000 A 
ATOM     24  C   UNL     1      10.077  11.450  20.145  0.00  0.00    +0.000 A 
ATOM     25  C   UNL     1       9.084  11.165  21.239  0.00  0.00    +0.000 C 
ENDBRANCH  16  19
ENDBRANCH  14  15
ENDBRANCH   1  14
TORSDOF 6
ENDMDL
MODEL 2
REMARK VINA RESULT:      -7.8      4.180      8.308
REMARK  Name = 
REMARK  8 active torsions:
REMARK  status: ('A' for Active; 'I' for Inactive)
REMARK    1  A    between atoms: C_1  and  C_2
REMARK    2  A    between atoms: C_7  and  C_8
REMARK    3  A    between atoms: N_10  and  C_11
REMARK    4  A    between atoms: C_11  and  C_12
REMARK    5  A    between atoms: C_12  and  C_13
REMARK    6  A    between atoms: C_13  and  N_14
REMARK    7  A    between atoms: C_15  and  C_17
REMARK    8  A    between atoms: C_22  and  C_23
REMARK                            x       y       z     vdW  Elec       q    Type
REMARK                         _______ _______ _______ _____ _____    ______ ____
ROOT
ATOM      1  C   UNL     1       7.634   5.972  18.524  0.00  0.00    +0.000 C 
ENDROOT
BRANCH   1   2
ATOM      2  C   UNL     1       7.353   6.760  17.237  0.00  0.00    +0.000 C 
BRANCH   2   5
ATOM      3  C   UNL     1       6.329   5.960  15.127  0.00  0.00    +0.000 C 
ATOM      4  O   UNL     1       5.404   6.767  15.198  0.00  0.00    +0.000 OA
ATOM      5  N   UNL     1       7.333   5.892  16.073  0.00  0.00    +0.000 N 
ATOM      6  H   UNL     1       7.836   5.016  16.133  0.00  0.00    +0.000 HD
BRANCH   3  13
ATOM      7  C   UNL     1       8.518   5.874  12.919  0.00  0.00    +0.000 C 
ATOM      8  C   UNL     1       7.351   4.928  12.991  0.00  0.00    +0.000 A 
ATOM      9  C   UNL     1       7.224   3.983  11.953  0.00  0.00    +0.000 A 
ATOM     10  C   UNL     1       6.151   3.092  11.908  0.00  0.00    +0.000 A 
ATOM     11  C   UNL     1       5.186   3.122  12.907  0.00  0.00    +0.000 A 
ATOM     12  C   UNL     1       5.292   4.055  13.944  0.00  0.00    +0.000 A 
ATOM     13  C   UNL     1       6.365   4.961  14.004  0.00  0.00    +0.000 A 
ENDBRANCH   3  13
ENDBRANCH   2   5
ENDBRANCH   1   2
BRANCH   1  14
ATOM     14  C   UNL     1       7.193   4.506  18.415  0.00  0.00    +0.000 C 
BRANCH  14  15
ATOM     15  N   UNL     1       5.975   4.205  19.166  0.00  0.00    +0.000 N 
ATOM     16  C   UNL     1       4.738   4.186  18.548  0.00  0.00    +0.000 C 
ATOM     17  O   UNL     1       4.614   4.366  17.338  0.00  0.00    +0.000 OA
ATOM     18  H   UNL     1       5.990   4.368  20.163  0.00  0.00    +0.000 HD
BRANCH  16  19
ATOM     19  C   UNL     1       3.506   4.027  19.399  0.00  0.00    +0.000 A 
ATOM     20  C   UNL     1       3.334   2.730  19.938  0.00  0.00    +0.000 A 
ATOM     21  C   UNL     1       2.292   2.439  20.821  0.00  0.00    +0.000 A 
ATOM     22  C   UNL     1       1.408   3.436  21.198  0.00  0.00    +0.000 A 
ATOM     23  C   UNL     1       1.561   4.722  20.675  0.00  0.00    +0.000 A 
ATOM     24  C   UNL     1       2.592   5.037  19.759  0.00  0.00    +0.000 A 
ATOM     25  C   UNL     1       2.683   6.483  19.351  0.00  0.00    +0.000 C 
ENDBRANCH  16  19
ENDBRANCH  14  15
ENDBRANCH   1  14
TORSDOF 6
ENDMDL
MODEL 3
REMARK VINA RESULT:      -7.6      4.184      6.689
REMARK  Name = 
REMARK  8 active torsions:
REMARK  status: ('A' for Active; 'I' for Inactive)
REMARK    1  A    between atoms: C_1  and  C_2
REMARK    2  A    between atoms: C_7  and  C_8
REMARK    3  A    between atoms: N_10  and  C_11
REMARK    4  A    between atoms: C_11  and  C_12
REMARK    5  A    between atoms: C_12  and  C_13
REMARK    6  A    between atoms: C_13  and  N_14
REMARK    7  A    between atoms: C_15  and  C_17
REMARK    8  A    between atoms: C_22  and  C_23
REMARK                            x       y       z     vdW  Elec       q    Type
REMARK                         _______ _______ _______ _____ _____    ______ ____
ROOT
ATOM      1  C   UNL     1       7.011   5.898  18.599  0.00  0.00    +0.000 C 
ENDROOT
BRANCH   1   2
ATOM      2  C   UNL     1       6.696   4.425  18.302  0.00  0.00    +0.000 C 
BRANCH   2   5
ATOM      3  C   UNL     1       4.225   4.234  18.239  0.00  0.00    +0.000 C 
ATOM      4  O   UNL     1       4.152   4.754  17.128  0.00  0.00    +0.000 OA
ATOM      5  N   UNL     1       5.428   4.023  18.885  0.00  0.00    +0.000 N 
ATOM      6  H   UNL     1       5.386   3.921  19.891  0.00  0.00    +0.000 HD
BRANCH   3  13
ATOM      7  C   UNL     1       2.490   6.201  19.911  0.00  0.00    +0.000 C 
ATOM      8  C   UNL     1       2.186   4.738  19.742  0.00  0.00    +0.000 A 
ATOM      9  C   UNL     1       1.070   4.229  20.437  0.00  0.00    +0.000 A 
ATOM     10  C   UNL     1       0.733   2.876  20.378  0.00  0.00    +0.000 A 
ATOM     11  C   UNL     1       1.501   2.005  19.615  0.00  0.00    +0.000 A 
ATOM     12  C   UNL     1       2.613   2.490  18.921  0.00  0.00    +0.000 A 
ATOM     13  C   UNL     1       2.969   3.849  18.969  0.00  0.00    +0.000 A 
ENDBRANCH   3  13
ENDBRANCH   2   5
ENDBRANCH   1   2
BRANCH   1  14
ATOM     14  C   UNL     1       7.390   6.677  17.332  0.00  0.00    +0.000 C 
BRANCH  14  15
ATOM     15  N   UNL     1       7.431   5.850  16.127  0.00  0.00    +0.000 N 
ATOM     16  C   UNL     1       6.447   5.942  15.160  0.00  0.00    +0.000 C 
ATOM     17  O   UNL     1       5.530   6.756  15.243  0.00  0.00    +0.000 OA
ATOM     18  H   UNL     1       7.954   4.986  16.173  0.00  0.00    +0.000 HD
BRANCH  16  19
ATOM     19  C   UNL     1       6.456   4.957  14.022  0.00  0.00    +0.000 A 
ATOM     20  C   UNL     1       5.352   4.073  14.006  0.00  0.00    +0.000 A 
ATOM     21  C   UNL     1       5.162   3.158  12.969  0.00  0.00    +0.000 A 
ATOM     22  C   UNL     1       6.060   3.114  11.916  0.00  0.00    +0.000 A 
ATOM     23  C   UNL     1       7.158   3.978  11.913  0.00  0.00    +0.000 A 
ATOM     24  C   UNL     1       7.387   4.896  12.965  0.00  0.00    +0.000 A 
ATOM     25  C   UNL     1       8.560   5.820  12.779  0.00  0.00    +0.000 C 
ENDBRANCH  16  19
ENDBRANCH  14  15
ENDBRANCH   1  14
TORSDOF 6
ENDMDL
MODEL 4
REMARK VINA RESULT:      -7.6      4.480      7.373
REMARK  Name = 
REMARK  8 active torsions:
REMARK  status: ('A' for Active; 'I' for Inactive)
REMARK    1  A    between atoms: C_1  and  C_2
REMARK    2  A    between atoms: C_7  and  C_8
REMARK    3  A    between atoms: N_10  and  C_11
REMARK    4  A    between atoms: C_11  and  C_12
REMARK    5  A    between atoms: C_12  and  C_13
REMARK    6  A    between atoms: C_13  and  N_14
REMARK    7  A    between atoms: C_15  and  C_17
REMARK    8  A    between atoms: C_22  and  C_23
REMARK                            x       y       z     vdW  Elec       q    Type
REMARK                         _______ _______ _______ _____ _____    ______ ____
ROOT
ATOM      1  C   UNL     1       1.265   3.461  19.736  0.00  0.00    +0.000 C 
ENDROOT
BRANCH   1   2
ATOM      2  C   UNL     1       2.410   2.687  19.068  0.00  0.00    +0.000 C 
BRANCH   2   5
ATOM      3  C   UNL     1       4.724   3.563  18.923  0.00  0.00    +0.000 C 
ATOM      4  O   UNL     1       5.140   2.776  19.771  0.00  0.00    +0.000 OA
ATOM      5  N   UNL     1       3.406   3.583  18.509  0.00  0.00    +0.000 N 
ATOM      6  H   UNL     1       3.079   4.445  18.091  0.00  0.00    +0.000 HD
BRANCH   3  13
ATOM      7  C   UNL     1       5.026   4.117  15.877  0.00  0.00    +0.000 C 
ATOM      8  C   UNL     1       5.802   4.832  16.949  0.00  0.00    +0.000 A 
ATOM      9  C   UNL     1       6.765   5.772  16.527  0.00  0.00    +0.000 A 
ATOM     10  C   UNL     1       7.564   6.454  17.445  0.00  0.00    +0.000 A 
ATOM     11  C   UNL     1       7.413   6.216  18.805  0.00  0.00    +0.000 A 
ATOM     12  C   UNL     1       6.466   5.285  19.243  0.00  0.00    +0.000 A 
ATOM     13  C   UNL     1       5.652   4.588  18.334  0.00  0.00    +0.000 A 
ENDBRANCH   3  13
ENDBRANCH   2   5
ENDBRANCH   1   2
BRANCH   1  14
ATOM     14  C   UNL     1       1.762   4.372  20.866  0.00  0.00    +0.000 C 
BRANCH  14  15
ATOM     15  N   UNL     1       1.247   5.738  20.786  0.00  0.00    +0.000 N 
ATOM     16  C   UNL     1       1.977   6.747  20.185  0.00  0.00    +0.000 C 
ATOM     17  O   UNL     1       3.061   6.530  19.646  0.00  0.00    +0.000 OA
ATOM     18  H   UNL     1       0.552   6.014  21.467  0.00  0.00    +0.000 HD
BRANCH  16  19
ATOM     19  C   UNL     1       1.468   8.161  20.273  0.00  0.00    +0.000 A 
ATOM     20  C   UNL     1       1.150   8.585  21.585  0.00  0.00    +0.000 A 
ATOM     21  C   UNL     1       0.750   9.896  21.852  0.00  0.00    +0.000 A 
ATOM     22  C   UNL     1       0.675  10.817  20.821  0.00  0.00    +0.000 A 
ATOM     23  C   UNL     1       0.984  10.417  19.519  0.00  0.00    +0.000 A 
ATOM     24  C   UNL     1       1.366   9.089  19.218  0.00  0.00    +0.000 A 
ATOM     25  C   UNL     1       1.753   8.830  17.786  0.00  0.00    +0.000 C 
ENDBRANCH  16  19
ENDBRANCH  14  15
ENDBRANCH   1  14
TORSDOF 6
ENDMDL
MODEL 5
REMARK VINA RESULT:      -7.6      1.323      2.072
REMARK  Name = 
REMARK  8 active torsions:
REMARK  status: ('A' for Active; 'I' for Inactive)
REMARK    1  A    between atoms: C_1  and  C_2
REMARK    2  A    between atoms: C_7  and  C_8
REMARK    3  A    between atoms: N_10  and  C_11
REMARK    4  A    between atoms: C_11  and  C_12
REMARK    5  A    between atoms: C_12  and  C_13
REMARK    6  A    between atoms: C_13  and  N_14
REMARK    7  A    between atoms: C_15  and  C_17
REMARK    8  A    between atoms: C_22  and  C_23
REMARK                            x       y       z     vdW  Elec       q    Type
REMARK                         _______ _______ _______ _____ _____    ______ ____
ROOT
ATOM      1  C   UNL     1       7.911   6.057  19.085  0.00  0.00    +0.000 C 
ENDROOT
BRANCH   1   2
ATOM      2  C   UNL     1       7.055   5.020  18.345  0.00  0.00    +0.000 C 
BRANCH   2   5
ATOM      3  C   UNL     1       4.800   4.004  18.507  0.00  0.00    +0.000 C 
ATOM      4  O   UNL     1       4.839   3.585  17.352  0.00  0.00    +0.000 OA
ATOM      5  N   UNL     1       5.843   4.706  19.080  0.00  0.00    +0.000 N 
ATOM      6  H   UNL     1       5.609   5.293  19.871  0.00  0.00    +0.000 HD
BRANCH   3  13
ATOM      7  C   UNL     1       2.198   5.681  18.212  0.00  0.00    +0.000 C 
ATOM      8  C   UNL     1       2.382   4.574  19.213  0.00  0.00    +0.000 A 
ATOM      9  C   UNL     1       1.318   4.329  20.104  0.00  0.00    +0.000 A 
ATOM     10  C   UNL     1       1.411   3.352  21.096  0.00  0.00    +0.000 A 
ATOM     11  C   UNL     1       2.569   2.592  21.212  0.00  0.00    +0.000 A 
ATOM     12  C   UNL     1       3.637   2.823  20.339  0.00  0.00    +0.000 A 
ATOM     13  C   UNL     1       3.561   3.803  19.335  0.00  0.00    +0.000 A 
ENDBRANCH   3  13
ENDBRANCH   2   5
ENDBRANCH   1   2
BRANCH   1  14
ATOM     14  C   UNL     1       8.132   7.327  18.252  0.00  0.00    +0.000 C 
BRANCH  14  15
ATOM     15  N   UNL     1       8.755   8.417  19.001  0.00  0.00    +0.000 N 
ATOM     16  C   UNL     1       8.652   9.729  18.578  0.00  0.00    +0.000 C 
ATOM     17  O   UNL     1       7.990  10.042  17.590  0.00  0.00    +0.000 OA
ATOM     18  H   UNL     1       9.538   8.185  19.597  0.00  0.00    +0.000 HD
BRANCH  16  19
ATOM     19  C   UNL     1       9.444  10.787  19.298  0.00  0.00    +0.000 A 
ATOM     20  C   UNL     1       9.089  10.958  20.657  0.00  0.00    +0.000 A 
ATOM     21  C   UNL     1       9.786  11.834  21.490  0.00  0.00    +0.000 A 
ATOM     22  C   UNL     1      10.863  12.548  20.993  0.00  0.00    +0.000 A 
ATOM     23  C   UNL     1      11.229  12.395  19.654  0.00  0.00    +0.000 A 
ATOM     24  C   UNL     1      10.522  11.533  18.781  0.00  0.00    +0.000 A 
ATOM     25  C   UNL     1      11.087  11.406  17.392  0.00  0.00    +0.000 C 
ENDBRANCH  16  19
ENDBRANCH  14  15
ENDBRANCH   1  14
TORSDOF 6
ENDMDL
MODEL 6
REMARK VINA RESULT:      -7.6      2.074      9.788
REMARK  Name = 
REMARK  8 active torsions:
REMARK  status: ('A' for Active; 'I' for Inactive)
REMARK    1  A    between atoms: C_1  and  C_2
REMARK    2  A    between atoms: C_7  and  C_8
REMARK    3  A    between atoms: N_10  and  C_11
REMARK    4  A    between atoms: C_11  and  C_12
REMARK    5  A    between atoms: C_12  and  C_13
REMARK    6  A    between atoms: C_13  and  N_14
REMARK    7  A    between atoms: C_15  and  C_17
REMARK    8  A    between atoms: C_22  and  C_23
REMARK                            x       y       z     vdW  Elec       q    Type
REMARK                         _______ _______ _______ _____ _____    ______ ____
ROOT
ATOM      1  C   UNL     1       7.676   8.363  17.611  0.00  0.00    +0.000 C 
ENDROOT
BRANCH   1   2
ATOM      2  C   UNL     1       8.529   9.078  18.668  0.00  0.00    +0.000 C 
BRANCH   2   5
ATOM      3  C   UNL     1       9.794  11.191  18.953  0.00  0.00    +0.000 C 
ATOM      4  O   UNL     1       9.976  10.991  20.153  0.00  0.00    +0.000 OA
ATOM      5  N   UNL     1       9.107  10.304  18.146  0.00  0.00    +0.000 N 
ATOM      6  H   UNL     1       8.713  10.684  17.295  0.00  0.00    +0.000 HD
BRANCH   3  13
ATOM      7  C   UNL     1       8.441  13.967  19.324  0.00  0.00    +0.000 C 
ATOM      8  C   UNL     1       9.661  13.726  18.479  0.00  0.00    +0.000 A 
ATOM      9  C   UNL     1      10.181  14.829  17.772  0.00  0.00    +0.000 A 
ATOM     10  C   UNL     1      11.285  14.697  16.929  0.00  0.00    +0.000 A 
ATOM     11  C   UNL     1      11.897  13.458  16.781  0.00  0.00    +0.000 A 
ATOM     12  C   UNL     1      11.394  12.351  17.471  0.00  0.00    +0.000 A 
ATOM     13  C   UNL     1      10.283  12.465  18.324  0.00  0.00    +0.000 A 
ENDBRANCH   3  13
ENDBRANCH   2   5
ENDBRANCH   1   2
BRANCH   1  14
ATOM     14  C   UNL     1       7.772   6.835  17.725  0.00  0.00    +0.000 C 
BRANCH  14  15
ATOM     15  N   UNL     1       6.481   6.182  17.933  0.00  0.00    +0.000 N 
ATOM     16  C   UNL     1       5.642   5.896  16.871  0.00  0.00    +0.000 C 
ATOM     17  O   UNL     1       5.967   6.127  15.708  0.00  0.00    +0.000 OA
ATOM     18  H   UNL     1       6.055   6.271  18.846  0.00  0.00    +0.000 HD
BRANCH  16  19
ATOM     19  C   UNL     1       4.262   5.369  17.159  0.00  0.00    +0.000 A 
ATOM     20  C   UNL     1       4.120   3.974  16.972  0.00  0.00    +0.000 A 
ATOM     21  C   UNL     1       2.930   3.313  17.282  0.00  0.00    +0.000 A 
ATOM     22  C   UNL     1       1.860   4.025  17.799  0.00  0.00    +0.000 A 
ATOM     23  C   UNL     1       1.980   5.403  17.989  0.00  0.00    +0.000 A 
ATOM     24  C   UNL     1       3.167   6.101  17.660  0.00  0.00    +0.000 A 
ATOM     25  C   UNL     1       3.177   7.566  18.002  0.00  0.00    +0.000 C 
ENDBRANCH  16  19
ENDBRANCH  14  15
ENDBRANCH   1  14
TORSDOF 6
ENDMDL
MODEL 7
REMARK VINA RESULT:      -7.5      1.049      1.051
REMARK  Name = 
REMARK  8 active torsions:
REMARK  status: ('A' for Active; 'I' for Inactive)
REMARK    1  A    between atoms: C_1  and  C_2
REMARK    2  A    between atoms: C_7  and  C_8
REMARK    3  A    between atoms: N_10  and  C_11
REMARK    4  A    between atoms: C_11  and  C_12
REMARK    5  A    between atoms: C_12  and  C_13
REMARK    6  A    between atoms: C_13  and  N_14
REMARK    7  A    between atoms: C_15  and  C_17
REMARK    8  A    between atoms: C_22  and  C_23
REMARK                            x       y       z     vdW  Elec       q    Type
REMARK                         _______ _______ _______ _____ _____    ______ ____
ROOT
ATOM      1  C   UNL     1       7.626   6.971  17.612  0.00  0.00    +0.000 C 
ENDROOT
BRANCH   1   2
ATOM      2  C   UNL     1       6.389   6.262  17.043  0.00  0.00    +0.000 C 
BRANCH   2   5
ATOM      3  C   UNL     1       4.411   5.001  17.843  0.00  0.00    +0.000 C 
ATOM      4  O   UNL     1       4.146   4.584  16.718  0.00  0.00    +0.000 OA
ATOM      5  N   UNL     1       5.496   5.818  18.098  0.00  0.00    +0.000 N 
ATOM      6  H   UNL     1       5.448   6.379  18.940  0.00  0.00    +0.000 HD
BRANCH   3  13
ATOM      7  C   UNL     1       4.139   2.169  19.101  0.00  0.00    +0.000 C 
ATOM      8  C   UNL     1       3.372   3.377  19.562  0.00  0.00    +0.000 A 
ATOM      9  C   UNL     1       2.432   3.186  20.595  0.00  0.00    +0.000 A 
ATOM     10  C   UNL     1       1.641   4.237  21.061  0.00  0.00    +0.000 A 
ATOM     11  C   UNL     1       1.779   5.504  20.508  0.00  0.00    +0.000 A 
ATOM     12  C   UNL     1       2.704   5.713  19.480  0.00  0.00    +0.000 A 
ATOM     13  C   UNL     1       3.508   4.667  18.997  0.00  0.00    +0.000 A 
ENDBRANCH   3  13
ENDBRANCH   2   5
ENDBRANCH   1   2
BRANCH   1  14
ATOM     14  C   UNL     1       7.468   8.497  17.622  0.00  0.00    +0.000 C 
BRANCH  14  15
ATOM     15  N   UNL     1       8.547   9.193  18.320  0.00  0.00    +0.000 N 
ATOM     16  C   UNL     1       8.744  10.552  18.162  0.00  0.00    +0.000 C 
ATOM     17  O   UNL     1       7.992  11.241  17.476  0.00  0.00    +0.000 OA
ATOM     18  H   UNL     1       9.343   8.643  18.614  0.00  0.00    +0.000 HD
BRANCH  16  19
ATOM     19  C   UNL     1       9.964  11.184  18.779  0.00  0.00    +0.000 A 
ATOM     20  C   UNL     1      10.959  11.563  17.847  0.00  0.00    +0.000 A 
ATOM     21  C   UNL     1      12.111  12.242  18.244  0.00  0.00    +0.000 A 
ATOM     22  C   UNL     1      12.292  12.573  19.577  0.00  0.00    +0.000 A 
ATOM     23  C   UNL     1      11.322  12.207  20.512  0.00  0.00    +0.000 A 
ATOM     24  C   UNL     1      10.157  11.496  20.140  0.00  0.00    +0.000 A 
ATOM     25  C   UNL     1       9.163  11.249  21.242  0.00  0.00    +0.000 C 
ENDBRANCH  16  19
ENDBRANCH  14  15
ENDBRANCH   1  14
TORSDOF 6
ENDMDL
MODEL 8
REMARK VINA RESULT:      -7.5      4.051      7.496
REMARK  Name = 
REMARK  8 active torsions:
REMARK  status: ('A' for Active; 'I' for Inactive)
REMARK    1  A    between atoms: C_1  and  C_2
REMARK    2  A    between atoms: C_7  and  C_8
REMARK    3  A    between atoms: N_10  and  C_11
REMARK    4  A    between atoms: C_11  and  C_12
REMARK    5  A    between atoms: C_12  and  C_13
REMARK    6  A    between atoms: C_13  and  N_14
REMARK    7  A    between atoms: C_15  and  C_17
REMARK    8  A    between atoms: C_22  and  C_23
REMARK                            x       y       z     vdW  Elec       q    Type
REMARK                         _______ _______ _______ _____ _____    ______ ____
ROOT
ATOM      1  C   UNL     1       1.603   3.405  19.148  0.00  0.00    +0.000 C 
ENDROOT
BRANCH   1   2
ATOM      2  C   UNL     1       2.998   2.886  18.776  0.00  0.00    +0.000 C 
BRANCH   2   5
ATOM      3  C   UNL     1       4.829   4.180  17.718  0.00  0.00    +0.000 C 
ATOM      4  O   UNL     1       4.785   3.514  16.686  0.00  0.00    +0.000 OA
ATOM      5  N   UNL     1       3.985   3.951  18.788  0.00  0.00    +0.000 N 
ATOM      6  H   UNL     1       4.300   4.288  19.689  0.00  0.00    +0.000 HD
BRANCH   3  13
ATOM      7  C   UNL     1       5.030   6.694  15.897  0.00  0.00    +0.000 C 
ATOM      8  C   UNL     1       5.967   6.395  17.035  0.00  0.00    +0.000 A 
ATOM      9  C   UNL     1       7.034   7.293  17.242  0.00  0.00    +0.000 A 
ATOM     10  C   UNL     1       7.981   7.078  18.244  0.00  0.00    +0.000 A 
ATOM     11  C   UNL     1       7.876   5.963  19.066  0.00  0.00    +0.000 A 
ATOM     12  C   UNL     1       6.827   5.059  18.875  0.00  0.00    +0.000 A 
ATOM     13  C   UNL     1       5.864   5.258  17.870  0.00  0.00    +0.000 A 
ENDBRANCH   3  13
ENDBRANCH   2   5
ENDBRANCH   1   2
BRANCH   1  14
ATOM     14  C   UNL     1       1.595   4.128  20.502  0.00  0.00    +0.000 C 
BRANCH  14  15
ATOM     15  N   UNL     1       1.125   5.510  20.425  0.00  0.00    +0.000 N 
ATOM     16  C   UNL     1       2.000   6.553  20.187  0.00  0.00    +0.000 C 
ATOM     17  O   UNL     1       3.196   6.361  19.977  0.00  0.00    +0.000 OA
ATOM     18  H   UNL     1       0.257   5.734  20.893  0.00  0.00    +0.000 HD
BRANCH  16  19
ATOM     19  C   UNL     1       1.486   7.965  20.276  0.00  0.00    +0.000 A 
ATOM     20  C   UNL     1       1.132   8.375  21.583  0.00  0.00    +0.000 A 
ATOM     21  C   UNL     1       0.722   9.682  21.853  0.00  0.00    +0.000 A 
ATOM     22  C   UNL     1       0.672  10.614  20.829  0.00  0.00    +0.000 A 
ATOM     23  C   UNL     1       1.017  10.229  19.532  0.00  0.00    +0.000 A 
ATOM     24  C   UNL     1       1.410   8.904  19.228  0.00  0.00    +0.000 A 
ATOM     25  C   UNL     1       1.835   8.661  17.805  0.00  0.00    +0.000 C 
ENDBRANCH  16  19
ENDBRANCH  14  15
ENDBRANCH   1  14
TORSDOF 6
ENDMDL
MODEL 9
REMARK VINA RESULT:      -7.5      4.576      7.415
REMARK  Name = 
REMARK  8 active torsions:
REMARK  status: ('A' for Active; 'I' for Inactive)
REMARK    1  A    between atoms: C_1  and  C_2
REMARK    2  A    between atoms: C_7  and  C_8
REMARK    3  A    between atoms: N_10  and  C_11
REMARK    4  A    between atoms: C_11  and  C_12
REMARK    5  A    between atoms: C_12  and  C_13
REMARK    6  A    between atoms: C_13  and  N_14
REMARK    7  A    between atoms: C_15  and  C_17
REMARK    8  A    between atoms: C_22  and  C_23
REMARK                            x       y       z     vdW  Elec       q    Type
REMARK                         _______ _______ _______ _____ _____    ______ ____
ROOT
ATOM      1  C   UNL     1       3.163   2.320  20.647  0.00  0.00    +0.000 C 
ENDROOT
BRANCH   1   2
ATOM      2  C   UNL     1       4.693   2.344  20.517  0.00  0.00    +0.000 C 
BRANCH   2   5
ATOM      3  C   UNL     1       5.409   4.145  18.970  0.00  0.00    +0.000 C 
ATOM      4  O   UNL     1       5.362   5.002  19.850  0.00  0.00    +0.000 OA
ATOM      5  N   UNL     1       5.110   2.817  19.208  0.00  0.00    +0.000 N 
ATOM      6  H   UNL     1       4.842   2.265  18.403  0.00  0.00    +0.000 HD
BRANCH   3  13
ATOM      7  C   UNL     1       7.595   6.221  18.207  0.00  0.00    +0.000 C 
ATOM      8  C   UNL     1       6.737   5.491  17.211  0.00  0.00    +0.000 A 
ATOM      9  C   UNL     1       6.908   5.820  15.851  0.00  0.00    +0.000 A 
ATOM     10  C   UNL     1       6.128   5.227  14.857  0.00  0.00    +0.000 A 
ATOM     11  C   UNL     1       5.166   4.286  15.202  0.00  0.00    +0.000 A 
ATOM     12  C   UNL     1       4.978   3.949  16.546  0.00  0.00    +0.000 A 
ATOM     13  C   UNL     1       5.754   4.536  17.561  0.00  0.00    +0.000 A 
ENDBRANCH   3  13
ENDBRANCH   2   5
ENDBRANCH   1   2
BRANCH   1  14
ATOM     14  C   UNL     1       2.639   3.451  21.540  0.00  0.00    +0.000 C 
BRANCH  14  15
ATOM     15  N   UNL     1       2.795   4.781  20.953  0.00  0.00    +0.000 N 
ATOM     16  C   UNL     1       1.715   5.461  20.421  0.00  0.00    +0.000 C 
ATOM     17  O   UNL     1       0.575   5.005  20.466  0.00  0.00    +0.000 OA
ATOM     18  H   UNL     1       3.713   5.036  20.616  0.00  0.00    +0.000 HD
BRANCH  16  19
ATOM     19  C   UNL     1       1.962   6.753  19.689  0.00  0.00    +0.000 A 
ATOM     20  C   UNL     1       2.641   6.605  18.456  0.00  0.00    +0.000 A 
ATOM     21  C   UNL     1       2.869   7.694  17.613  0.00  0.00    +0.000 A 
ATOM     22  C   UNL     1       2.412   8.951  17.971  0.00  0.00    +0.000 A 
ATOM     23  C   UNL     1       1.741   9.118  19.184  0.00  0.00    +0.000 A 
ATOM     24  C   UNL     1       1.520   8.036  20.069  0.00  0.00    +0.000 A 
ATOM     25  C   UNL     1       0.708   8.354  21.295  0.00  0.00    +0.000 C 
ENDBRANCH  16  19
ENDBRANCH  14  15
ENDBRANCH   1  14
TORSDOF 6
ENDMDL
