MODEL 1
REMARK VINA RESULT:      -7.9      0.000      0.000
REMARK  Name = 
REMARK  7 active torsions:
REMARK  status: ('A' for Active; 'I' for Inactive)
REMARK    1  A    between atoms: C_1  and  O_2
REMARK    2  A    between atoms: O_2  and  C_3
REMARK    3  A    between atoms: C_6  and  C_7
REMARK    4  A    between atoms: N_12  and  S_13
REMARK    5  A    between atoms: S_13  and  C_16
REMARK    6  A    between atoms: C_26  and  O_27
REMARK    7  A    between atoms: O_27  and  C_28
REMARK                            x       y       z     vdW  Elec       q    Type
REMARK                         _______ _______ _______ _____ _____    ______ ____
ROOT
ATOM      1  C   UNL     1       2.392   8.028  18.130  0.00  0.00    +0.000 C 
ATOM      2  O   UNL     1       2.641   8.627  17.085  0.00  0.00    +0.000 OA
ATOM      3  N   UNL     1       1.685   8.615  19.177  0.00  0.00    +0.000 N 
ATOM      4  C   UNL     1       1.017   9.892  18.922  0.00  0.00    +0.000 C 
ATOM      5  C   UNL     1      -0.400   9.894  19.518  0.00  0.00    +0.000 C 
ATOM      6  N   UNL     1      -0.417   9.500  20.968  0.00  0.00    +0.000 NA
ATOM      7  C   UNL     1       0.277   8.183  21.160  0.00  0.00    +0.000 C 
ATOM      8  C   UNL     1       1.709   8.227  20.603  0.00  0.00    +0.000 C 
ENDROOT
BRANCH   1  12
ATOM      9  C   UNL     1       3.604   3.923  18.466  0.00  0.00    +0.000 A 
ATOM     10  C   UNL     1       4.544   4.965  18.566  0.00  0.00    +0.000 A 
ATOM     11  C   UNL     1       4.148   6.301  18.485  0.00  0.00    +0.000 A 
ATOM     12  C   UNL     1       2.815   6.609  18.220  0.00  0.00    +0.000 A 
ATOM     13  C   UNL     1       1.930   5.572  17.942  0.00  0.00    +0.000 A 
ATOM     14  C   UNL     1       2.284   4.233  18.117  0.00  0.00    +0.000 A 
BRANCH   9  16
ATOM     15  C   UNL     1       4.314   2.273  20.010  0.00  0.00    +0.000 C 
ATOM     16  O   UNL     1       3.959   2.618  18.670  0.00  0.00    +0.000 OA
ENDBRANCH   9  16
BRANCH  14  17
ATOM     17  O   UNL     1       1.198   3.423  17.931  0.00  0.00    +0.000 OA
ATOM     18  C   UNL     1       0.659   2.700  19.019  0.00  0.00    +0.000 C 
ENDBRANCH  14  17
ENDBRANCH   1  12
BRANCH   6  19
ATOM     19  S   UNL     1       0.020  10.705  22.092  0.00  0.00    +0.000 S 
ATOM     20  O   UNL     1       0.175  10.073  23.389  0.00  0.00    +0.000 OA
ATOM     21  O   UNL     1       1.080  11.505  21.518  0.00  0.00    +0.000 OA
BRANCH  19  22
ATOM     22  C   UNL     1      -1.445  11.703  22.176  0.00  0.00    +0.000 A 
ATOM     23  C   UNL     1      -2.230  11.645  23.332  0.00  0.00    +0.000 A 
ATOM     24  C   UNL     1      -3.384  12.424  23.412  0.00  0.00    +0.000 A 
ATOM     25  C   UNL     1      -3.737  13.257  22.350  0.00  0.00    +0.000 A 
ATOM     26 CL   UNL     1      -5.162  14.216  22.455  0.00  0.00    +0.000 Cl
ATOM     27  C   UNL     1      -2.943  13.322  21.202  0.00  0.00    +0.000 A 
ATOM     28  C   UNL     1      -1.789  12.541  21.111  0.00  0.00    +0.000 A 
ENDBRANCH  19  22
ENDBRANCH   6  19
TORSDOF 5
ENDMDL
MODEL 2
REMARK VINA RESULT:      -7.8      0.852      2.090
REMARK  Name = 
REMARK  7 active torsions:
REMARK  status: ('A' for Active; 'I' for Inactive)
REMARK    1  A    between atoms: C_1  and  O_2
REMARK    2  A    between atoms: O_2  and  C_3
REMARK    3  A    between atoms: C_6  and  C_7
REMARK    4  A    between atoms: N_12  and  S_13
REMARK    5  A    between atoms: S_13  and  C_16
REMARK    6  A    between atoms: C_26  and  O_27
REMARK    7  A    between atoms: O_27  and  C_28
REMARK                            x       y       z     vdW  Elec       q    Type
REMARK                         _______ _______ _______ _____ _____    ______ ____
ROOT
ATOM      1  C   UNL     1       2.508   7.960  18.210  0.00  0.00    +0.000 C 
ATOM      2  O   UNL     1       2.825   8.519  17.161  0.00  0.00    +0.000 OA
ATOM      3  N   UNL     1       1.764   8.598  19.201  0.00  0.00    +0.000 N 
ATOM      4  C   UNL     1       1.145   9.883  18.872  0.00  0.00    +0.000 C 
ATOM      5  C   UNL     1      -0.300   9.940  19.394  0.00  0.00    +0.000 C 
ATOM      6  N   UNL     1      -0.402   9.593  20.853  0.00  0.00    +0.000 NA
ATOM      7  C   UNL     1       0.246   8.266  21.121  0.00  0.00    +0.000 C 
ATOM      8  C   UNL     1       1.706   8.256  20.637  0.00  0.00    +0.000 C 
ENDROOT
BRANCH   1  12
ATOM      9  C   UNL     1       3.628   3.833  18.587  0.00  0.00    +0.000 A 
ATOM     10  C   UNL     1       2.322   4.196  18.209  0.00  0.00    +0.000 A 
ATOM     11  C   UNL     1       1.964   5.537  18.058  0.00  0.00    +0.000 A 
ATOM     12  C   UNL     1       2.887   6.535  18.366  0.00  0.00    +0.000 A 
ATOM     13  C   UNL     1       4.113   6.169  18.914  0.00  0.00    +0.000 A 
ATOM     14  C   UNL     1       4.524   4.836  18.976  0.00  0.00    +0.000 A 
BRANCH   9  16
ATOM     15  C   UNL     1       2.977   1.556  18.639  0.00  0.00    +0.000 C 
ATOM     16  O   UNL     1       4.026   2.525  18.615  0.00  0.00    +0.000 OA
ENDBRANCH   9  16
BRANCH  14  17
ATOM     17  O   UNL     1       5.820   4.755  19.405  0.00  0.00    +0.000 OA
ATOM     18  C   UNL     1       6.866   5.256  18.598  0.00  0.00    +0.000 C 
ENDBRANCH  14  17
ENDBRANCH   1  12
BRANCH   6  19
ATOM     19  S   UNL     1       0.011  10.822  21.960  0.00  0.00    +0.000 S 
ATOM     20  O   UNL     1       0.291  10.198  23.240  0.00  0.00    +0.000 OA
ATOM     21  O   UNL     1       0.970  11.703  21.332  0.00  0.00    +0.000 OA
BRANCH  19  22
ATOM     22  C   UNL     1      -1.518  11.706  22.142  0.00  0.00    +0.000 A 
ATOM     23  C   UNL     1      -2.023  12.405  21.041  0.00  0.00    +0.000 A 
ATOM     24  C   UNL     1      -3.223  13.104  21.169  0.00  0.00    +0.000 A 
ATOM     25  C   UNL     1      -3.910  13.090  22.384  0.00  0.00    +0.000 A 
ATOM     26 CL   UNL     1      -5.390  13.955  22.536  0.00  0.00    +0.000 Cl
ATOM     27  C   UNL     1      -3.409  12.381  23.477  0.00  0.00    +0.000 A 
ATOM     28  C   UNL     1      -2.205  11.683  23.359  0.00  0.00    +0.000 A 
ENDBRANCH  19  22
ENDBRANCH   6  19
TORSDOF 5
ENDMDL
MODEL 3
REMARK VINA RESULT:      -7.6      0.970      1.339
REMARK  Name = 
REMARK  7 active torsions:
REMARK  status: ('A' for Active; 'I' for Inactive)
REMARK    1  A    between atoms: C_1  and  O_2
REMARK    2  A    between atoms: O_2  and  C_3
REMARK    3  A    between atoms: C_6  and  C_7
REMARK    4  A    between atoms: N_12  and  S_13
REMARK    5  A    between atoms: S_13  and  C_16
REMARK    6  A    between atoms: C_26  and  O_27
REMARK    7  A    between atoms: O_27  and  C_28
REMARK                            x       y       z     vdW  Elec       q    Type
REMARK                         _______ _______ _______ _____ _____    ______ ____
ROOT
ATOM      1  C   UNL     1       2.306   8.118  18.324  0.00  0.00    +0.000 C 
ATOM      2  O   UNL     1       2.598   8.678  17.268  0.00  0.00    +0.000 OA
ATOM      3  N   UNL     1       1.564   8.747  19.322  0.00  0.00    +0.000 N 
ATOM      4  C   UNL     1       0.916  10.018  18.996  0.00  0.00    +0.000 C 
ATOM      5  C   UNL     1      -0.522  10.050  19.537  0.00  0.00    +0.000 C 
ATOM      6  N   UNL     1      -0.597   9.708  20.999  0.00  0.00    +0.000 NA
ATOM      7  C   UNL     1       0.080   8.396  21.265  0.00  0.00    +0.000 C 
ATOM      8  C   UNL     1       1.532   8.411  20.761  0.00  0.00    +0.000 C 
ENDROOT
BRANCH   1  12
ATOM      9  C   UNL     1       3.537   4.037  18.835  0.00  0.00    +0.000 A 
ATOM     10  C   UNL     1       4.195   4.882  17.921  0.00  0.00    +0.000 A 
ATOM     11  C   UNL     1       3.814   6.218  17.775  0.00  0.00    +0.000 A 
ATOM     12  C   UNL     1       2.715   6.701  18.481  0.00  0.00    +0.000 A 
ATOM     13  C   UNL     1       1.961   5.811  19.241  0.00  0.00    +0.000 A 
ATOM     14  C   UNL     1       2.384   4.502  19.478  0.00  0.00    +0.000 A 
BRANCH   9  16
ATOM     15  C   UNL     1       3.470   1.752  18.214  0.00  0.00    +0.000 C 
ATOM     16  O   UNL     1       3.981   2.767  19.080  0.00  0.00    +0.000 OA
ENDBRANCH   9  16
BRANCH  14  17
ATOM     17  O   UNL     1       1.556   3.888  20.375  0.00  0.00    +0.000 OA
ATOM     18  C   UNL     1       2.070   3.412  21.603  0.00  0.00    +0.000 C 
ENDBRANCH  14  17
ENDBRANCH   1  12
BRANCH   6  19
ATOM     19  S   UNL     1      -0.193  10.951  22.095  0.00  0.00    +0.000 S 
ATOM     20  O   UNL     1      -0.019  10.354  23.406  0.00  0.00    +0.000 OA
ATOM     21  O   UNL     1       0.842  11.768  21.501  0.00  0.00    +0.000 OA
BRANCH  19  22
ATOM     22  C   UNL     1      -1.687  11.908  22.159  0.00  0.00    +0.000 A 
ATOM     23  C   UNL     1      -2.045  12.669  21.042  0.00  0.00    +0.000 A 
ATOM     24  C   UNL     1      -3.215  13.426  21.078  0.00  0.00    +0.000 A 
ATOM     25  C   UNL     1      -4.020  13.409  22.218  0.00  0.00    +0.000 A 
ATOM     26 CL   UNL     1      -5.463  14.345  22.257  0.00  0.00    +0.000 Cl
ATOM     27  C   UNL     1      -3.666  12.638  23.328  0.00  0.00    +0.000 A 
ATOM     28  C   UNL     1      -2.492  11.882  23.302  0.00  0.00    +0.000 A 
ENDBRANCH  19  22
ENDBRANCH   6  19
TORSDOF 5
ENDMDL
MODEL 4
REMARK VINA RESULT:      -7.4      1.115      1.999
REMARK  Name = 
REMARK  7 active torsions:
REMARK  status: ('A' for Active; 'I' for Inactive)
REMARK    1  A    between atoms: C_1  and  O_2
REMARK    2  A    between atoms: O_2  and  C_3
REMARK    3  A    between atoms: C_6  and  C_7
REMARK    4  A    between atoms: N_12  and  S_13
REMARK    5  A    between atoms: S_13  and  C_16
REMARK    6  A    between atoms: C_26  and  O_27
REMARK    7  A    between atoms: O_27  and  C_28
REMARK                            x       y       z     vdW  Elec       q    Type
REMARK                         _______ _______ _______ _____ _____    ______ ____
ROOT
ATOM      1  C   UNL     1       2.569   7.795  18.137  0.00  0.00    +0.000 C 
ATOM      2  O   UNL     1       3.031   8.140  17.050  0.00  0.00    +0.000 OA
ATOM      3  N   UNL     1       1.785   8.642  18.917  0.00  0.00    +0.000 N 
ATOM      4  C   UNL     1       1.303   9.883  18.309  0.00  0.00    +0.000 C 
ATOM      5  C   UNL     1      -0.177  10.118  18.651  0.00  0.00    +0.000 C 
ATOM      6  N   UNL     1      -0.448  10.042  20.127  0.00  0.00    +0.000 NA
ATOM      7  C   UNL     1       0.064   8.747  20.686  0.00  0.00    +0.000 C 
ATOM      8  C   UNL     1       1.559   8.564  20.375  0.00  0.00    +0.000 C 
ENDROOT
BRANCH   1  12
ATOM      9  C   UNL     1       3.287   3.733  19.326  0.00  0.00    +0.000 A 
ATOM     10  C   UNL     1       1.979   4.246  19.257  0.00  0.00    +0.000 A 
ATOM     11  C   UNL     1       1.741   5.558  18.843  0.00  0.00    +0.000 A 
ATOM     12  C   UNL     1       2.819   6.400  18.572  0.00  0.00    +0.000 A 
ATOM     13  C   UNL     1       4.109   5.939  18.820  0.00  0.00    +0.000 A 
ATOM     14  C   UNL     1       4.367   4.604  19.135  0.00  0.00    +0.000 A 
BRANCH   9  16
ATOM     15  C   UNL     1       3.508   1.529  18.486  0.00  0.00    +0.000 C 
ATOM     16  O   UNL     1       3.525   2.416  19.606  0.00  0.00    +0.000 OA
ENDBRANCH   9  16
BRANCH  14  17
ATOM     17  O   UNL     1       5.714   4.374  19.173  0.00  0.00    +0.000 OA
ATOM     18  C   UNL     1       6.615   5.457  19.292  0.00  0.00    +0.000 C 
ENDBRANCH  14  17
ENDBRANCH   1  12
BRANCH   6  19
ATOM     19  S   UNL     1      -0.051  11.420  21.049  0.00  0.00    +0.000 S 
ATOM     20  O   UNL     1       0.699  10.982  22.211  0.00  0.00    +0.000 OA
ATOM     21  O   UNL     1       0.472  12.433  20.159  0.00  0.00    +0.000 OA
BRANCH  19  22
ATOM     22  C   UNL     1      -1.637  11.963  21.633  0.00  0.00    +0.000 A 
ATOM     23  C   UNL     1      -1.942  11.805  22.989  0.00  0.00    +0.000 A 
ATOM     24  C   UNL     1      -3.184  12.226  23.462  0.00  0.00    +0.000 A 
ATOM     25  C   UNL     1      -4.102  12.807  22.587  0.00  0.00    +0.000 A 
ATOM     26 CL   UNL     1      -5.633  13.325  23.176  0.00  0.00    +0.000 Cl
ATOM     27  C   UNL     1      -3.790  12.974  21.236  0.00  0.00    +0.000 A 
ATOM     28  C   UNL     1      -2.550  12.550  20.752  0.00  0.00    +0.000 A 
ENDBRANCH  19  22
ENDBRANCH   6  19
TORSDOF 5
ENDMDL
MODEL 5
REMARK VINA RESULT:      -7.3      1.017      1.728
REMARK  Name = 
REMARK  7 active torsions:
REMARK  status: ('A' for Active; 'I' for Inactive)
REMARK    1  A    between atoms: C_1  and  O_2
REMARK    2  A    between atoms: O_2  and  C_3
REMARK    3  A    between atoms: C_6  and  C_7
REMARK    4  A    between atoms: N_12  and  S_13
REMARK    5  A    between atoms: S_13  and  C_16
REMARK    6  A    between atoms: C_26  and  O_27
REMARK    7  A    between atoms: O_27  and  C_28
REMARK                            x       y       z     vdW  Elec       q    Type
REMARK                         _______ _______ _______ _____ _____    ______ ____
ROOT
ATOM      1  C   UNL     1       2.307   8.164  18.311  0.00  0.00    +0.000 C 
ATOM      2  O   UNL     1       2.533   8.726  17.241  0.00  0.00    +0.000 OA
ATOM      3  N   UNL     1       1.581   8.771  19.334  0.00  0.00    +0.000 N 
ATOM      4  C   UNL     1       0.869  10.012  19.026  0.00  0.00    +0.000 C 
ATOM      5  C   UNL     1      -0.546   9.990  19.625  0.00  0.00    +0.000 C 
ATOM      6  N   UNL     1      -0.549   9.658  21.091  0.00  0.00    +0.000 NA
ATOM      7  C   UNL     1       0.191   8.376  21.338  0.00  0.00    +0.000 C 
ATOM      8  C   UNL     1       1.620   8.446  20.775  0.00  0.00    +0.000 C 
ENDROOT
BRANCH   1  12
ATOM      9  C   UNL     1       3.627   4.096  18.688  0.00  0.00    +0.000 A 
ATOM     10  C   UNL     1       2.521   4.568  19.419  0.00  0.00    +0.000 A 
ATOM     11  C   UNL     1       2.073   5.883  19.276  0.00  0.00    +0.000 A 
ATOM     12  C   UNL     1       2.779   6.766  18.461  0.00  0.00    +0.000 A 
ATOM     13  C   UNL     1       3.974   6.341  17.888  0.00  0.00    +0.000 A 
ATOM     14  C   UNL     1       4.382   5.007  17.938  0.00  0.00    +0.000 A 
BRANCH   9  16
ATOM     15  C   UNL     1       3.130   1.873  18.039  0.00  0.00    +0.000 C 
ATOM     16  O   UNL     1       3.997   2.780  18.722  0.00  0.00    +0.000 OA
ENDBRANCH   9  16
BRANCH  14  17
ATOM     17  O   UNL     1       5.498   4.819  17.171  0.00  0.00    +0.000 OA
ATOM     18  C   UNL     1       5.371   4.435  15.817  0.00  0.00    +0.000 C 
ENDBRANCH  14  17
ENDBRANCH   1  12
BRANCH   6  19
ATOM     19  S   UNL     1      -0.152  10.925  22.161  0.00  0.00    +0.000 S 
ATOM     20  O   UNL     1      -0.041  10.367  23.496  0.00  0.00    +0.000 OA
ATOM     21  O   UNL     1       0.925  11.696  21.581  0.00  0.00    +0.000 OA
BRANCH  19  22
ATOM     22  C   UNL     1      -1.621  11.922  22.140  0.00  0.00    +0.000 A 
ATOM     23  C   UNL     1      -2.516  11.818  23.209  0.00  0.00    +0.000 A 
ATOM     24  C   UNL     1      -3.675  12.595  23.206  0.00  0.00    +0.000 A 
ATOM     25  C   UNL     1      -3.923  13.471  22.148  0.00  0.00    +0.000 A 
ATOM     26 CL   UNL     1      -5.353  14.426  22.150  0.00  0.00    +0.000 Cl
ATOM     27  C   UNL     1      -3.020  13.581  21.089  0.00  0.00    +0.000 A 
ATOM     28  C   UNL     1      -1.860  12.802  21.081  0.00  0.00    +0.000 A 
ENDBRANCH  19  22
ENDBRANCH   6  19
TORSDOF 5
ENDMDL
MODEL 6
REMARK VINA RESULT:      -7.2      1.503      2.115
REMARK  Name = 
REMARK  7 active torsions:
REMARK  status: ('A' for Active; 'I' for Inactive)
REMARK    1  A    between atoms: C_1  and  O_2
REMARK    2  A    between atoms: O_2  and  C_3
REMARK    3  A    between atoms: C_6  and  C_7
REMARK    4  A    between atoms: N_12  and  S_13
REMARK    5  A    between atoms: S_13  and  C_16
REMARK    6  A    between atoms: C_26  and  O_27
REMARK    7  A    between atoms: O_27  and  C_28
REMARK                            x       y       z     vdW  Elec       q    Type
REMARK                         _______ _______ _______ _____ _____    ______ ____
ROOT
ATOM      1  C   UNL     1       2.199   8.283  18.432  0.00  0.00    +0.000 C 
ATOM      2  O   UNL     1       2.646   8.547  17.316  0.00  0.00    +0.000 OA
ATOM      3  N   UNL     1       1.369   9.157  19.130  0.00  0.00    +0.000 N 
ATOM      4  C   UNL     1       0.824  10.308  18.409  0.00  0.00    +0.000 C 
ATOM      5  C   UNL     1      -0.667  10.496  18.729  0.00  0.00    +0.000 C 
ATOM      6  N   UNL     1      -0.939  10.544  20.206  0.00  0.00    +0.000 NA
ATOM      7  C   UNL     1      -0.361   9.337  20.884  0.00  0.00    +0.000 C 
ATOM      8  C   UNL     1       1.142   9.204  20.589  0.00  0.00    +0.000 C 
ENDROOT
BRANCH   1  12
ATOM      9  C   UNL     1       3.074   4.392  20.022  0.00  0.00    +0.000 A 
ATOM     10  C   UNL     1       2.124   5.228  20.637  0.00  0.00    +0.000 A 
ATOM     11  C   UNL     1       1.817   6.482  20.105  0.00  0.00    +0.000 A 
ATOM     12  C   UNL     1       2.520   6.950  18.996  0.00  0.00    +0.000 A 
ATOM     13  C   UNL     1       3.583   6.194  18.508  0.00  0.00    +0.000 A 
ATOM     14  C   UNL     1       3.836   4.899  18.962  0.00  0.00    +0.000 A 
BRANCH   9  16
ATOM     15  C   UNL     1       2.433   2.661  21.506  0.00  0.00    +0.000 C 
ATOM     16  O   UNL     1       3.291   3.114  20.458  0.00  0.00    +0.000 OA
ENDBRANCH   9  16
BRANCH  14  17
ATOM     17  O   UNL     1       4.826   4.317  18.219  0.00  0.00    +0.000 OA
ATOM     18  C   UNL     1       4.497   3.558  17.073  0.00  0.00    +0.000 C 
ENDBRANCH  14  17
ENDBRANCH   1  12
BRANCH   6  19
ATOM     19  S   UNL     1      -0.618  12.022  20.994  0.00  0.00    +0.000 S 
ATOM     20  O   UNL     1       0.364  11.774  22.032  0.00  0.00    +0.000 OA
ATOM     21  O   UNL     1      -0.404  13.041  19.990  0.00  0.00    +0.000 OA
BRANCH  19  22
ATOM     22  C   UNL     1      -2.156  12.365  21.812  0.00  0.00    +0.000 A 
ATOM     23  C   UNL     1      -3.231  12.833  21.050  0.00  0.00    +0.000 A 
ATOM     24  C   UNL     1      -4.446  13.106  21.679  0.00  0.00    +0.000 A 
ATOM     25  C   UNL     1      -4.580  12.901  23.052  0.00  0.00    +0.000 A 
ATOM     26 CL   UNL     1      -6.080  13.239  23.823  0.00  0.00    +0.000 Cl
ATOM     27  C   UNL     1      -3.508  12.421  23.808  0.00  0.00    +0.000 A 
ATOM     28  C   UNL     1      -2.286  12.151  23.187  0.00  0.00    +0.000 A 
ENDBRANCH  19  22
ENDBRANCH   6  19
TORSDOF 5
ENDMDL
MODEL 7
REMARK VINA RESULT:      -7.1      1.536      2.016
REMARK  Name = 
REMARK  7 active torsions:
REMARK  status: ('A' for Active; 'I' for Inactive)
REMARK    1  A    between atoms: C_1  and  O_2
REMARK    2  A    between atoms: O_2  and  C_3
REMARK    3  A    between atoms: C_6  and  C_7
REMARK    4  A    between atoms: N_12  and  S_13
REMARK    5  A    between atoms: S_13  and  C_16
REMARK    6  A    between atoms: C_26  and  O_27
REMARK    7  A    between atoms: O_27  and  C_28
REMARK                            x       y       z     vdW  Elec       q    Type
REMARK                         _______ _______ _______ _____ _____    ______ ____
ROOT
ATOM      1  C   UNL     1       2.360   7.896  18.544  0.00  0.00    +0.000 C 
ATOM      2  O   UNL     1       3.171   8.068  17.635  0.00  0.00    +0.000 OA
ATOM      3  N   UNL     1       1.590   8.935  19.064  0.00  0.00    +0.000 N 
ATOM      4  C   UNL     1       1.577  10.207  18.339  0.00  0.00    +0.000 C 
ATOM      5  C   UNL     1       0.148  10.762  18.241  0.00  0.00    +0.000 C 
ATOM      6  N   UNL     1      -0.536  10.839  19.577  0.00  0.00    +0.000 NA
ATOM      7  C   UNL     1      -0.492   9.505  20.263  0.00  0.00    +0.000 C 
ATOM      8  C   UNL     1       0.953   8.999  20.396  0.00  0.00    +0.000 C 
ENDROOT
BRANCH   1  12
ATOM      9  C   UNL     1       1.737   3.896  19.973  0.00  0.00    +0.000 A 
ATOM     10  C   UNL     1       1.945   4.960  20.871  0.00  0.00    +0.000 A 
ATOM     11  C   UNL     1       2.119   6.267  20.408  0.00  0.00    +0.000 A 
ATOM     12  C   UNL     1       2.171   6.511  19.037  0.00  0.00    +0.000 A 
ATOM     13  C   UNL     1       2.149   5.429  18.162  0.00  0.00    +0.000 A 
ATOM     14  C   UNL     1       1.874   4.132  18.600  0.00  0.00    +0.000 A 
BRANCH   9  16
ATOM     15  C   UNL     1       1.645   2.402  21.809  0.00  0.00    +0.000 C 
ATOM     16  O   UNL     1       1.439   2.637  20.416  0.00  0.00    +0.000 OA
ENDBRANCH   9  16
BRANCH  14  17
ATOM     17  O   UNL     1       1.753   3.283  17.535  0.00  0.00    +0.000 OA
ATOM     18  C   UNL     1       2.699   2.251  17.340  0.00  0.00    +0.000 C 
ENDBRANCH  14  17
ENDBRANCH   1  12
BRANCH   6  19
ATOM     19  S   UNL     1      -0.126  12.163  20.570  0.00  0.00    +0.000 S 
ATOM     20  O   UNL     1       0.908  11.730  21.491  0.00  0.00    +0.000 OA
ATOM     21  O   UNL     1       0.059  13.326  19.730  0.00  0.00    +0.000 OA
BRANCH  19  22
ATOM     22  C   UNL     1      -1.603  12.399  21.526  0.00  0.00    +0.000 A 
ATOM     23  C   UNL     1      -2.696  13.031  20.926  0.00  0.00    +0.000 A 
ATOM     24  C   UNL     1      -3.863  13.223  21.666  0.00  0.00    +0.000 A 
ATOM     25  C   UNL     1      -3.932  12.776  22.986  0.00  0.00    +0.000 A 
ATOM     26 CL   UNL     1      -5.374  13.016  23.893  0.00  0.00    +0.000 Cl
ATOM     27  C   UNL     1      -2.842  12.134  23.578  0.00  0.00    +0.000 A 
ATOM     28  C   UNL     1      -1.668  11.944  22.846  0.00  0.00    +0.000 A 
ENDBRANCH  19  22
ENDBRANCH   6  19
TORSDOF 5
ENDMDL
MODEL 8
REMARK VINA RESULT:      -7.0      1.264      2.257
REMARK  Name = 
REMARK  7 active torsions:
REMARK  status: ('A' for Active; 'I' for Inactive)
REMARK    1  A    between atoms: C_1  and  O_2
REMARK    2  A    between atoms: O_2  and  C_3
REMARK    3  A    between atoms: C_6  and  C_7
REMARK    4  A    between atoms: N_12  and  S_13
REMARK    5  A    between atoms: S_13  and  C_16
REMARK    6  A    between atoms: C_26  and  O_27
REMARK    7  A    between atoms: O_27  and  C_28
REMARK                            x       y       z     vdW  Elec       q    Type
REMARK                         _______ _______ _______ _____ _____    ______ ____
ROOT
ATOM      1  C   UNL     1       2.552   7.798  18.143  0.00  0.00    +0.000 C 
ATOM      2  O   UNL     1       3.024   8.060  17.037  0.00  0.00    +0.000 OA
ATOM      3  N   UNL     1       1.770   8.705  18.855  0.00  0.00    +0.000 N 
ATOM      4  C   UNL     1       1.303   9.903  18.156  0.00  0.00    +0.000 C 
ATOM      5  C   UNL     1      -0.177  10.174  18.470  0.00  0.00    +0.000 C 
ATOM      6  N   UNL     1      -0.459  10.206  19.946  0.00  0.00    +0.000 NA
ATOM      7  C   UNL     1       0.039   8.950  20.600  0.00  0.00    +0.000 C 
ATOM      8  C   UNL     1       1.534   8.733  20.313  0.00  0.00    +0.000 C 
ENDROOT
BRANCH   1  12
ATOM      9  C   UNL     1       3.223   3.825  19.625  0.00  0.00    +0.000 A 
ATOM     10  C   UNL     1       1.927   4.372  19.583  0.00  0.00    +0.000 A 
ATOM     11  C   UNL     1       1.704   5.653  19.074  0.00  0.00    +0.000 A 
ATOM     12  C   UNL     1       2.787   6.436  18.679  0.00  0.00    +0.000 A 
ATOM     13  C   UNL     1       4.075   5.956  18.896  0.00  0.00    +0.000 A 
ATOM     14  C   UNL     1       4.314   4.644  19.307  0.00  0.00    +0.000 A 
BRANCH   9  16
ATOM     15  C   UNL     1       3.054   2.195  21.335  0.00  0.00    +0.000 C 
ATOM     16  O   UNL     1       3.439   2.528  20.000  0.00  0.00    +0.000 OA
ENDBRANCH   9  16
BRANCH  14  17
ATOM     17  O   UNL     1       5.655   4.375  19.294  0.00  0.00    +0.000 OA
ATOM     18  C   UNL     1       6.590   5.432  19.367  0.00  0.00    +0.000 C 
ENDBRANCH  14  17
ENDBRANCH   1  12
BRANCH   6  19
ATOM     19  S   UNL     1      -0.056  11.644  20.769  0.00  0.00    +0.000 S 
ATOM     20  O   UNL     1       0.894  11.311  21.814  0.00  0.00    +0.000 OA
ATOM     21  O   UNL     1       0.237  12.667  19.790  0.00  0.00    +0.000 OA
BRANCH  19  22
ATOM     22  C   UNL     1      -1.581  12.066  21.574  0.00  0.00    +0.000 A 
ATOM     23  C   UNL     1      -2.602  12.645  20.815  0.00  0.00    +0.000 A 
ATOM     24  C   UNL     1      -3.805  12.983  21.434  0.00  0.00    +0.000 A 
ATOM     25  C   UNL     1      -3.982  12.731  22.795  0.00  0.00    +0.000 A 
ATOM     26 CL   UNL     1      -5.468  13.149  23.554  0.00  0.00    +0.000 Cl
ATOM     27  C   UNL     1      -2.964  12.141  23.548  0.00  0.00    +0.000 A 
ATOM     28  C   UNL     1      -1.754  11.806  22.937  0.00  0.00    +0.000 A 
ENDBRANCH  19  22
ENDBRANCH   6  19
TORSDOF 5
ENDMDL
MODEL 9
REMARK VINA RESULT:      -7.0      1.276      1.730
REMARK  Name = 
REMARK  7 active torsions:
REMARK  status: ('A' for Active; 'I' for Inactive)
REMARK    1  A    between atoms: C_1  and  O_2
REMARK    2  A    between atoms: O_2  and  C_3
REMARK    3  A    between atoms: C_6  and  C_7
REMARK    4  A    between atoms: N_12  and  S_13
REMARK    5  A    between atoms: S_13  and  C_16
REMARK    6  A    between atoms: C_26  and  O_27
REMARK    7  A    between atoms: O_27  and  C_28
REMARK                            x       y       z     vdW  Elec       q    Type
REMARK                         _______ _______ _______ _____ _____    ______ ____
ROOT
ATOM      1  C   UNL     1       2.253   8.251  18.295  0.00  0.00    +0.000 C 
ATOM      2  O   UNL     1       2.755   8.631  17.238  0.00  0.00    +0.000 OA
ATOM      3  N   UNL     1       1.442   9.074  19.075  0.00  0.00    +0.000 N 
ATOM      4  C   UNL     1       0.986  10.337  18.492  0.00  0.00    +0.000 C 
ATOM      5  C   UNL     1      -0.505  10.566  18.787  0.00  0.00    +0.000 C 
ATOM      6  N   UNL     1      -0.831  10.439  20.249  0.00  0.00    +0.000 NA
ATOM      7  C   UNL     1      -0.343   9.124  20.782  0.00  0.00    +0.000 C 
ATOM      8  C   UNL     1       1.162   8.946  20.520  0.00  0.00    +0.000 C 
ENDROOT
BRANCH   1  12
ATOM      9  C   UNL     1       2.846   4.152  19.424  0.00  0.00    +0.000 A 
ATOM     10  C   UNL     1       2.420   5.107  20.366  0.00  0.00    +0.000 A 
ATOM     11  C   UNL     1       2.199   6.435  19.994  0.00  0.00    +0.000 A 
ATOM     12  C   UNL     1       2.483   6.841  18.691  0.00  0.00    +0.000 A 
ATOM     13  C   UNL     1       3.076   5.932  17.819  0.00  0.00    +0.000 A 
ATOM     14  C   UNL     1       3.209   4.581  18.141  0.00  0.00    +0.000 A 
BRANCH   9  16
ATOM     15  C   UNL     1       1.844   2.007  19.341  0.00  0.00    +0.000 C 
ATOM     16  O   UNL     1       2.942   2.826  19.744  0.00  0.00    +0.000 OA
ENDBRANCH   9  16
BRANCH  14  17
ATOM     17  O   UNL     1       3.672   3.876  17.065  0.00  0.00    +0.000 OA
ATOM     18  C   UNL     1       4.991   4.082  16.598  0.00  0.00    +0.000 C 
ENDBRANCH  14  17
ENDBRANCH   1  12
BRANCH   6  19
ATOM     19  S   UNL     1      -0.465  11.784  21.232  0.00  0.00    +0.000 S 
ATOM     20  O   UNL     1       0.326  11.317  22.355  0.00  0.00    +0.000 OA
ATOM     21  O   UNL     1       0.002  12.859  20.384  0.00  0.00    +0.000 OA
BRANCH  19  22
ATOM     22  C   UNL     1      -2.057  12.236  21.874  0.00  0.00    +0.000 A 
ATOM     23  C   UNL     1      -2.296  12.082  23.243  0.00  0.00    +0.000 A 
ATOM     24  C   UNL     1      -3.542  12.432  23.762  0.00  0.00    +0.000 A 
ATOM     25  C   UNL     1      -4.529  12.941  22.917  0.00  0.00    +0.000 A 
ATOM     26 CL   UNL     1      -6.065  13.372  23.563  0.00  0.00    +0.000 Cl
ATOM     27  C   UNL     1      -4.283  13.106  21.553  0.00  0.00    +0.000 A 
ATOM     28  C   UNL     1      -3.039  12.751  21.024  0.00  0.00    +0.000 A 
ENDBRANCH  19  22
ENDBRANCH   6  19
TORSDOF 5
ENDMDL
