MODEL 1
REMARK VINA RESULT:      -9.2      0.000      0.000
REMARK  Name = 
REMARK  6 active torsions:
REMARK  status: ('A' for Active; 'I' for Inactive)
REMARK    1  A    between atoms: C_1  and  C_2
REMARK    2  A    between atoms: N_4  and  C_5
REMARK    3  A    between atoms: C_8  and  C_9
REMARK    4  A    between atoms: C_9  and  C_10
REMARK    5  A    between atoms: C_10  and  N_11
REMARK    6  A    between atoms: C_14  and  C_15
REMARK                            x       y       z     vdW  Elec       q    Type
REMARK                         _______ _______ _______ _____ _____    ______ ____
ROOT
ATOM      1  N   UNL     1       1.776   3.640  19.482  0.00  0.00    +0.000 NA
ATOM      2  C   UNL     1       1.911   4.274  18.163  0.00  0.00    +0.000 C 
ATOM      3  C   UNL     1       2.733   3.473  17.163  0.00  0.00    +0.000 C 
ATOM      4  C   UNL     1       4.062   2.981  17.729  0.00  0.00    +0.000 C 
ATOM      5  C   UNL     1       3.824   2.265  19.060  0.00  0.00    +0.000 C 
ATOM      6  C   UNL     1       3.020   3.100  20.047  0.00  0.00    +0.000 C 
ENDROOT
BRANCH   4   7
ATOM      7  C   UNL     1       5.165   4.037  17.766  0.00  0.00    +0.000 A 
ATOM      8  C   UNL     1       5.533   4.723  18.952  0.00  0.00    +0.000 A 
ATOM      9  C   UNL     1       6.526   5.705  18.990  0.00  0.00    +0.000 A 
ATOM     10  C   UNL     1       7.212   6.048  17.838  0.00  0.00    +0.000 A 
ATOM     11  F   UNL     1       8.165   6.987  17.871  0.00  0.00    +0.000 F 
ATOM     12  C   UNL     1       6.871   5.377  16.670  0.00  0.00    +0.000 A 
ATOM     13  O   UNL     1       7.437   5.571  15.446  0.00  0.00    +0.000 OA
ATOM     14  C   UNL     1       6.825   4.726  14.584  0.00  0.00    +0.000 A 
ATOM     15  C   UNL     1       5.867   3.987  15.234  0.00  0.00    +0.000 A 
ATOM     16  C   UNL     1       5.884   4.398  16.598  0.00  0.00    +0.000 A 
ENDBRANCH   4   7
BRANCH   1  17
ATOM     17  C   UNL     1       1.175   4.568  20.461  0.00  0.00    +0.000 C 
BRANCH  17  18
ATOM     18  C   UNL     1       2.009   5.835  20.642  0.00  0.00    +0.000 C 
BRANCH  18  22
ATOM     19  C   UNL     1       1.122  10.026  19.718  0.00  0.00    +0.000 C 
ATOM     20  C   UNL     1       0.353   9.306  20.832  0.00  0.00    +0.000 C 
ATOM     21  C   UNL     1       1.065   8.040  21.281  0.00  0.00    +0.000 C 
ATOM     22  C   UNL     1       1.344   7.101  20.097  0.00  0.00    +0.000 C 
ATOM     23  C   UNL     1       2.181   7.819  19.033  0.00  0.00    +0.000 C 
ATOM     24  C   UNL     1       1.494   9.096  18.557  0.00  0.00    +0.000 C 
BRANCH  19  28
ATOM     25  C   UNL     1       0.104  13.471  18.476  0.00  0.00    +0.000 C 
ATOM     26  C   UNL     1       1.056  12.394  18.913  0.00  0.00    +0.000 C 
ATOM     27  O   UNL     1       2.268  12.573  18.950  0.00  0.00    +0.000 OA
ATOM     28  N   UNL     1       0.423  11.220  19.262  0.00  0.00    +0.000 N 
ATOM     29  H   UNL     1      -0.583  11.173  19.179  0.00  0.00    +0.000 HD
ENDBRANCH  19  28
ENDBRANCH  18  22
ENDBRANCH  17  18
ENDBRANCH   1  17
TORSDOF 5
ENDMDL
MODEL 2
REMARK VINA RESULT:      -8.8      0.951      1.349
REMARK  Name = 
REMARK  6 active torsions:
REMARK  status: ('A' for Active; 'I' for Inactive)
REMARK    1  A    between atoms: C_1  and  C_2
REMARK    2  A    between atoms: N_4  and  C_5
REMARK    3  A    between atoms: C_8  and  C_9
REMARK    4  A    between atoms: C_9  and  C_10
REMARK    5  A    between atoms: C_10  and  N_11
REMARK    6  A    between atoms: C_14  and  C_15
REMARK                            x       y       z     vdW  Elec       q    Type
REMARK                         _______ _______ _______ _____ _____    ______ ____
ROOT
ATOM      1  N   UNL     1       1.734   3.946  19.282  0.00  0.00    +0.000 NA
ATOM      2  C   UNL     1       1.907   4.417  17.900  0.00  0.00    +0.000 C 
ATOM      3  C   UNL     1       2.761   3.505  17.029  0.00  0.00    +0.000 C 
ATOM      4  C   UNL     1       4.074   3.093  17.689  0.00  0.00    +0.000 C 
ATOM      5  C   UNL     1       3.798   2.542  19.089  0.00  0.00    +0.000 C 
ATOM      6  C   UNL     1       2.963   3.486  19.944  0.00  0.00    +0.000 C 
ENDROOT
BRANCH   4   7
ATOM      7  C   UNL     1       5.172   4.153  17.630  0.00  0.00    +0.000 A 
ATOM      8  C   UNL     1       5.557   4.925  18.756  0.00  0.00    +0.000 A 
ATOM      9  C   UNL     1       6.546   5.910  18.705  0.00  0.00    +0.000 A 
ATOM     10  C   UNL     1       7.211   6.169  17.520  0.00  0.00    +0.000 A 
ATOM     11  F   UNL     1       8.160   7.112  17.467  0.00  0.00    +0.000 F 
ATOM     12  C   UNL     1       6.854   5.414  16.409  0.00  0.00    +0.000 A 
ATOM     13  O   UNL     1       7.399   5.519  15.165  0.00  0.00    +0.000 OA
ATOM     14  C   UNL     1       6.776   4.612  14.378  0.00  0.00    +0.000 A 
ATOM     15  C   UNL     1       5.832   3.918  15.096  0.00  0.00    +0.000 A 
ATOM     16  C   UNL     1       5.870   4.429  16.427  0.00  0.00    +0.000 A 
ENDBRANCH   4   7
BRANCH   1  17
ATOM     17  C   UNL     1       1.102   4.982  20.123  0.00  0.00    +0.000 C 
BRANCH  17  18
ATOM     18  C   UNL     1       2.134   5.866  20.821  0.00  0.00    +0.000 C 
BRANCH  18  22
ATOM     19  C   UNL     1       0.594   9.699  19.357  0.00  0.00    +0.000 C 
ATOM     20  C   UNL     1       1.761   9.015  18.636  0.00  0.00    +0.000 C 
ATOM     21  C   UNL     1       1.873   7.545  19.013  0.00  0.00    +0.000 C 
ATOM     22  C   UNL     1       1.970   7.360  20.534  0.00  0.00    +0.000 C 
ATOM     23  C   UNL     1       0.752   7.983  21.226  0.00  0.00    +0.000 C 
ATOM     24  C   UNL     1       0.610   9.460  20.871  0.00  0.00    +0.000 C 
BRANCH  19  28
ATOM     25  C   UNL     1      -0.456  13.192  18.288  0.00  0.00    +0.000 C 
ATOM     26  C   UNL     1      -0.635  11.724  18.550  0.00  0.00    +0.000 C 
ATOM     27  O   UNL     1      -1.700  11.152  18.348  0.00  0.00    +0.000 OA
ATOM     28  N   UNL     1       0.507  11.114  19.025  0.00  0.00    +0.000 N 
ATOM     29  H   UNL     1       1.330  11.683  19.172  0.00  0.00    +0.000 HD
ENDBRANCH  19  28
ENDBRANCH  18  22
ENDBRANCH  17  18
ENDBRANCH   1  17
TORSDOF 5
ENDMDL
MODEL 3
REMARK VINA RESULT:      -8.5      5.403      7.245
REMARK  Name = 
REMARK  6 active torsions:
REMARK  status: ('A' for Active; 'I' for Inactive)
REMARK    1  A    between atoms: C_1  and  C_2
REMARK    2  A    between atoms: N_4  and  C_5
REMARK    3  A    between atoms: C_8  and  C_9
REMARK    4  A    between atoms: C_9  and  C_10
REMARK    5  A    between atoms: C_10  and  N_11
REMARK    6  A    between atoms: C_14  and  C_15
REMARK                            x       y       z     vdW  Elec       q    Type
REMARK                         _______ _______ _______ _____ _____    ______ ____
ROOT
ATOM      1  N   UNL     1       7.516   6.662  17.226  0.00  0.00    +0.000 NA
ATOM      2  C   UNL     1       7.402   5.331  17.839  0.00  0.00    +0.000 C 
ATOM      3  C   UNL     1       6.536   4.352  17.057  0.00  0.00    +0.000 C 
ATOM      4  C   UNL     1       5.188   4.936  16.640  0.00  0.00    +0.000 C 
ATOM      5  C   UNL     1       5.402   6.280  15.941  0.00  0.00    +0.000 C 
ATOM      6  C   UNL     1       6.251   7.245  16.757  0.00  0.00    +0.000 C 
ENDROOT
BRANCH   4   7
ATOM      7  C   UNL     1       4.138   4.958  17.748  0.00  0.00    +0.000 A 
ATOM      8  C   UNL     1       3.735   6.151  18.402  0.00  0.00    +0.000 A 
ATOM      9  C   UNL     1       2.790   6.176  19.430  0.00  0.00    +0.000 A 
ATOM     10  C   UNL     1       2.188   5.004  19.854  0.00  0.00    +0.000 A 
ATOM     11  F   UNL     1       1.280   5.024  20.837  0.00  0.00    +0.000 F 
ATOM     12  C   UNL     1       2.562   3.828  19.215  0.00  0.00    +0.000 A 
ATOM     13  O   UNL     1       2.077   2.584  19.486  0.00  0.00    +0.000 OA
ATOM     14  C   UNL     1       2.696   1.722  18.647  0.00  0.00    +0.000 A 
ATOM     15  C   UNL     1       3.580   2.391  17.835  0.00  0.00    +0.000 A 
ATOM     16  C   UNL     1       3.504   3.769  18.191  0.00  0.00    +0.000 A 
ENDBRANCH   4   7
BRANCH   1  17
ATOM     17  C   UNL     1       8.167   7.618  18.144  0.00  0.00    +0.000 C 
BRANCH  17  18
ATOM     18  C   UNL     1       7.715   9.055  17.893  0.00  0.00    +0.000 C 
BRANCH  18  22
ATOM     19  C   UNL     1       9.952  12.632  19.081  0.00  0.00    +0.000 C 
ATOM     20  C   UNL     1       9.346  12.537  17.676  0.00  0.00    +0.000 C 
ATOM     21  C   UNL     1       8.283  11.453  17.593  0.00  0.00    +0.000 C 
ATOM     22  C   UNL     1       8.826  10.095  18.060  0.00  0.00    +0.000 C 
ATOM     23  C   UNL     1       9.354  10.196  19.496  0.00  0.00    +0.000 C 
ATOM     24  C   UNL     1      10.426  11.275  19.616  0.00  0.00    +0.000 C 
BRANCH  19  28
ATOM     25  C   UNL     1      12.270  15.498  20.010  0.00  0.00    +0.000 C 
ATOM     26  C   UNL     1      11.104  14.566  20.175  0.00  0.00    +0.000 C 
ATOM     27  O   UNL     1      10.339  14.644  21.130  0.00  0.00    +0.000 OA
ATOM     28  N   UNL     1      10.995  13.646  19.154  0.00  0.00    +0.000 N 
ATOM     29  H   UNL     1      11.691  13.658  18.420  0.00  0.00    +0.000 HD
ENDBRANCH  19  28
ENDBRANCH  18  22
ENDBRANCH  17  18
ENDBRANCH   1  17
TORSDOF 5
ENDMDL
MODEL 4
REMARK VINA RESULT:      -8.4      0.704      1.178
REMARK  Name = 
REMARK  6 active torsions:
REMARK  status: ('A' for Active; 'I' for Inactive)
REMARK    1  A    between atoms: C_1  and  C_2
REMARK    2  A    between atoms: N_4  and  C_5
REMARK    3  A    between atoms: C_8  and  C_9
REMARK    4  A    between atoms: C_9  and  C_10
REMARK    5  A    between atoms: C_10  and  N_11
REMARK    6  A    between atoms: C_14  and  C_15
REMARK                            x       y       z     vdW  Elec       q    Type
REMARK                         _______ _______ _______ _____ _____    ______ ____
ROOT
ATOM      1  N   UNL     1       1.657   3.995  19.378  0.00  0.00    +0.000 NA
ATOM      2  C   UNL     1       1.890   4.515  18.023  0.00  0.00    +0.000 C 
ATOM      3  C   UNL     1       2.723   3.602  17.135  0.00  0.00    +0.000 C 
ATOM      4  C   UNL     1       3.997   3.099  17.809  0.00  0.00    +0.000 C 
ATOM      5  C   UNL     1       3.656   2.503  19.177  0.00  0.00    +0.000 C 
ATOM      6  C   UNL     1       2.844   3.448  20.051  0.00  0.00    +0.000 C 
ENDROOT
BRANCH   4   7
ATOM      7  C   UNL     1       5.145   4.106  17.825  0.00  0.00    +0.000 A 
ATOM      8  C   UNL     1       5.564   4.776  19.004  0.00  0.00    +0.000 A 
ATOM      9  C   UNL     1       6.600   5.713  19.022  0.00  0.00    +0.000 A 
ATOM     10  C   UNL     1       7.279   6.025  17.858  0.00  0.00    +0.000 A 
ATOM     11  F   UNL     1       8.272   6.922  17.872  0.00  0.00    +0.000 F 
ATOM     12  C   UNL     1       6.888   5.370  16.697  0.00  0.00    +0.000 A 
ATOM     13  O   UNL     1       7.440   5.538  15.462  0.00  0.00    +0.000 OA
ATOM     14  C   UNL     1       6.776   4.720  14.613  0.00  0.00    +0.000 A 
ATOM     15  C   UNL     1       5.798   4.023  15.281  0.00  0.00    +0.000 A 
ATOM     16  C   UNL     1       5.858   4.435  16.645  0.00  0.00    +0.000 A 
ENDBRANCH   4   7
BRANCH   1  17
ATOM     17  C   UNL     1       1.051   5.023  20.247  0.00  0.00    +0.000 C 
BRANCH  17  18
ATOM     18  C   UNL     1       2.098   5.958  20.849  0.00  0.00    +0.000 C 
BRANCH  18  22
ATOM     19  C   UNL     1       0.244   9.733  19.612  0.00  0.00    +0.000 C 
ATOM     20  C   UNL     1       1.619   9.337  19.063  0.00  0.00    +0.000 C 
ATOM     21  C   UNL     1       1.900   7.855  19.260  0.00  0.00    +0.000 C 
ATOM     22  C   UNL     1       1.747   7.443  20.731  0.00  0.00    +0.000 C 
ATOM     23  C   UNL     1       0.338   7.778  21.235  0.00  0.00    +0.000 C 
ATOM     24  C   UNL     1       0.023   9.259  21.054  0.00  0.00    +0.000 C 
BRANCH  19  28
ATOM     25  C   UNL     1       0.146  13.524  19.863  0.00  0.00    +0.000 C 
ATOM     26  C   UNL     1       0.581  12.134  20.230  0.00  0.00    +0.000 C 
ATOM     27  O   UNL     1       1.379  11.920  21.136  0.00  0.00    +0.000 OA
ATOM     28  N   UNL     1      -0.011  11.158  19.457  0.00  0.00    +0.000 N 
ATOM     29  H   UNL     1      -0.645  11.445  18.723  0.00  0.00    +0.000 HD
ENDBRANCH  19  28
ENDBRANCH  18  22
ENDBRANCH  17  18
ENDBRANCH   1  17
TORSDOF 5
ENDMDL
MODEL 5
REMARK VINA RESULT:      -8.2      1.827      2.165
REMARK  Name = 
REMARK  6 active torsions:
REMARK  status: ('A' for Active; 'I' for Inactive)
REMARK    1  A    between atoms: C_1  and  C_2
REMARK    2  A    between atoms: N_4  and  C_5
REMARK    3  A    between atoms: C_8  and  C_9
REMARK    4  A    between atoms: C_9  and  C_10
REMARK    5  A    between atoms: C_10  and  N_11
REMARK    6  A    between atoms: C_14  and  C_15
REMARK                            x       y       z     vdW  Elec       q    Type
REMARK                         _______ _______ _______ _____ _____    ______ ____
ROOT
ATOM      1  N   UNL     1       1.950   4.481  19.666  0.00  0.00    +0.000 NA
ATOM      2  C   UNL     1       1.998   4.817  18.236  0.00  0.00    +0.000 C 
ATOM      3  C   UNL     1       2.765   3.817  17.382  0.00  0.00    +0.000 C 
ATOM      4  C   UNL     1       4.132   3.452  17.957  0.00  0.00    +0.000 C 
ATOM      5  C   UNL     1       3.982   3.039  19.423  0.00  0.00    +0.000 C 
ATOM      6  C   UNL     1       3.232   4.070  20.256  0.00  0.00    +0.000 C 
ENDROOT
BRANCH   4   7
ATOM      7  C   UNL     1       5.224   4.488  17.700  0.00  0.00    +0.000 A 
ATOM      8  C   UNL     1       5.660   5.408  18.688  0.00  0.00    +0.000 A 
ATOM      9  C   UNL     1       6.644   6.371  18.454  0.00  0.00    +0.000 A 
ATOM     10  C   UNL     1       7.253   6.460  17.214  0.00  0.00    +0.000 A 
ATOM     11  F   UNL     1       8.197   7.381  16.986  0.00  0.00    +0.000 F 
ATOM     12  C   UNL     1       6.845   5.558  16.238  0.00  0.00    +0.000 A 
ATOM     13  O   UNL     1       7.331   5.486  14.967  0.00  0.00    +0.000 OA
ATOM     14  C   UNL     1       6.673   4.481  14.345  0.00  0.00    +0.000 A 
ATOM     15  C   UNL     1       5.765   3.899  15.196  0.00  0.00    +0.000 A 
ATOM     16  C   UNL     1       5.865   4.591  16.439  0.00  0.00    +0.000 A 
ENDBRANCH   4   7
BRANCH   1  17
ATOM     17  C   UNL     1       1.401   5.599  20.459  0.00  0.00    +0.000 C 
BRANCH  17  18
ATOM     18  C   UNL     1       1.895   6.956  19.961  0.00  0.00    +0.000 C 
BRANCH  18  22
ATOM     19  C   UNL     1      -0.372  10.330  21.600  0.00  0.00    +0.000 C 
ATOM     20  C   UNL     1       0.851  10.586  20.712  0.00  0.00    +0.000 C 
ATOM     21  C   UNL     1       1.239   9.349  19.916  0.00  0.00    +0.000 C 
ATOM     22  C   UNL     1       1.458   8.136  20.832  0.00  0.00    +0.000 C 
ATOM     23  C   UNL     1       0.194   7.851  21.652  0.00  0.00    +0.000 C 
ATOM     24  C   UNL     1      -0.223   9.072  22.466  0.00  0.00    +0.000 C 
BRANCH  19  28
ATOM     25  C   UNL     1      -1.871  13.517  23.027  0.00  0.00    +0.000 C 
ATOM     26  C   UNL     1      -1.710  12.398  22.039  0.00  0.00    +0.000 C 
ATOM     27  O   UNL     1      -2.399  12.318  21.028  0.00  0.00    +0.000 OA
ATOM     28  N   UNL     1      -0.722  11.502  22.390  0.00  0.00    +0.000 N 
ATOM     29  H   UNL     1      -0.223  11.652  23.256  0.00  0.00    +0.000 HD
ENDBRANCH  19  28
ENDBRANCH  18  22
ENDBRANCH  17  18
ENDBRANCH   1  17
TORSDOF 5
ENDMDL
MODEL 6
REMARK VINA RESULT:      -8.2      5.358      7.198
REMARK  Name = 
REMARK  6 active torsions:
REMARK  status: ('A' for Active; 'I' for Inactive)
REMARK    1  A    between atoms: C_1  and  C_2
REMARK    2  A    between atoms: N_4  and  C_5
REMARK    3  A    between atoms: C_8  and  C_9
REMARK    4  A    between atoms: C_9  and  C_10
REMARK    5  A    between atoms: C_10  and  N_11
REMARK    6  A    between atoms: C_14  and  C_15
REMARK                            x       y       z     vdW  Elec       q    Type
REMARK                         _______ _______ _______ _____ _____    ______ ____
ROOT
ATOM      1  N   UNL     1       7.544   7.187  17.243  0.00  0.00    +0.000 NA
ATOM      2  C   UNL     1       7.587   6.346  18.447  0.00  0.00    +0.000 C 
ATOM      3  C   UNL     1       7.102   4.919  18.234  0.00  0.00    +0.000 C 
ATOM      4  C   UNL     1       5.769   4.837  17.495  0.00  0.00    +0.000 C 
ATOM      5  C   UNL     1       5.834   5.674  16.216  0.00  0.00    +0.000 C 
ATOM      6  C   UNL     1       6.300   7.102  16.465  0.00  0.00    +0.000 C 
ENDROOT
BRANCH   4   7
ATOM      7  C   UNL     1       4.544   5.108  18.367  0.00  0.00    +0.000 A 
ATOM      8  C   UNL     1       3.820   6.327  18.319  0.00  0.00    +0.000 A 
ATOM      9  C   UNL     1       2.712   6.589  19.128  0.00  0.00    +0.000 A 
ATOM     10  C   UNL     1       2.262   5.637  20.025  0.00  0.00    +0.000 A 
ATOM     11  F   UNL     1       1.200   5.884  20.801  0.00  0.00    +0.000 F 
ATOM     12  C   UNL     1       2.953   4.432  20.077  0.00  0.00    +0.000 A 
ATOM     13  O   UNL     1       2.657   3.378  20.887  0.00  0.00    +0.000 OA
ATOM     14  C   UNL     1       3.566   2.409  20.628  0.00  0.00    +0.000 A 
ATOM     15  C   UNL     1       4.450   2.822  19.661  0.00  0.00    +0.000 A 
ATOM     16  C   UNL     1       4.063   4.143  19.288  0.00  0.00    +0.000 A 
ENDBRANCH   4   7
BRANCH   1  17
ATOM     17  C   UNL     1       7.802   8.603  17.571  0.00  0.00    +0.000 C 
BRANCH  17  18
ATOM     18  C   UNL     1       8.631   8.757  18.845  0.00  0.00    +0.000 C 
BRANCH  18  22
ATOM     19  C   UNL     1       9.677  12.991  19.280  0.00  0.00    +0.000 C 
ATOM     20  C   UNL     1       9.570  12.367  17.884  0.00  0.00    +0.000 C 
ATOM     21  C   UNL     1       8.807  11.051  17.913  0.00  0.00    +0.000 C 
ATOM     22  C   UNL     1       9.420  10.066  18.919  0.00  0.00    +0.000 C 
ATOM     23  C   UNL     1       9.444  10.684  20.322  0.00  0.00    +0.000 C 
ATOM     24  C   UNL     1      10.204  12.007  20.331  0.00  0.00    +0.000 C 
BRANCH  19  28
ATOM     25  C   UNL     1      10.882  16.591  19.084  0.00  0.00    +0.000 C 
ATOM     26  C   UNL     1       9.877  15.475  19.054  0.00  0.00    +0.000 C 
ATOM     27  O   UNL     1       8.684  15.680  18.858  0.00  0.00    +0.000 OA
ATOM     28  N   UNL     1      10.438  14.233  19.261  0.00  0.00    +0.000 N 
ATOM     29  H   UNL     1      11.433  14.177  19.430  0.00  0.00    +0.000 HD
ENDBRANCH  19  28
ENDBRANCH  18  22
ENDBRANCH  17  18
ENDBRANCH   1  17
TORSDOF 5
ENDMDL
MODEL 7
REMARK VINA RESULT:      -8.2      2.686      6.260
REMARK  Name = 
REMARK  6 active torsions:
REMARK  status: ('A' for Active; 'I' for Inactive)
REMARK    1  A    between atoms: C_1  and  C_2
REMARK    2  A    between atoms: N_4  and  C_5
REMARK    3  A    between atoms: C_8  and  C_9
REMARK    4  A    between atoms: C_9  and  C_10
REMARK    5  A    between atoms: C_10  and  N_11
REMARK    6  A    between atoms: C_14  and  C_15
REMARK                            x       y       z     vdW  Elec       q    Type
REMARK                         _______ _______ _______ _____ _____    ______ ____
ROOT
ATOM      1  N   UNL     1       2.869   2.327  19.760  0.00  0.00    +0.000 NA
ATOM      2  C   UNL     1       3.399   3.311  20.714  0.00  0.00    +0.000 C 
ATOM      3  C   UNL     1       2.331   4.065  21.495  0.00  0.00    +0.000 C 
ATOM      4  C   UNL     1       1.219   4.627  20.612  0.00  0.00    +0.000 C 
ATOM      5  C   UNL     1       0.670   3.522  19.708  0.00  0.00    +0.000 C 
ATOM      6  C   UNL     1       1.759   2.802  18.923  0.00  0.00    +0.000 C 
ENDROOT
BRANCH   4   7
ATOM      7  C   UNL     1       1.580   5.920  19.885  0.00  0.00    +0.000 A 
ATOM      8  C   UNL     1       2.216   5.937  18.616  0.00  0.00    +0.000 A 
ATOM      9  C   UNL     1       2.568   7.116  17.954  0.00  0.00    +0.000 A 
ATOM     10  C   UNL     1       2.293   8.346  18.525  0.00  0.00    +0.000 A 
ATOM     11  F   UNL     1       2.627   9.477  17.893  0.00  0.00    +0.000 F 
ATOM     12  C   UNL     1       1.660   8.347  19.763  0.00  0.00    +0.000 A 
ATOM     13  O   UNL     1       1.303   9.452  20.475  0.00  0.00    +0.000 OA
ATOM     14  C   UNL     1       0.717   9.021  21.615  0.00  0.00    +0.000 A 
ATOM     15  C   UNL     1       0.690   7.648  21.654  0.00  0.00    +0.000 A 
ATOM     16  C   UNL     1       1.301   7.190  20.450  0.00  0.00    +0.000 A 
ENDBRANCH   4   7
BRANCH   1  17
ATOM     17  C   UNL     1       3.937   1.808  18.881  0.00  0.00    +0.000 C 
BRANCH  17  18
ATOM     18  C   UNL     1       3.870   2.408  17.478  0.00  0.00    +0.000 C 
BRANCH  18  22
ATOM     19  C   UNL     1       6.421   5.947  17.059  0.00  0.00    +0.000 C 
ATOM     20  C   UNL     1       5.982   5.477  18.451  0.00  0.00    +0.000 C 
ATOM     21  C   UNL     1       5.477   4.043  18.428  0.00  0.00    +0.000 C 
ATOM     22  C   UNL     1       4.355   3.857  17.397  0.00  0.00    +0.000 C 
ATOM     23  C   UNL     1       4.842   4.259  16.000  0.00  0.00    +0.000 C 
ATOM     24  C   UNL     1       5.355   5.695  15.985  0.00  0.00    +0.000 C 
BRANCH  19  28
ATOM     25  C   UNL     1       8.121   9.280  17.727  0.00  0.00    +0.000 C 
ATOM     26  C   UNL     1       7.843   7.817  17.921  0.00  0.00    +0.000 C 
ATOM     27  O   UNL     1       8.433   7.148  18.762  0.00  0.00    +0.000 OA
ATOM     28  N   UNL     1       6.871   7.332  17.072  0.00  0.00    +0.000 N 
ATOM     29  H   UNL     1       6.458   7.967  16.402  0.00  0.00    +0.000 HD
ENDBRANCH  19  28
ENDBRANCH  18  22
ENDBRANCH  17  18
ENDBRANCH   1  17
TORSDOF 5
ENDMDL
MODEL 8
REMARK VINA RESULT:      -8.1      1.677      1.830
REMARK  Name = 
REMARK  6 active torsions:
REMARK  status: ('A' for Active; 'I' for Inactive)
REMARK    1  A    between atoms: C_1  and  C_2
REMARK    2  A    between atoms: N_4  and  C_5
REMARK    3  A    between atoms: C_8  and  C_9
REMARK    4  A    between atoms: C_9  and  C_10
REMARK    5  A    between atoms: C_10  and  N_11
REMARK    6  A    between atoms: C_14  and  C_15
REMARK                            x       y       z     vdW  Elec       q    Type
REMARK                         _______ _______ _______ _____ _____    ______ ____
ROOT
ATOM      1  N   UNL     1       1.964   4.668  19.810  0.00  0.00    +0.000 NA
ATOM      2  C   UNL     1       1.941   5.145  18.420  0.00  0.00    +0.000 C 
ATOM      3  C   UNL     1       2.561   4.182  17.416  0.00  0.00    +0.000 C 
ATOM      4  C   UNL     1       3.929   3.657  17.845  0.00  0.00    +0.000 C 
ATOM      5  C   UNL     1       3.847   3.109  19.271  0.00  0.00    +0.000 C 
ATOM      6  C   UNL     1       3.246   4.102  20.256  0.00  0.00    +0.000 C 
ENDROOT
BRANCH   4   7
ATOM      7  C   UNL     1       5.083   4.628  17.605  0.00  0.00    +0.000 A 
ATOM      8  C   UNL     1       5.552   5.526  18.599  0.00  0.00    +0.000 A 
ATOM      9  C   UNL     1       6.594   6.430  18.380  0.00  0.00    +0.000 A 
ATOM     10  C   UNL     1       7.229   6.479  17.152  0.00  0.00    +0.000 A 
ATOM     11  F   UNL     1       8.229   7.344  16.939  0.00  0.00    +0.000 F 
ATOM     12  C   UNL     1       6.789   5.599  16.171  0.00  0.00    +0.000 A 
ATOM     13  O   UNL     1       7.293   5.494  14.910  0.00  0.00    +0.000 OA
ATOM     14  C   UNL     1       6.591   4.525  14.278  0.00  0.00    +0.000 A 
ATOM     15  C   UNL     1       5.635   4.000  15.114  0.00  0.00    +0.000 A 
ATOM     16  C   UNL     1       5.751   4.689  16.356  0.00  0.00    +0.000 A 
ENDBRANCH   4   7
BRANCH   1  17
ATOM     17  C   UNL     1       1.567   5.737  20.748  0.00  0.00    +0.000 C 
BRANCH  17  18
ATOM     18  C   UNL     1       1.948   7.124  20.235  0.00  0.00    +0.000 C 
BRANCH  18  22
ATOM     19  C   UNL     1       0.222  10.919  21.585  0.00  0.00    +0.000 C 
ATOM     20  C   UNL     1       0.262   9.714  22.532  0.00  0.00    +0.000 C 
ATOM     21  C   UNL     1       1.246   8.656  22.056  0.00  0.00    +0.000 C 
ATOM     22  C   UNL     1       0.952   8.223  20.613  0.00  0.00    +0.000 C 
ATOM     23  C   UNL     1       0.996   9.434  19.673  0.00  0.00    +0.000 C 
ATOM     24  C   UNL     1       0.018  10.516  20.120  0.00  0.00    +0.000 C 
BRANCH  19  28
ATOM     25  C   UNL     1      -1.614  14.056  22.697  0.00  0.00    +0.000 C 
ATOM     26  C   UNL     1      -0.432  13.238  22.262  0.00  0.00    +0.000 C 
ATOM     27  O   UNL     1       0.688  13.723  22.147  0.00  0.00    +0.000 OA
ATOM     28  N   UNL     1      -0.746  11.917  22.020  0.00  0.00    +0.000 N 
ATOM     29  H   UNL     1      -1.707  11.624  22.129  0.00  0.00    +0.000 HD
ENDBRANCH  19  28
ENDBRANCH  18  22
ENDBRANCH  17  18
ENDBRANCH   1  17
TORSDOF 5
ENDMDL
MODEL 9
REMARK VINA RESULT:      -8.1      5.384      7.222
REMARK  Name = 
REMARK  6 active torsions:
REMARK  status: ('A' for Active; 'I' for Inactive)
REMARK    1  A    between atoms: C_1  and  C_2
REMARK    2  A    between atoms: N_4  and  C_5
REMARK    3  A    between atoms: C_8  and  C_9
REMARK    4  A    between atoms: C_9  and  C_10
REMARK    5  A    between atoms: C_10  and  N_11
REMARK    6  A    between atoms: C_14  and  C_15
REMARK                            x       y       z     vdW  Elec       q    Type
REMARK                         _______ _______ _______ _____ _____    ______ ____
ROOT
ATOM      1  N   UNL     1       7.337   7.068  17.087  0.00  0.00    +0.000 NA
ATOM      2  C   UNL     1       7.448   6.135  18.217  0.00  0.00    +0.000 C 
ATOM      3  C   UNL     1       7.035   4.705  17.894  0.00  0.00    +0.000 C 
ATOM      4  C   UNL     1       5.693   4.612  17.171  0.00  0.00    +0.000 C 
ATOM      5  C   UNL     1       5.690   5.553  15.965  0.00  0.00    +0.000 C 
ATOM      6  C   UNL     1       6.084   6.979  16.324  0.00  0.00    +0.000 C 
ENDROOT
BRANCH   4   7
ATOM      7  C   UNL     1       4.474   4.743  18.080  0.00  0.00    +0.000 A 
ATOM      8  C   UNL     1       4.104   5.965  18.700  0.00  0.00    +0.000 A 
ATOM      9  C   UNL     1       3.002   6.088  19.549  0.00  0.00    +0.000 A 
ATOM     10  C   UNL     1       2.202   4.991  19.817  0.00  0.00    +0.000 A 
ATOM     11  F   UNL     1       1.145   5.106  20.630  0.00  0.00    +0.000 F 
ATOM     12  C   UNL     1       2.544   3.789  19.210  0.00  0.00    +0.000 A 
ATOM     13  O   UNL     1       1.877   2.609  19.347  0.00  0.00    +0.000 OA
ATOM     14  C   UNL     1       2.529   1.692  18.596  0.00  0.00    +0.000 A 
ATOM     15  C   UNL     1       3.614   2.262  17.974  0.00  0.00    +0.000 A 
ATOM     16  C   UNL     1       3.638   3.633  18.363  0.00  0.00    +0.000 A 
ENDBRANCH   4   7
BRANCH   1  17
ATOM     17  C   UNL     1       7.526   8.464  17.527  0.00  0.00    +0.000 C 
BRANCH  17  18
ATOM     18  C   UNL     1       8.553   8.580  18.652  0.00  0.00    +0.000 C 
BRANCH  18  22
ATOM     19  C   UNL     1       9.379  12.848  19.206  0.00  0.00    +0.000 C 
ATOM     20  C   UNL     1       9.146  12.288  17.798  0.00  0.00    +0.000 C 
ATOM     21  C   UNL     1       8.475  10.923  17.839  0.00  0.00    +0.000 C 
ATOM     22  C   UNL     1       9.263   9.934  18.710  0.00  0.00    +0.000 C 
ATOM     23  C   UNL     1       9.414  10.481  20.134  0.00  0.00    +0.000 C 
ATOM     24  C   UNL     1      10.087  11.851  20.131  0.00  0.00    +0.000 C 
BRANCH  19  28
ATOM     25  C   UNL     1      11.778  15.759  18.734  0.00  0.00    +0.000 C 
ATOM     26  C   UNL     1      11.316  14.332  18.649  0.00  0.00    +0.000 C 
ATOM     27  O   UNL     1      12.015  13.449  18.165  0.00  0.00    +0.000 OA
ATOM     28  N   UNL     1      10.054  14.138  19.170  0.00  0.00    +0.000 N 
ATOM     29  H   UNL     1       9.555  14.940  19.531  0.00  0.00    +0.000 HD
ENDBRANCH  19  28
ENDBRANCH  18  22
ENDBRANCH  17  18
ENDBRANCH   1  17
TORSDOF 5
ENDMDL
