MODEL 1
REMARK VINA RESULT:      -8.2      0.000      0.000
REMARK  Name = 
REMARK  4 active torsions:
REMARK  status: ('A' for Active; 'I' for Inactive)
REMARK    1  A    between atoms: C_1  and  N_2
REMARK    2  A    between atoms: C_4  and  C_5
REMARK    3  A    between atoms: N_13  and  C_14
REMARK    4  A    between atoms: C_14  and  C_15
REMARK                            x       y       z     vdW  Elec       q    Type
REMARK                         _______ _______ _______ _____ _____    ______ ____
ROOT
ATOM      1  C   UNL     1       0.144   9.459  23.400  0.00  0.00    +0.000 C 
ATOM      2  N   UNL     1      -0.619  10.416  22.630  0.00  0.00    +0.000 N 
ATOM      3  C   UNL     1      -1.573  11.258  23.164  0.00  0.00    +0.000 A 
ATOM      4  C   UNL     1      -2.104  12.052  22.155  0.00  0.00    +0.000 A 
ATOM      5  C   UNL     1      -1.409  11.662  20.972  0.00  0.00    +0.000 A 
ATOM      6  C   UNL     1      -0.505  10.653  21.285  0.00  0.00    +0.000 A 
ATOM      7  C   UNL     1       0.375  10.042  20.285  0.00  0.00    +0.000 A 
ATOM      8  N   UNL     1       1.025   8.903  20.591  0.00  0.00    +0.000 NA
ATOM      9  C   UNL     1       1.780   8.371  19.614  0.00  0.00    +0.000 A 
ATOM     10  N   UNL     1       2.492   7.232  19.938  0.00  0.00    +0.000 N 
ATOM     11  N   UNL     1       1.909   8.906  18.387  0.00  0.00    +0.000 NA
ATOM     12  C   UNL     1       1.251  10.050  18.132  0.00  0.00    +0.000 A 
ATOM     13  C   UNL     1       0.448  10.674  19.050  0.00  0.00    +0.000 A 
ATOM     14  C   UNL     1      -0.232  11.994  18.792  0.00  0.00    +0.000 C 
ATOM     15  C   UNL     1      -1.556  12.154  19.566  0.00  0.00    +0.000 C 
ATOM     16  H   UNL     1       2.098   6.829  20.779  0.00  0.00    +0.000 HD
ENDROOT
BRANCH   4  17
ATOM     17  C   UNL     1      -3.150  13.070  22.261  0.00  0.00    +0.000 C 
ATOM     18  N   UNL     1      -4.394  12.629  22.605  0.00  0.00    +0.000 N 
ATOM     19  O   UNL     1      -2.961  14.264  22.060  0.00  0.00    +0.000 OA
ATOM     20  H   UNL     1      -4.608  11.658  22.779  0.00  0.00    +0.000 HD
ATOM     21  H   UNL     1      -5.128  13.321  22.681  0.00  0.00    +0.000 HD
ENDBRANCH   4  17
BRANCH  10  22
ATOM     22  C   UNL     1       2.817   6.302  18.875  0.00  0.00    +0.000 C 
BRANCH  22  23
ATOM     23  C   UNL     1       2.155   4.955  19.071  0.00  0.00    +0.000 A 
ATOM     24  C   UNL     1       2.164   4.003  18.042  0.00  0.00    +0.000 A 
ATOM     25  C   UNL     1       1.592   2.743  18.233  0.00  0.00    +0.000 A 
ATOM     26  C   UNL     1       0.997   2.423  19.452  0.00  0.00    +0.000 A 
ATOM     27  C   UNL     1       0.967   3.364  20.478  0.00  0.00    +0.000 A 
ATOM     28  C   UNL     1       1.540   4.626  20.289  0.00  0.00    +0.000 A 
ENDBRANCH  22  23
ENDBRANCH  10  22
TORSDOF 3
ENDMDL
MODEL 2
REMARK VINA RESULT:      -7.9      5.627      9.365
REMARK  Name = 
REMARK  4 active torsions:
REMARK  status: ('A' for Active; 'I' for Inactive)
REMARK    1  A    between atoms: C_1  and  N_2
REMARK    2  A    between atoms: C_4  and  C_5
REMARK    3  A    between atoms: N_13  and  C_14
REMARK    4  A    between atoms: C_14  and  C_15
REMARK                            x       y       z     vdW  Elec       q    Type
REMARK                         _______ _______ _______ _____ _____    ______ ____
ROOT
ATOM      1  C   UNL     1       2.742   7.294  19.011  0.00  0.00    +0.000 C 
ATOM      2  N   UNL     1       2.780   5.890  18.666  0.00  0.00    +0.000 N 
ATOM      3  C   UNL     1       1.773   4.992  18.956  0.00  0.00    +0.000 A 
ATOM      4  C   UNL     1       2.124   3.735  18.480  0.00  0.00    +0.000 A 
ATOM      5  C   UNL     1       3.399   3.915  17.864  0.00  0.00    +0.000 A 
ATOM      6  C   UNL     1       3.785   5.244  17.994  0.00  0.00    +0.000 A 
ATOM      7  C   UNL     1       5.048   5.758  17.453  0.00  0.00    +0.000 A 
ATOM      8  N   UNL     1       5.481   6.972  17.840  0.00  0.00    +0.000 NA
ATOM      9  C   UNL     1       6.668   7.363  17.342  0.00  0.00    +0.000 A 
ATOM     10  N   UNL     1       7.093   8.630  17.692  0.00  0.00    +0.000 N 
ATOM     11  N   UNL     1       7.414   6.621  16.505  0.00  0.00    +0.000 NA
ATOM     12  C   UNL     1       6.934   5.420  16.138  0.00  0.00    +0.000 A 
ATOM     13  C   UNL     1       5.742   4.919  16.590  0.00  0.00    +0.000 A 
ATOM     14  C   UNL     1       5.166   3.607  16.123  0.00  0.00    +0.000 C 
ATOM     15  C   UNL     1       4.287   2.919  17.187  0.00  0.00    +0.000 C 
ATOM     16  H   UNL     1       6.568   8.940  18.500  0.00  0.00    +0.000 HD
ENDROOT
BRANCH   4  17
ATOM     17  C   UNL     1       1.369   2.485  18.579  0.00  0.00    +0.000 C 
ATOM     18  N   UNL     1       2.082   1.369  18.907  0.00  0.00    +0.000 N 
ATOM     19  O   UNL     1       0.162   2.403  18.388  0.00  0.00    +0.000 OA
ATOM     20  H   UNL     1       3.077   1.378  19.072  0.00  0.00    +0.000 HD
ATOM     21  H   UNL     1       1.573   0.498  18.979  0.00  0.00    +0.000 HD
ENDBRANCH   4  17
BRANCH  10  22
ATOM     22  C   UNL     1       8.519   8.890  17.719  0.00  0.00    +0.000 C 
BRANCH  22  23
ATOM     23  C   UNL     1       8.849  10.200  18.404  0.00  0.00    +0.000 A 
ATOM     24  C   UNL     1       8.650  11.418  17.741  0.00  0.00    +0.000 A 
ATOM     25  C   UNL     1       8.912  12.630  18.384  0.00  0.00    +0.000 A 
ATOM     26  C   UNL     1       9.385  12.638  19.695  0.00  0.00    +0.000 A 
ATOM     27  C   UNL     1       9.602  11.434  20.362  0.00  0.00    +0.000 A 
ATOM     28  C   UNL     1       9.339  10.220  19.720  0.00  0.00    +0.000 A 
ENDBRANCH  22  23
ENDBRANCH  10  22
TORSDOF 3
ENDMDL
MODEL 3
REMARK VINA RESULT:      -7.8      4.123      6.307
REMARK  Name = 
REMARK  4 active torsions:
REMARK  status: ('A' for Active; 'I' for Inactive)
REMARK    1  A    between atoms: C_1  and  N_2
REMARK    2  A    between atoms: C_4  and  C_5
REMARK    3  A    between atoms: N_13  and  C_14
REMARK    4  A    between atoms: C_14  and  C_15
REMARK                            x       y       z     vdW  Elec       q    Type
REMARK                         _______ _______ _______ _____ _____    ______ ____
ROOT
ATOM      1  C   UNL     1       2.407   9.551  17.582  0.00  0.00    +0.000 C 
ATOM      2  N   UNL     1       1.949   8.888  18.783  0.00  0.00    +0.000 N 
ATOM      3  C   UNL     1       1.116   9.466  19.719  0.00  0.00    +0.000 A 
ATOM      4  C   UNL     1       0.865   8.556  20.739  0.00  0.00    +0.000 A 
ATOM      5  C   UNL     1       1.578   7.378  20.367  0.00  0.00    +0.000 A 
ATOM      6  C   UNL     1       2.240   7.605  19.165  0.00  0.00    +0.000 A 
ATOM      7  C   UNL     1       3.055   6.580  18.506  0.00  0.00    +0.000 A 
ATOM      8  N   UNL     1       3.875   6.941  17.501  0.00  0.00    +0.000 NA
ATOM      9  C   UNL     1       4.629   5.961  16.971  0.00  0.00    +0.000 A 
ATOM     10  N   UNL     1       5.433   6.313  15.904  0.00  0.00    +0.000 N 
ATOM     11  N   UNL     1       4.600   4.682  17.386  0.00  0.00    +0.000 NA
ATOM     12  C   UNL     1       3.757   4.367  18.384  0.00  0.00    +0.000 A 
ATOM     13  C   UNL     1       2.950   5.286  19.002  0.00  0.00    +0.000 A 
ATOM     14  C   UNL     1       1.951   4.924  20.070  0.00  0.00    +0.000 C 
ATOM     15  C   UNL     1       1.699   6.065  21.076  0.00  0.00    +0.000 C 
ATOM     16  H   UNL     1       5.530   7.320  15.887  0.00  0.00    +0.000 HD
ENDROOT
BRANCH   4  17
ATOM     17  C   UNL     1       0.052   8.745  21.941  0.00  0.00    +0.000 C 
ATOM     18  N   UNL     1       0.553   9.592  22.886  0.00  0.00    +0.000 N 
ATOM     19  O   UNL     1      -1.025   8.193  22.128  0.00  0.00    +0.000 OA
ATOM     20  H   UNL     1       1.435  10.071  22.786  0.00  0.00    +0.000 HD
ATOM     21  H   UNL     1       0.003   9.732  23.723  0.00  0.00    +0.000 HD
ENDBRANCH   4  17
BRANCH  10  22
ATOM     22  C   UNL     1       6.644   5.549  15.679  0.00  0.00    +0.000 C 
BRANCH  22  23
ATOM     23  C   UNL     1       6.652   4.875  14.323  0.00  0.00    +0.000 A 
ATOM     24  C   UNL     1       5.672   3.928  13.995  0.00  0.00    +0.000 A 
ATOM     25  C   UNL     1       5.650   3.335  12.730  0.00  0.00    +0.000 A 
ATOM     26  C   UNL     1       6.613   3.676  11.782  0.00  0.00    +0.000 A 
ATOM     27  C   UNL     1       7.601   4.604  12.099  0.00  0.00    +0.000 A 
ATOM     28  C   UNL     1       7.625   5.199  13.364  0.00  0.00    +0.000 A 
ENDBRANCH  22  23
ENDBRANCH  10  22
TORSDOF 3
ENDMDL
MODEL 4
REMARK VINA RESULT:      -7.6      1.615      2.552
REMARK  Name = 
REMARK  4 active torsions:
REMARK  status: ('A' for Active; 'I' for Inactive)
REMARK    1  A    between atoms: C_1  and  N_2
REMARK    2  A    between atoms: C_4  and  C_5
REMARK    3  A    between atoms: N_13  and  C_14
REMARK    4  A    between atoms: C_14  and  C_15
REMARK                            x       y       z     vdW  Elec       q    Type
REMARK                         _______ _______ _______ _____ _____    ______ ____
ROOT
ATOM      1  C   UNL     1       0.340   9.322  23.366  0.00  0.00    +0.000 C 
ATOM      2  N   UNL     1      -0.430  10.275  22.598  0.00  0.00    +0.000 N 
ATOM      3  C   UNL     1      -1.352  11.145  23.142  0.00  0.00    +0.000 A 
ATOM      4  C   UNL     1      -1.902  11.925  22.131  0.00  0.00    +0.000 A 
ATOM      5  C   UNL     1      -1.252  11.496  20.937  0.00  0.00    +0.000 A 
ATOM      6  C   UNL     1      -0.355  10.478  21.245  0.00  0.00    +0.000 A 
ATOM      7  C   UNL     1       0.483   9.829  20.232  0.00  0.00    +0.000 A 
ATOM      8  N   UNL     1       1.123   8.687  20.545  0.00  0.00    +0.000 NA
ATOM      9  C   UNL     1       1.837   8.119  19.557  0.00  0.00    +0.000 A 
ATOM     10  N   UNL     1       2.540   6.976  19.886  0.00  0.00    +0.000 N 
ATOM     11  N   UNL     1       1.937   8.624  18.315  0.00  0.00    +0.000 NA
ATOM     12  C   UNL     1       1.290   9.773  18.053  0.00  0.00    +0.000 A 
ATOM     13  C   UNL     1       0.527  10.432  18.981  0.00  0.00    +0.000 A 
ATOM     14  C   UNL     1      -0.139  11.757  18.714  0.00  0.00    +0.000 C 
ATOM     15  C   UNL     1      -1.434  11.958  19.525  0.00  0.00    +0.000 C 
ATOM     16  H   UNL     1       2.166   6.599  20.747  0.00  0.00    +0.000 HD
ENDROOT
BRANCH   4  17
ATOM     17  C   UNL     1      -2.927  12.964  22.245  0.00  0.00    +0.000 C 
ATOM     18  N   UNL     1      -4.201  12.536  22.478  0.00  0.00    +0.000 N 
ATOM     19  O   UNL     1      -2.695  14.162  22.145  0.00  0.00    +0.000 OA
ATOM     20  H   UNL     1      -4.450  11.562  22.567  0.00  0.00    +0.000 HD
ATOM     21  H   UNL     1      -4.921  13.242  22.558  0.00  0.00    +0.000 HD
ENDBRANCH   4  17
BRANCH  10  22
ATOM     22  C   UNL     1       2.816   6.016  18.835  0.00  0.00    +0.000 C 
BRANCH  22  23
ATOM     23  C   UNL     1       4.282   5.982  18.461  0.00  0.00    +0.000 A 
ATOM     24  C   UNL     1       4.738   6.642  17.311  0.00  0.00    +0.000 A 
ATOM     25  C   UNL     1       6.096   6.651  16.985  0.00  0.00    +0.000 A 
ATOM     26  C   UNL     1       7.014   5.992  17.801  0.00  0.00    +0.000 A 
ATOM     27  C   UNL     1       6.574   5.319  18.938  0.00  0.00    +0.000 A 
ATOM     28  C   UNL     1       5.215   5.310  19.266  0.00  0.00    +0.000 A 
ENDBRANCH  22  23
ENDBRANCH  10  22
TORSDOF 3
ENDMDL
MODEL 5
REMARK VINA RESULT:      -7.5      0.911      1.146
REMARK  Name = 
REMARK  4 active torsions:
REMARK  status: ('A' for Active; 'I' for Inactive)
REMARK    1  A    between atoms: C_1  and  N_2
REMARK    2  A    between atoms: C_4  and  C_5
REMARK    3  A    between atoms: N_13  and  C_14
REMARK    4  A    between atoms: C_14  and  C_15
REMARK                            x       y       z     vdW  Elec       q    Type
REMARK                         _______ _______ _______ _____ _____    ______ ____
ROOT
ATOM      1  C   UNL     1       0.619   9.273  23.315  0.00  0.00    +0.000 C 
ATOM      2  N   UNL     1      -0.245  10.182  22.594  0.00  0.00    +0.000 N 
ATOM      3  C   UNL     1      -1.174  11.008  23.193  0.00  0.00    +0.000 A 
ATOM      4  C   UNL     1      -1.826  11.753  22.218  0.00  0.00    +0.000 A 
ATOM      5  C   UNL     1      -1.231  11.350  20.986  0.00  0.00    +0.000 A 
ATOM      6  C   UNL     1      -0.267  10.380  21.239  0.00  0.00    +0.000 A 
ATOM      7  C   UNL     1       0.537   9.768  20.176  0.00  0.00    +0.000 A 
ATOM      8  N   UNL     1       1.252   8.661  20.451  0.00  0.00    +0.000 NA
ATOM      9  C   UNL     1       1.930   8.124  19.421  0.00  0.00    +0.000 A 
ATOM     10  N   UNL     1       2.710   7.020  19.708  0.00  0.00    +0.000 N 
ATOM     11  N   UNL     1       1.925   8.626  18.174  0.00  0.00    +0.000 NA
ATOM     12  C   UNL     1       1.206   9.739  17.951  0.00  0.00    +0.000 A 
ATOM     13  C   UNL     1       0.471  10.364  18.924  0.00  0.00    +0.000 A 
ATOM     14  C   UNL     1      -0.276  11.653  18.696  0.00  0.00    +0.000 C 
ATOM     15  C   UNL     1      -1.526  11.794  19.587  0.00  0.00    +0.000 C 
ATOM     16  H   UNL     1       2.411   6.630  20.593  0.00  0.00    +0.000 HD
ENDROOT
BRANCH   4  17
ATOM     17  C   UNL     1      -2.893  12.739  22.394  0.00  0.00    +0.000 C 
ATOM     18  N   UNL     1      -2.534  14.050  22.276  0.00  0.00    +0.000 N 
ATOM     19  O   UNL     1      -4.057  12.445  22.634  0.00  0.00    +0.000 OA
ATOM     20  H   UNL     1      -1.590  14.349  22.082  0.00  0.00    +0.000 HD
ATOM     21  H   UNL     1      -3.261  14.743  22.396  0.00  0.00    +0.000 HD
ENDBRANCH   4  17
BRANCH  10  22
ATOM     22  C   UNL     1       2.967   6.069  18.645  0.00  0.00    +0.000 C 
BRANCH  22  23
ATOM     23  C   UNL     1       2.505   4.672  19.003  0.00  0.00    +0.000 A 
ATOM     24  C   UNL     1       3.082   3.988  20.082  0.00  0.00    +0.000 A 
ATOM     25  C   UNL     1       2.629   2.716  20.443  0.00  0.00    +0.000 A 
ATOM     26  C   UNL     1       1.601   2.110  19.723  0.00  0.00    +0.000 A 
ATOM     27  C   UNL     1       1.030   2.771  18.638  0.00  0.00    +0.000 A 
ATOM     28  C   UNL     1       1.480   4.044  18.277  0.00  0.00    +0.000 A 
ENDBRANCH  22  23
ENDBRANCH  10  22
TORSDOF 3
ENDMDL
MODEL 6
REMARK VINA RESULT:      -7.5      1.571      2.788
REMARK  Name = 
REMARK  4 active torsions:
REMARK  status: ('A' for Active; 'I' for Inactive)
REMARK    1  A    between atoms: C_1  and  N_2
REMARK    2  A    between atoms: C_4  and  C_5
REMARK    3  A    between atoms: N_13  and  C_14
REMARK    4  A    between atoms: C_14  and  C_15
REMARK                            x       y       z     vdW  Elec       q    Type
REMARK                         _______ _______ _______ _____ _____    ______ ____
ROOT
ATOM      1  C   UNL     1      -1.600  11.290  17.875  0.00  0.00    +0.000 C 
ATOM      2  N   UNL     1      -1.708  11.635  19.276  0.00  0.00    +0.000 N 
ATOM      3  C   UNL     1      -2.553  12.605  19.773  0.00  0.00    +0.000 A 
ATOM      4  C   UNL     1      -2.415  12.674  21.154  0.00  0.00    +0.000 A 
ATOM      5  C   UNL     1      -1.448  11.677  21.479  0.00  0.00    +0.000 A 
ATOM      6  C   UNL     1      -1.023  11.054  20.311  0.00  0.00    +0.000 A 
ATOM      7  C   UNL     1      -0.035   9.970  20.307  0.00  0.00    +0.000 A 
ATOM      8  N   UNL     1       0.525   9.599  19.140  0.00  0.00    +0.000 NA
ATOM      9  C   UNL     1       1.456   8.631  19.213  0.00  0.00    +0.000 A 
ATOM     10  N   UNL     1       1.996   8.207  18.013  0.00  0.00    +0.000 N 
ATOM     11  N   UNL     1       1.838   8.039  20.358  0.00  0.00    +0.000 NA
ATOM     12  C   UNL     1       1.242   8.435  21.496  0.00  0.00    +0.000 A 
ATOM     13  C   UNL     1       0.288   9.417  21.539  0.00  0.00    +0.000 A 
ATOM     14  C   UNL     1      -0.435   9.812  22.801  0.00  0.00    +0.000 C 
ATOM     15  C   UNL     1      -0.878  11.289  22.808  0.00  0.00    +0.000 C 
ATOM     16  H   UNL     1       1.803   8.902  17.304  0.00  0.00    +0.000 HD
ENDROOT
BRANCH   4  17
ATOM     17  C   UNL     1      -3.099  13.567  22.090  0.00  0.00    +0.000 C 
ATOM     18  N   UNL     1      -4.300  13.136  22.573  0.00  0.00    +0.000 N 
ATOM     19  O   UNL     1      -2.652  14.651  22.446  0.00  0.00    +0.000 OA
ATOM     20  H   UNL     1      -4.716  12.255  22.313  0.00  0.00    +0.000 HD
ATOM     21  H   UNL     1      -4.785  13.744  23.220  0.00  0.00    +0.000 HD
ENDBRANCH   4  17
BRANCH  10  22
ATOM     22  C   UNL     1       3.338   7.659  18.023  0.00  0.00    +0.000 C 
BRANCH  22  23
ATOM     23  C   UNL     1       3.357   6.183  17.688  0.00  0.00    +0.000 A 
ATOM     24  C   UNL     1       4.486   5.604  17.093  0.00  0.00    +0.000 A 
ATOM     25  C   UNL     1       4.525   4.234  16.822  0.00  0.00    +0.000 A 
ATOM     26  C   UNL     1       3.430   3.429  17.134  0.00  0.00    +0.000 A 
ATOM     27  C   UNL     1       2.295   3.994  17.711  0.00  0.00    +0.000 A 
ATOM     28  C   UNL     1       2.256   5.364  17.984  0.00  0.00    +0.000 A 
ENDBRANCH  22  23
ENDBRANCH  10  22
TORSDOF 3
ENDMDL
MODEL 7
REMARK VINA RESULT:      -7.5      4.069      8.957
REMARK  Name = 
REMARK  4 active torsions:
REMARK  status: ('A' for Active; 'I' for Inactive)
REMARK    1  A    between atoms: C_1  and  N_2
REMARK    2  A    between atoms: C_4  and  C_5
REMARK    3  A    between atoms: N_13  and  C_14
REMARK    4  A    between atoms: C_14  and  C_15
REMARK                            x       y       z     vdW  Elec       q    Type
REMARK                         _______ _______ _______ _____ _____    ______ ____
ROOT
ATOM      1  C   UNL     1       4.510   6.857  16.715  0.00  0.00    +0.000 C 
ATOM      2  N   UNL     1       4.061   5.779  17.567  0.00  0.00    +0.000 N 
ATOM      3  C   UNL     1       4.495   4.473  17.460  0.00  0.00    +0.000 A 
ATOM      4  C   UNL     1       3.874   3.699  18.433  0.00  0.00    +0.000 A 
ATOM      5  C   UNL     1       3.046   4.608  19.156  0.00  0.00    +0.000 A 
ATOM      6  C   UNL     1       3.172   5.879  18.605  0.00  0.00    +0.000 A 
ATOM      7  C   UNL     1       2.455   7.044  19.132  0.00  0.00    +0.000 A 
ATOM      8  N   UNL     1       2.411   8.173  18.400  0.00  0.00    +0.000 NA
ATOM      9  C   UNL     1       1.699   9.188  18.920  0.00  0.00    +0.000 A 
ATOM     10  N   UNL     1       1.694  10.368  18.200  0.00  0.00    +0.000 N 
ATOM     11  N   UNL     1       1.051   9.128  20.097  0.00  0.00    +0.000 NA
ATOM     12  C   UNL     1       1.134   7.983  20.798  0.00  0.00    +0.000 A 
ATOM     13  C   UNL     1       1.825   6.884  20.360  0.00  0.00    +0.000 A 
ATOM     14  C   UNL     1       1.981   5.627  21.175  0.00  0.00    +0.000 C 
ATOM     15  C   UNL     1       2.127   4.359  20.311  0.00  0.00    +0.000 C 
ATOM     16  H   UNL     1       1.996  10.174  17.254  0.00  0.00    +0.000 HD
ENDROOT
BRANCH   4  17
ATOM     17  C   UNL     1       4.021   2.264  18.679  0.00  0.00    +0.000 C 
ATOM     18  N   UNL     1       4.890   1.903  19.666  0.00  0.00    +0.000 N 
ATOM     19  O   UNL     1       3.415   1.402  18.055  0.00  0.00    +0.000 OA
ATOM     20  H   UNL     1       5.418   2.569  20.209  0.00  0.00    +0.000 HD
ATOM     21  H   UNL     1       5.003   0.914  19.847  0.00  0.00    +0.000 HD
ENDBRANCH   4  17
BRANCH  10  22
ATOM     22  C   UNL     1       0.551  11.249  18.337  0.00  0.00    +0.000 C 
BRANCH  22  23
ATOM     23  C   UNL     1       0.961  12.697  18.502  0.00  0.00    +0.000 A 
ATOM     24  C   UNL     1       2.302  13.077  18.351  0.00  0.00    +0.000 A 
ATOM     25  C   UNL     1       2.679  14.418  18.459  0.00  0.00    +0.000 A 
ATOM     26  C   UNL     1       1.720  15.393  18.729  0.00  0.00    +0.000 A 
ATOM     27  C   UNL     1       0.386  15.028  18.897  0.00  0.00    +0.000 A 
ATOM     28  C   UNL     1       0.008  13.687  18.788  0.00  0.00    +0.000 A 
ENDBRANCH  22  23
ENDBRANCH  10  22
TORSDOF 3
ENDMDL
MODEL 8
REMARK VINA RESULT:      -7.4      1.723      2.702
REMARK  Name = 
REMARK  4 active torsions:
REMARK  status: ('A' for Active; 'I' for Inactive)
REMARK    1  A    between atoms: C_1  and  N_2
REMARK    2  A    between atoms: C_4  and  C_5
REMARK    3  A    between atoms: N_13  and  C_14
REMARK    4  A    between atoms: C_14  and  C_15
REMARK                            x       y       z     vdW  Elec       q    Type
REMARK                         _______ _______ _______ _____ _____    ______ ____
ROOT
ATOM      1  C   UNL     1       0.304   9.344  23.334  0.00  0.00    +0.000 C 
ATOM      2  N   UNL     1      -0.414  10.326  22.552  0.00  0.00    +0.000 N 
ATOM      3  C   UNL     1      -1.320  11.224  23.078  0.00  0.00    +0.000 A 
ATOM      4  C   UNL     1      -1.817  12.027  22.059  0.00  0.00    +0.000 A 
ATOM      5  C   UNL     1      -1.151  11.583  20.878  0.00  0.00    +0.000 A 
ATOM      6  C   UNL     1      -0.297  10.534  21.203  0.00  0.00    +0.000 A 
ATOM      7  C   UNL     1       0.545   9.863  20.208  0.00  0.00    +0.000 A 
ATOM      8  N   UNL     1       1.138   8.698  20.530  0.00  0.00    +0.000 NA
ATOM      9  C   UNL     1       1.859   8.112  19.557  0.00  0.00    +0.000 A 
ATOM     10  N   UNL     1       2.515   6.944  19.897  0.00  0.00    +0.000 N 
ATOM     11  N   UNL     1       2.007   8.620  18.321  0.00  0.00    +0.000 NA
ATOM     12  C   UNL     1       1.406   9.792  18.050  0.00  0.00    +0.000 A 
ATOM     13  C   UNL     1       0.642  10.471  18.962  0.00  0.00    +0.000 A 
ATOM     14  C   UNL     1       0.028  11.819  18.686  0.00  0.00    +0.000 C 
ATOM     15  C   UNL     1      -1.281  12.059  19.465  0.00  0.00    +0.000 C 
ATOM     16  H   UNL     1       2.106   6.576  20.746  0.00  0.00    +0.000 HD
ENDROOT
BRANCH   4  17
ATOM     17  C   UNL     1      -2.810  13.099  22.153  0.00  0.00    +0.000 C 
ATOM     18  N   UNL     1      -2.366  14.298  22.627  0.00  0.00    +0.000 N 
ATOM     19  O   UNL     1      -3.985  12.967  21.831  0.00  0.00    +0.000 OA
ATOM     20  H   UNL     1      -1.411  14.462  22.909  0.00  0.00    +0.000 HD
ATOM     21  H   UNL     1      -3.041  15.048  22.698  0.00  0.00    +0.000 HD
ENDBRANCH   4  17
BRANCH  10  22
ATOM     22  C   UNL     1       2.786   5.982  18.848  0.00  0.00    +0.000 C 
BRANCH  22  23
ATOM     23  C   UNL     1       4.245   5.968  18.446  0.00  0.00    +0.000 A 
ATOM     24  C   UNL     1       5.202   5.352  19.265  0.00  0.00    +0.000 A 
ATOM     25  C   UNL     1       6.543   5.299  18.878  0.00  0.00    +0.000 A 
ATOM     26  C   UNL     1       6.945   5.870  17.672  0.00  0.00    +0.000 A 
ATOM     27  C   UNL     1       6.008   6.498  16.855  0.00  0.00    +0.000 A 
ATOM     28  C   UNL     1       4.665   6.551  17.240  0.00  0.00    +0.000 A 
ENDBRANCH  22  23
ENDBRANCH  10  22
TORSDOF 3
ENDMDL
MODEL 9
REMARK VINA RESULT:      -7.4      3.777      8.231
REMARK  Name = 
REMARK  4 active torsions:
REMARK  status: ('A' for Active; 'I' for Inactive)
REMARK    1  A    between atoms: C_1  and  N_2
REMARK    2  A    between atoms: C_4  and  C_5
REMARK    3  A    between atoms: N_13  and  C_14
REMARK    4  A    between atoms: C_14  and  C_15
REMARK                            x       y       z     vdW  Elec       q    Type
REMARK                         _______ _______ _______ _____ _____    ______ ____
ROOT
ATOM      1  C   UNL     1       4.027   7.384  16.860  0.00  0.00    +0.000 C 
ATOM      2  N   UNL     1       3.672   6.207  17.623  0.00  0.00    +0.000 N 
ATOM      3  C   UNL     1       4.137   4.937  17.350  0.00  0.00    +0.000 A 
ATOM      4  C   UNL     1       3.612   4.044  18.277  0.00  0.00    +0.000 A 
ATOM      5  C   UNL     1       2.811   4.842  19.146  0.00  0.00    +0.000 A 
ATOM      6  C   UNL     1       2.858   6.167  18.724  0.00  0.00    +0.000 A 
ATOM      7  C   UNL     1       2.146   7.244  19.418  0.00  0.00    +0.000 A 
ATOM      8  N   UNL     1       2.015   8.440  18.813  0.00  0.00    +0.000 NA
ATOM      9  C   UNL     1       1.312   9.369  19.485  0.00  0.00    +0.000 A 
ATOM     10  N   UNL     1       1.219  10.615  18.895  0.00  0.00    +0.000 N 
ATOM     11  N   UNL     1       0.753   9.163  20.690  0.00  0.00    +0.000 NA
ATOM     12  C   UNL     1       0.921   7.957  21.260  0.00  0.00    +0.000 A 
ATOM     13  C   UNL     1       1.611   6.936  20.663  0.00  0.00    +0.000 A 
ATOM     14  C   UNL     1       1.863   5.608  21.329  0.00  0.00    +0.000 C 
ATOM     15  C   UNL     1       1.985   4.441  20.329  0.00  0.00    +0.000 C 
ATOM     16  H   UNL     1       1.459  10.530  17.915  0.00  0.00    +0.000 HD
ENDROOT
BRANCH   4  17
ATOM     17  C   UNL     1       3.820   2.598  18.360  0.00  0.00    +0.000 C 
ATOM     18  N   UNL     1       4.763   2.170  19.247  0.00  0.00    +0.000 N 
ATOM     19  O   UNL     1       3.200   1.783  17.688  0.00  0.00    +0.000 OA
ATOM     20  H   UNL     1       5.304   2.796  19.823  0.00  0.00    +0.000 HD
ATOM     21  H   UNL     1       4.918   1.173  19.315  0.00  0.00    +0.000 HD
ENDBRANCH   4  17
BRANCH  10  22
ATOM     22  C   UNL     1       0.063  11.433  19.202  0.00  0.00    +0.000 C 
BRANCH  22  23
ATOM     23  C   UNL     1      -1.148  11.043  18.382  0.00  0.00    +0.000 A 
ATOM     24  C   UNL     1      -2.354  11.745  18.518  0.00  0.00    +0.000 A 
ATOM     25  C   UNL     1      -3.462  11.417  17.732  0.00  0.00    +0.000 A 
ATOM     26  C   UNL     1      -3.379  10.377  16.808  0.00  0.00    +0.000 A 
ATOM     27  C   UNL     1      -2.192   9.661  16.673  0.00  0.00    +0.000 A 
ATOM     28  C   UNL     1      -1.082   9.989  17.458  0.00  0.00    +0.000 A 
ENDBRANCH  22  23
ENDBRANCH  10  22
TORSDOF 3
ENDMDL
