MODEL 1
REMARK VINA RESULT:      -7.0      0.000      0.000
REMARK  Name = 
REMARK  17 active torsions:
REMARK  status: ('A' for Active; 'I' for Inactive)
REMARK    1  A    between atoms: C_1  and  C_2
REMARK    2  A    between atoms: C_2  and  N_3
REMARK    3  A    between atoms: N_3  and  C_4
REMARK    4  A    between atoms: N_3  and  C_6
REMARK    5  A    between atoms: C_4  and  C_5
REMARK    6  A    between atoms: C_6  and  C_7
REMARK    7  A    between atoms: C_7  and  C_8
REMARK    8  A    between atoms: C_8  and  C_9
REMARK    9  A    between atoms: C_9  and  C_10
REMARK   10  A    between atoms: C_9  and  N_11
REMARK   11  A    between atoms: C_14  and  C_15
REMARK   12  A    between atoms: C_18  and  O_19
REMARK   13  A    between atoms: C_23  and  C_24
REMARK   14  A    between atoms: C_26  and  O_27
REMARK   15  A    between atoms: O_27  and  C_28
REMARK   16  A    between atoms: C_31  and  O_32
REMARK   17  A    between atoms: O_32  and  C_33
REMARK                            x       y       z     vdW  Elec       q    Type
REMARK                         _______ _______ _______ _____ _____    ______ ____
ROOT
ATOM      1  N   UNL     1      -2.630  12.096  17.616  0.00  0.00    +0.000 N 
ATOM      2  C   UNL     1      -1.346  12.061  18.140  0.00  0.00    +0.000 A 
ATOM      3  N   UNL     1      -0.726  10.887  18.322  0.00  0.00    +0.000 NA
ATOM      4  C   UNL     1       0.530  10.905  18.794  0.00  0.00    +0.000 A 
ATOM      5  C   UNL     1       1.195  12.087  19.004  0.00  0.00    +0.000 A 
ATOM      6  C   UNL     1       0.477  13.265  18.849  0.00  0.00    +0.000 A 
ATOM      7  N   UNL     1      -0.810  13.244  18.458  0.00  0.00    +0.000 NA
ATOM      8  H   UNL     1      -3.204  12.548  18.319  0.00  0.00    +0.000 HD
ENDROOT
BRANCH   4   9
ATOM      9  C   UNL     1       1.114   9.585  19.139  0.00  0.00    +0.000 A 
ATOM     10  C   UNL     1       1.002   9.058  20.440  0.00  0.00    +0.000 A 
ATOM     11  C   UNL     1       1.570   7.824  20.781  0.00  0.00    +0.000 A 
ATOM     12  C   UNL     1       2.273   7.106  19.822  0.00  0.00    +0.000 A 
ATOM     13  C   UNL     1       2.420   7.603  18.536  0.00  0.00    +0.000 A 
ATOM     14  C   UNL     1       1.849   8.834  18.199  0.00  0.00    +0.000 A 
BRANCH  12  15
ATOM     15  O   UNL     1       2.848   5.904  20.108  0.00  0.00    +0.000 OA
ATOM     16  H   UNL     1       2.376   5.210  19.620  0.00  0.00    +0.000 HD
ENDBRANCH  12  15
ENDBRANCH   4   9
BRANCH   6  17
ATOM     17  C   UNL     1       1.046  14.577  19.256  0.00  0.00    +0.000 A 
ATOM     18  C   UNL     1       2.117  15.097  18.488  0.00  0.00    +0.000 A 
ATOM     19  C   UNL     1       2.743  16.305  18.790  0.00  0.00    +0.000 A 
ATOM     20  C   UNL     1       2.303  17.034  19.882  0.00  0.00    +0.000 A 
ATOM     21  C   UNL     1       1.253  16.557  20.668  0.00  0.00    +0.000 A 
ATOM     22  C   UNL     1       0.628  15.333  20.378  0.00  0.00    +0.000 A 
BRANCH  19  23
ATOM     23  O   UNL     1       3.781  16.858  18.093  0.00  0.00    +0.000 OA
ATOM     24  C   UNL     1       5.065  16.802  18.706  0.00  0.00    +0.000 C 
ENDBRANCH  19  23
BRANCH  22  25
ATOM     25  O   UNL     1      -0.440  14.880  21.117  0.00  0.00    +0.000 OA
ATOM     26  C   UNL     1      -0.125  14.332  22.396  0.00  0.00    +0.000 C 
ENDBRANCH  22  25
ENDBRANCH   6  17
BRANCH   1  27
ATOM     27  C   UNL     1      -3.171  10.862  17.054  0.00  0.00    +0.000 C 
ATOM     28  C   UNL     1      -2.612  10.670  15.634  0.00  0.00    +0.000 C 
BRANCH  27  29
ATOM     29  C   UNL     1      -4.708  10.994  17.011  0.00  0.00    +0.000 C 
BRANCH  29  30
ATOM     30  C   UNL     1      -5.330  11.673  18.240  0.00  0.00    +0.000 C 
BRANCH  30  31
ATOM     31  C   UNL     1      -6.859  11.536  18.342  0.00  0.00    +0.000 C 
BRANCH  31  32
ATOM     32  N   UNL     1      -7.325  10.829  19.549  0.00  0.00    +0.000 NA
BRANCH  32  34
ATOM     33  C   UNL     1      -7.651   8.537  20.568  0.00  0.00    +0.000 C 
ATOM     34  C   UNL     1      -6.976   9.398  19.507  0.00  0.00    +0.000 C 
ENDBRANCH  32  34
BRANCH  32  35
ATOM     35  C   UNL     1      -6.890  11.515  20.779  0.00  0.00    +0.000 C 
ATOM     36  C   UNL     1      -7.475  12.904  21.025  0.00  0.00    +0.000 C 
ENDBRANCH  32  35
ENDBRANCH  31  32
ENDBRANCH  30  31
ENDBRANCH  29  30
ENDBRANCH  27  29
ENDBRANCH   1  27
TORSDOF 12
ENDMDL
MODEL 2
REMARK VINA RESULT:      -7.0      2.831      8.822
REMARK  Name = 
REMARK  17 active torsions:
REMARK  status: ('A' for Active; 'I' for Inactive)
REMARK    1  A    between atoms: C_1  and  C_2
REMARK    2  A    between atoms: C_2  and  N_3
REMARK    3  A    between atoms: N_3  and  C_4
REMARK    4  A    between atoms: N_3  and  C_6
REMARK    5  A    between atoms: C_4  and  C_5
REMARK    6  A    between atoms: C_6  and  C_7
REMARK    7  A    between atoms: C_7  and  C_8
REMARK    8  A    between atoms: C_8  and  C_9
REMARK    9  A    between atoms: C_9  and  C_10
REMARK   10  A    between atoms: C_9  and  N_11
REMARK   11  A    between atoms: C_14  and  C_15
REMARK   12  A    between atoms: C_18  and  O_19
REMARK   13  A    between atoms: C_23  and  C_24
REMARK   14  A    between atoms: C_26  and  O_27
REMARK   15  A    between atoms: O_27  and  C_28
REMARK   16  A    between atoms: C_31  and  O_32
REMARK   17  A    between atoms: O_32  and  C_33
REMARK                            x       y       z     vdW  Elec       q    Type
REMARK                         _______ _______ _______ _____ _____    ______ ____
ROOT
ATOM      1  N   UNL     1       1.312  13.845  18.800  0.00  0.00    +0.000 N 
ATOM      2  C   UNL     1       0.637  12.635  18.764  0.00  0.00    +0.000 A 
ATOM      3  N   UNL     1       1.299  11.488  18.977  0.00  0.00    +0.000 NA
ATOM      4  C   UNL     1       0.596  10.345  18.972  0.00  0.00    +0.000 A 
ATOM      5  C   UNL     1      -0.770  10.350  18.839  0.00  0.00    +0.000 A 
ATOM      6  C   UNL     1      -1.386  11.564  18.567  0.00  0.00    +0.000 A 
ATOM      7  N   UNL     1      -0.670  12.700  18.487  0.00  0.00    +0.000 NA
ATOM      8  H   UNL     1       1.183  14.263  17.885  0.00  0.00    +0.000 HD
ENDROOT
BRANCH   4   9
ATOM      9  C   UNL     1       1.390   9.094  19.043  0.00  0.00    +0.000 A 
ATOM     10  C   UNL     1       2.120   8.632  17.931  0.00  0.00    +0.000 A 
ATOM     11  C   UNL     1       2.854   7.440  17.980  0.00  0.00    +0.000 A 
ATOM     12  C   UNL     1       2.853   6.685  19.146  0.00  0.00    +0.000 A 
ATOM     13  C   UNL     1       2.131   7.099  20.254  0.00  0.00    +0.000 A 
ATOM     14  C   UNL     1       1.402   8.290  20.201  0.00  0.00    +0.000 A 
BRANCH  12  15
ATOM     15  O   UNL     1       3.547   5.515  19.240  0.00  0.00    +0.000 OA
ATOM     16  H   UNL     1       2.922   4.799  19.435  0.00  0.00    +0.000 HD
ENDBRANCH  12  15
ENDBRANCH   4   9
BRANCH   6  17
ATOM     17  C   UNL     1      -2.825  11.636  18.198  0.00  0.00    +0.000 A 
ATOM     18  C   UNL     1      -3.738  12.064  19.195  0.00  0.00    +0.000 A 
ATOM     19  C   UNL     1      -5.110  12.148  18.971  0.00  0.00    +0.000 A 
ATOM     20  C   UNL     1      -5.610  11.804  17.725  0.00  0.00    +0.000 A 
ATOM     21  C   UNL     1      -4.746  11.375  16.716  0.00  0.00    +0.000 A 
ATOM     22  C   UNL     1      -3.363  11.273  16.941  0.00  0.00    +0.000 A 
BRANCH  19  23
ATOM     23  O   UNL     1      -6.042  12.547  19.888  0.00  0.00    +0.000 OA
ATOM     24  C   UNL     1      -7.409  12.338  19.546  0.00  0.00    +0.000 C 
ENDBRANCH  19  23
BRANCH  22  25
ATOM     25  O   UNL     1      -2.499  10.899  15.938  0.00  0.00    +0.000 OA
ATOM     26  C   UNL     1      -3.097  10.277  14.801  0.00  0.00    +0.000 C 
ENDBRANCH  22  25
ENDBRANCH   6  17
BRANCH   1  27
ATOM     27  C   UNL     1       2.680  13.848  19.309  0.00  0.00    +0.000 C 
ATOM     28  C   UNL     1       2.832  14.986  20.334  0.00  0.00    +0.000 C 
BRANCH  27  29
ATOM     29  C   UNL     1       3.632  14.073  18.115  0.00  0.00    +0.000 C 
BRANCH  29  30
ATOM     30  C   UNL     1       4.779  15.056  18.384  0.00  0.00    +0.000 C 
BRANCH  30  31
ATOM     31  C   UNL     1       6.122  14.663  17.745  0.00  0.00    +0.000 C 
BRANCH  31  32
ATOM     32  N   UNL     1       7.282  14.787  18.646  0.00  0.00    +0.000 NA
BRANCH  32  34
ATOM     33  C   UNL     1       7.930  12.754  17.287  0.00  0.00    +0.000 C 
ATOM     34  C   UNL     1       8.321  13.790  18.333  0.00  0.00    +0.000 C 
ENDBRANCH  32  34
BRANCH  32  35
ATOM     35  C   UNL     1       7.780  16.174  18.697  0.00  0.00    +0.000 C 
ATOM     36  C   UNL     1       9.119  16.441  18.014  0.00  0.00    +0.000 C 
ENDBRANCH  32  35
ENDBRANCH  31  32
ENDBRANCH  30  31
ENDBRANCH  29  30
ENDBRANCH  27  29
ENDBRANCH   1  27
TORSDOF 12
ENDMDL
MODEL 3
REMARK VINA RESULT:      -6.7      2.878      8.797
REMARK  Name = 
REMARK  17 active torsions:
REMARK  status: ('A' for Active; 'I' for Inactive)
REMARK    1  A    between atoms: C_1  and  C_2
REMARK    2  A    between atoms: C_2  and  N_3
REMARK    3  A    between atoms: N_3  and  C_4
REMARK    4  A    between atoms: N_3  and  C_6
REMARK    5  A    between atoms: C_4  and  C_5
REMARK    6  A    between atoms: C_6  and  C_7
REMARK    7  A    between atoms: C_7  and  C_8
REMARK    8  A    between atoms: C_8  and  C_9
REMARK    9  A    between atoms: C_9  and  C_10
REMARK   10  A    between atoms: C_9  and  N_11
REMARK   11  A    between atoms: C_14  and  C_15
REMARK   12  A    between atoms: C_18  and  O_19
REMARK   13  A    between atoms: C_23  and  C_24
REMARK   14  A    between atoms: C_26  and  O_27
REMARK   15  A    between atoms: O_27  and  C_28
REMARK   16  A    between atoms: C_31  and  O_32
REMARK   17  A    between atoms: O_32  and  C_33
REMARK                            x       y       z     vdW  Elec       q    Type
REMARK                         _______ _______ _______ _____ _____    ______ ____
ROOT
ATOM      1  N   UNL     1       1.323  13.812  18.819  0.00  0.00    +0.000 N 
ATOM      2  C   UNL     1       0.655  12.599  18.735  0.00  0.00    +0.000 A 
ATOM      3  N   UNL     1       1.323  11.450  18.909  0.00  0.00    +0.000 NA
ATOM      4  C   UNL     1       0.628  10.303  18.859  0.00  0.00    +0.000 A 
ATOM      5  C   UNL     1      -0.738  10.305  18.720  0.00  0.00    +0.000 A 
ATOM      6  C   UNL     1      -1.360  11.524  18.489  0.00  0.00    +0.000 A 
ATOM      7  N   UNL     1      -0.651  12.666  18.454  0.00  0.00    +0.000 NA
ATOM      8  H   UNL     1       1.195  14.261  17.918  0.00  0.00    +0.000 HD
ENDROOT
BRANCH   4   9
ATOM      9  C   UNL     1       1.429   9.055  18.888  0.00  0.00    +0.000 A 
ATOM     10  C   UNL     1       1.447   8.229  20.028  0.00  0.00    +0.000 A 
ATOM     11  C   UNL     1       2.218   7.061  20.074  0.00  0.00    +0.000 A 
ATOM     12  C   UNL     1       2.998   6.713  18.978  0.00  0.00    +0.000 A 
ATOM     13  C   UNL     1       3.020   7.512  17.846  0.00  0.00    +0.000 A 
ATOM     14  C   UNL     1       2.246   8.676  17.803  0.00  0.00    +0.000 A 
BRANCH  12  15
ATOM     15  O   UNL     1       3.770   5.589  18.978  0.00  0.00    +0.000 OA
ATOM     16  H   UNL     1       3.883   5.291  19.895  0.00  0.00    +0.000 HD
ENDBRANCH  12  15
ENDBRANCH   4   9
BRANCH   6  17
ATOM     17  C   UNL     1      -2.798  11.601  18.117  0.00  0.00    +0.000 A 
ATOM     18  C   UNL     1      -3.714  12.016  19.116  0.00  0.00    +0.000 A 
ATOM     19  C   UNL     1      -5.086  12.102  18.888  0.00  0.00    +0.000 A 
ATOM     20  C   UNL     1      -5.581  11.775  17.637  0.00  0.00    +0.000 A 
ATOM     21  C   UNL     1      -4.714  11.359  16.625  0.00  0.00    +0.000 A 
ATOM     22  C   UNL     1      -3.332  11.254  16.853  0.00  0.00    +0.000 A 
BRANCH  19  23
ATOM     23  O   UNL     1      -6.021  12.490  19.808  0.00  0.00    +0.000 OA
ATOM     24  C   UNL     1      -7.346  12.008  19.616  0.00  0.00    +0.000 C 
ENDBRANCH  19  23
BRANCH  22  25
ATOM     25  O   UNL     1      -2.465  10.893  15.848  0.00  0.00    +0.000 OA
ATOM     26  C   UNL     1      -3.052  10.240  14.724  0.00  0.00    +0.000 C 
ENDBRANCH  22  25
ENDBRANCH   6  17
BRANCH   1  27
ATOM     27  C   UNL     1       2.689  13.804  19.334  0.00  0.00    +0.000 C 
ATOM     28  C   UNL     1       2.785  14.787  20.513  0.00  0.00    +0.000 C 
BRANCH  27  29
ATOM     29  C   UNL     1       3.630  14.244  18.192  0.00  0.00    +0.000 C 
BRANCH  29  30
ATOM     30  C   UNL     1       4.919  14.937  18.653  0.00  0.00    +0.000 C 
BRANCH  30  31
ATOM     31  C   UNL     1       6.160  14.613  17.803  0.00  0.00    +0.000 C 
BRANCH  31  32
ATOM     32  N   UNL     1       7.437  14.707  18.533  0.00  0.00    +0.000 NA
BRANCH  32  34
ATOM     33  C   UNL     1       7.700  16.048  20.662  0.00  0.00    +0.000 C 
ATOM     34  C   UNL     1       7.226  14.766  19.990  0.00  0.00    +0.000 C 
ENDBRANCH  32  34
BRANCH  32  35
ATOM     35  C   UNL     1       8.382  13.659  18.107  0.00  0.00    +0.000 C 
ATOM     36  C   UNL     1       9.418  13.219  19.137  0.00  0.00    +0.000 C 
ENDBRANCH  32  35
ENDBRANCH  31  32
ENDBRANCH  30  31
ENDBRANCH  29  30
ENDBRANCH  27  29
ENDBRANCH   1  27
TORSDOF 12
ENDMDL
MODEL 4
REMARK VINA RESULT:      -6.7      2.932      7.060
REMARK  Name = 
REMARK  17 active torsions:
REMARK  status: ('A' for Active; 'I' for Inactive)
REMARK    1  A    between atoms: C_1  and  C_2
REMARK    2  A    between atoms: C_2  and  N_3
REMARK    3  A    between atoms: N_3  and  C_4
REMARK    4  A    between atoms: N_3  and  C_6
REMARK    5  A    between atoms: C_4  and  C_5
REMARK    6  A    between atoms: C_6  and  C_7
REMARK    7  A    between atoms: C_7  and  C_8
REMARK    8  A    between atoms: C_8  and  C_9
REMARK    9  A    between atoms: C_9  and  C_10
REMARK   10  A    between atoms: C_9  and  N_11
REMARK   11  A    between atoms: C_14  and  C_15
REMARK   12  A    between atoms: C_18  and  O_19
REMARK   13  A    between atoms: C_23  and  C_24
REMARK   14  A    between atoms: C_26  and  O_27
REMARK   15  A    between atoms: O_27  and  C_28
REMARK   16  A    between atoms: C_31  and  O_32
REMARK   17  A    between atoms: O_32  and  C_33
REMARK                            x       y       z     vdW  Elec       q    Type
REMARK                         _______ _______ _______ _____ _____    ______ ____
ROOT
ATOM      1  N   UNL     1       1.222  13.684  19.669  0.00  0.00    +0.000 N 
ATOM      2  C   UNL     1       0.577  12.529  19.253  0.00  0.00    +0.000 A 
ATOM      3  N   UNL     1      -0.696  12.583  18.835  0.00  0.00    +0.000 NA
ATOM      4  C   UNL     1      -1.266  11.446  18.404  0.00  0.00    +0.000 A 
ATOM      5  C   UNL     1      -0.547  10.281  18.312  0.00  0.00    +0.000 A 
ATOM      6  C   UNL     1       0.748  10.281  18.813  0.00  0.00    +0.000 A 
ATOM      7  N   UNL     1       1.291  11.400  19.324  0.00  0.00    +0.000 NA
ATOM      8  H   UNL     1       1.494  13.518  20.632  0.00  0.00    +0.000 HD
ENDROOT
BRANCH   4   9
ATOM      9  C   UNL     1      -2.719  11.518  18.112  0.00  0.00    +0.000 A 
ATOM     10  C   UNL     1      -3.224  11.158  16.848  0.00  0.00    +0.000 A 
ATOM     11  C   UNL     1      -4.591  11.245  16.554  0.00  0.00    +0.000 A 
ATOM     12  C   UNL     1      -5.471  11.710  17.524  0.00  0.00    +0.000 A 
ATOM     13  C   UNL     1      -5.006  12.090  18.773  0.00  0.00    +0.000 A 
ATOM     14  C   UNL     1      -3.641  12.000  19.063  0.00  0.00    +0.000 A 
BRANCH  12  15
ATOM     15  O   UNL     1      -6.808  11.817  17.284  0.00  0.00    +0.000 OA
ATOM     16  H   UNL     1      -7.281  11.759  18.130  0.00  0.00    +0.000 HD
ENDBRANCH  12  15
ENDBRANCH   4   9
BRANCH   6  17
ATOM     17  C   UNL     1       1.524   9.020  18.950  0.00  0.00    +0.000 A 
ATOM     18  C   UNL     1       2.384   8.659  17.883  0.00  0.00    +0.000 A 
ATOM     19  C   UNL     1       3.142   7.489  17.891  0.00  0.00    +0.000 A 
ATOM     20  C   UNL     1       3.059   6.643  18.985  0.00  0.00    +0.000 A 
ATOM     21  C   UNL     1       2.222   6.960  20.056  0.00  0.00    +0.000 A 
ATOM     22  C   UNL     1       1.444   8.129  20.047  0.00  0.00    +0.000 A 
BRANCH  19  23
ATOM     23  O   UNL     1       3.984   7.081  16.895  0.00  0.00    +0.000 OA
ATOM     24  C   UNL     1       4.526   5.770  17.010  0.00  0.00    +0.000 C 
ENDBRANCH  19  23
BRANCH  22  25
ATOM     25  O   UNL     1       0.655   8.474  21.120  0.00  0.00    +0.000 OA
ATOM     26  C   UNL     1       1.322   9.129  22.198  0.00  0.00    +0.000 C 
ENDBRANCH  22  25
ENDBRANCH   6  17
BRANCH   1  27
ATOM     27  C   UNL     1       0.567  14.962  19.408  0.00  0.00    +0.000 C 
ATOM     28  C   UNL     1       1.611  15.961  18.880  0.00  0.00    +0.000 C 
BRANCH  27  29
ATOM     29  C   UNL     1      -0.034  15.468  20.737  0.00  0.00    +0.000 C 
BRANCH  29  30
ATOM     30  C   UNL     1      -1.567  15.461  20.793  0.00  0.00    +0.000 C 
BRANCH  30  31
ATOM     31  C   UNL     1      -2.164  16.030  22.092  0.00  0.00    +0.000 C 
BRANCH  31  32
ATOM     32  N   UNL     1      -2.792  15.021  22.964  0.00  0.00    +0.000 NA
BRANCH  32  34
ATOM     33  C   UNL     1      -3.520  12.602  22.826  0.00  0.00    +0.000 C 
ATOM     34  C   UNL     1      -3.484  13.982  22.181  0.00  0.00    +0.000 C 
ENDBRANCH  32  34
BRANCH  32  35
ATOM     35  C   UNL     1      -1.834  14.489  23.950  0.00  0.00    +0.000 C 
ATOM     36  C   UNL     1      -1.072  15.518  24.782  0.00  0.00    +0.000 C 
ENDBRANCH  32  35
ENDBRANCH  31  32
ENDBRANCH  30  31
ENDBRANCH  29  30
ENDBRANCH  27  29
ENDBRANCH   1  27
TORSDOF 12
ENDMDL
MODEL 5
REMARK VINA RESULT:      -6.7      2.798      8.038
REMARK  Name = 
REMARK  17 active torsions:
REMARK  status: ('A' for Active; 'I' for Inactive)
REMARK    1  A    between atoms: C_1  and  C_2
REMARK    2  A    between atoms: C_2  and  N_3
REMARK    3  A    between atoms: N_3  and  C_4
REMARK    4  A    between atoms: N_3  and  C_6
REMARK    5  A    between atoms: C_4  and  C_5
REMARK    6  A    between atoms: C_6  and  C_7
REMARK    7  A    between atoms: C_7  and  C_8
REMARK    8  A    between atoms: C_8  and  C_9
REMARK    9  A    between atoms: C_9  and  C_10
REMARK   10  A    between atoms: C_9  and  N_11
REMARK   11  A    between atoms: C_14  and  C_15
REMARK   12  A    between atoms: C_18  and  O_19
REMARK   13  A    between atoms: C_23  and  C_24
REMARK   14  A    between atoms: C_26  and  O_27
REMARK   15  A    between atoms: O_27  and  C_28
REMARK   16  A    between atoms: C_31  and  O_32
REMARK   17  A    between atoms: O_32  and  C_33
REMARK                            x       y       z     vdW  Elec       q    Type
REMARK                         _______ _______ _______ _____ _____    ______ ____
ROOT
ATOM      1  N   UNL     1       0.257   9.452  19.825  0.00  0.00    +0.000 N 
ATOM      2  C   UNL     1      -0.198  10.750  19.649  0.00  0.00    +0.000 A 
ATOM      3  N   UNL     1       0.644  11.707  19.234  0.00  0.00    +0.000 NA
ATOM      4  C   UNL     1       0.149  12.940  19.040  0.00  0.00    +0.000 A 
ATOM      5  C   UNL     1      -1.192  13.198  19.177  0.00  0.00    +0.000 A 
ATOM      6  C   UNL     1      -1.998  12.177  19.661  0.00  0.00    +0.000 A 
ATOM      7  N   UNL     1      -1.486  10.965  19.939  0.00  0.00    +0.000 NA
ATOM      8  H   UNL     1       0.089   9.229  20.801  0.00  0.00    +0.000 HD
ENDROOT
BRANCH   4   9
ATOM      9  C   UNL     1       1.145  14.000  18.746  0.00  0.00    +0.000 A 
ATOM     10  C   UNL     1       2.447  13.677  18.321  0.00  0.00    +0.000 A 
ATOM     11  C   UNL     1       3.401  14.670  18.063  0.00  0.00    +0.000 A 
ATOM     12  C   UNL     1       3.064  16.005  18.244  0.00  0.00    +0.000 A 
ATOM     13  C   UNL     1       1.797  16.360  18.680  0.00  0.00    +0.000 A 
ATOM     14  C   UNL     1       0.847  15.366  18.933  0.00  0.00    +0.000 A 
BRANCH  12  15
ATOM     15  O   UNL     1       3.959  17.006  18.012  0.00  0.00    +0.000 OA
ATOM     16  H   UNL     1       3.601  17.589  17.324  0.00  0.00    +0.000 HD
ENDBRANCH  12  15
ENDBRANCH   4   9
BRANCH   6  17
ATOM     17  C   UNL     1      -3.414  12.424  20.042  0.00  0.00    +0.000 A 
ATOM     18  C   UNL     1      -4.409  12.183  19.062  0.00  0.00    +0.000 A 
ATOM     19  C   UNL     1      -5.765  12.401  19.298  0.00  0.00    +0.000 A 
ATOM     20  C   UNL     1      -6.164  12.870  20.539  0.00  0.00    +0.000 A 
ATOM     21  C   UNL     1      -5.216  13.124  21.532  0.00  0.00    +0.000 A 
ATOM     22  C   UNL     1      -3.846  12.920  21.295  0.00  0.00    +0.000 A 
BRANCH  19  23
ATOM     23  O   UNL     1      -6.772  12.193  18.397  0.00  0.00    +0.000 OA
ATOM     24  C   UNL     1      -6.655  12.851  17.141  0.00  0.00    +0.000 C 
ENDBRANCH  19  23
BRANCH  22  25
ATOM     25  O   UNL     1      -2.910  13.120  22.283  0.00  0.00    +0.000 OA
ATOM     26  C   UNL     1      -2.921  12.175  23.352  0.00  0.00    +0.000 C 
ENDBRANCH  22  25
ENDBRANCH   6  17
BRANCH   1  27
ATOM     27  C   UNL     1       1.586   9.120  19.320  0.00  0.00    +0.000 C 
ATOM     28  C   UNL     1       1.512   8.947  17.793  0.00  0.00    +0.000 C 
BRANCH  27  29
ATOM     29  C   UNL     1       2.033   7.802  19.987  0.00  0.00    +0.000 C 
BRANCH  29  30
ATOM     30  C   UNL     1       2.596   6.751  19.021  0.00  0.00    +0.000 C 
BRANCH  30  31
ATOM     31  C   UNL     1       3.230   5.527  19.704  0.00  0.00    +0.000 C 
BRANCH  31  32
ATOM     32  N   UNL     1       2.484   4.271  19.514  0.00  0.00    +0.000 NA
BRANCH  32  34
ATOM     33  C   UNL     1       1.333   2.863  21.273  0.00  0.00    +0.000 C 
ATOM     34  C   UNL     1       1.365   4.155  20.466  0.00  0.00    +0.000 C 
ENDBRANCH  32  34
BRANCH  32  35
ATOM     35  C   UNL     1       2.092   4.083  18.105  0.00  0.00    +0.000 C 
ATOM     36  C   UNL     1       2.472   2.749  17.466  0.00  0.00    +0.000 C 
ENDBRANCH  32  35
ENDBRANCH  31  32
ENDBRANCH  30  31
ENDBRANCH  29  30
ENDBRANCH  27  29
ENDBRANCH   1  27
TORSDOF 12
ENDMDL
MODEL 6
REMARK VINA RESULT:      -6.7      2.685      8.582
REMARK  Name = 
REMARK  17 active torsions:
REMARK  status: ('A' for Active; 'I' for Inactive)
REMARK    1  A    between atoms: C_1  and  C_2
REMARK    2  A    between atoms: C_2  and  N_3
REMARK    3  A    between atoms: N_3  and  C_4
REMARK    4  A    between atoms: N_3  and  C_6
REMARK    5  A    between atoms: C_4  and  C_5
REMARK    6  A    between atoms: C_6  and  C_7
REMARK    7  A    between atoms: C_7  and  C_8
REMARK    8  A    between atoms: C_8  and  C_9
REMARK    9  A    between atoms: C_9  and  C_10
REMARK   10  A    between atoms: C_9  and  N_11
REMARK   11  A    between atoms: C_14  and  C_15
REMARK   12  A    between atoms: C_18  and  O_19
REMARK   13  A    between atoms: C_23  and  C_24
REMARK   14  A    between atoms: C_26  and  O_27
REMARK   15  A    between atoms: O_27  and  C_28
REMARK   16  A    between atoms: C_31  and  O_32
REMARK   17  A    between atoms: O_32  and  C_33
REMARK                            x       y       z     vdW  Elec       q    Type
REMARK                         _______ _______ _______ _____ _____    ______ ____
ROOT
ATOM      1  N   UNL     1       1.221  13.914  18.695  0.00  0.00    +0.000 N 
ATOM      2  C   UNL     1       0.557  12.697  18.665  0.00  0.00    +0.000 A 
ATOM      3  N   UNL     1       1.237  11.555  18.843  0.00  0.00    +0.000 NA
ATOM      4  C   UNL     1       0.547  10.405  18.846  0.00  0.00    +0.000 A 
ATOM      5  C   UNL     1      -0.823  10.397  18.757  0.00  0.00    +0.000 A 
ATOM      6  C   UNL     1      -1.460  11.607  18.520  0.00  0.00    +0.000 A 
ATOM      7  N   UNL     1      -0.758  12.752  18.431  0.00  0.00    +0.000 NA
ATOM      8  H   UNL     1       1.058  14.341  17.789  0.00  0.00    +0.000 HD
ENDROOT
BRANCH   4   9
ATOM      9  C   UNL     1       1.355   9.161  18.876  0.00  0.00    +0.000 A 
ATOM     10  C   UNL     1       1.398   8.350  20.026  0.00  0.00    +0.000 A 
ATOM     11  C   UNL     1       2.177   7.186  20.072  0.00  0.00    +0.000 A 
ATOM     12  C   UNL     1       2.938   6.828  18.966  0.00  0.00    +0.000 A 
ATOM     13  C   UNL     1       2.934   7.613  17.824  0.00  0.00    +0.000 A 
ATOM     14  C   UNL     1       2.154   8.772  17.781  0.00  0.00    +0.000 A 
BRANCH  12  15
ATOM     15  O   UNL     1       3.715   5.709  18.966  0.00  0.00    +0.000 OA
ATOM     16  H   UNL     1       3.929   5.480  19.885  0.00  0.00    +0.000 HD
ENDBRANCH  12  15
ENDBRANCH   4   9
BRANCH   6  17
ATOM     17  C   UNL     1      -2.911  11.669  18.199  0.00  0.00    +0.000 A 
ATOM     18  C   UNL     1      -3.804  11.987  19.253  0.00  0.00    +0.000 A 
ATOM     19  C   UNL     1      -5.184  12.050  19.075  0.00  0.00    +0.000 A 
ATOM     20  C   UNL     1      -5.712  11.796  17.819  0.00  0.00    +0.000 A 
ATOM     21  C   UNL     1      -4.868  11.476  16.755  0.00  0.00    +0.000 A 
ATOM     22  C   UNL     1      -3.477  11.395  16.931  0.00  0.00    +0.000 A 
BRANCH  19  23
ATOM     23  O   UNL     1      -6.098  12.347  20.047  0.00  0.00    +0.000 OA
ATOM     24  C   UNL     1      -7.232  11.492  20.143  0.00  0.00    +0.000 C 
ENDBRANCH  19  23
BRANCH  22  25
ATOM     25  O   UNL     1      -2.634  11.130  15.877  0.00  0.00    +0.000 OA
ATOM     26  C   UNL     1      -2.892   9.921  15.163  0.00  0.00    +0.000 C 
ENDBRANCH  22  25
ENDBRANCH   6  17
BRANCH   1  27
ATOM     27  C   UNL     1       2.605  13.925  19.160  0.00  0.00    +0.000 C 
ATOM     28  C   UNL     1       2.619  13.841  20.695  0.00  0.00    +0.000 C 
BRANCH  27  29
ATOM     29  C   UNL     1       3.253  15.245  18.690  0.00  0.00    +0.000 C 
BRANCH  29  30
ATOM     30  C   UNL     1       4.465  15.072  17.765  0.00  0.00    +0.000 C 
BRANCH  30  31
ATOM     31  C   UNL     1       5.782  15.642  18.320  0.00  0.00    +0.000 C 
BRANCH  31  32
ATOM     32  N   UNL     1       6.687  14.630  18.895  0.00  0.00    +0.000 NA
BRANCH  32  34
ATOM     33  C   UNL     1       9.171  14.344  18.513  0.00  0.00    +0.000 C 
ATOM     34  C   UNL     1       7.757  14.261  17.952  0.00  0.00    +0.000 C 
ENDBRANCH  32  34
BRANCH  32  35
ATOM     35  C   UNL     1       7.175  15.036  20.226  0.00  0.00    +0.000 C 
ATOM     36  C   UNL     1       6.205  14.853  21.390  0.00  0.00    +0.000 C 
ENDBRANCH  32  35
ENDBRANCH  31  32
ENDBRANCH  30  31
ENDBRANCH  29  30
ENDBRANCH  27  29
ENDBRANCH   1  27
TORSDOF 12
ENDMDL
MODEL 7
REMARK VINA RESULT:      -6.6      3.341      7.243
REMARK  Name = 
REMARK  17 active torsions:
REMARK  status: ('A' for Active; 'I' for Inactive)
REMARK    1  A    between atoms: C_1  and  C_2
REMARK    2  A    between atoms: C_2  and  N_3
REMARK    3  A    between atoms: N_3  and  C_4
REMARK    4  A    between atoms: N_3  and  C_6
REMARK    5  A    between atoms: C_4  and  C_5
REMARK    6  A    between atoms: C_6  and  C_7
REMARK    7  A    between atoms: C_7  and  C_8
REMARK    8  A    between atoms: C_8  and  C_9
REMARK    9  A    between atoms: C_9  and  C_10
REMARK   10  A    between atoms: C_9  and  N_11
REMARK   11  A    between atoms: C_14  and  C_15
REMARK   12  A    between atoms: C_18  and  O_19
REMARK   13  A    between atoms: C_23  and  C_24
REMARK   14  A    between atoms: C_26  and  O_27
REMARK   15  A    between atoms: O_27  and  C_28
REMARK   16  A    between atoms: C_31  and  O_32
REMARK   17  A    between atoms: O_32  and  C_33
REMARK                            x       y       z     vdW  Elec       q    Type
REMARK                         _______ _______ _______ _____ _____    ______ ____
ROOT
ATOM      1  N   UNL     1       1.311   9.113  20.657  0.00  0.00    +0.000 N 
ATOM      2  C   UNL     1       0.320  10.049  20.402  0.00  0.00    +0.000 A 
ATOM      3  N   UNL     1      -0.493   9.896  19.347  0.00  0.00    +0.000 NA
ATOM      4  C   UNL     1      -1.462  10.806  19.162  0.00  0.00    +0.000 A 
ATOM      5  C   UNL     1      -1.674  11.813  20.070  0.00  0.00    +0.000 A 
ATOM      6  C   UNL     1      -0.764  11.947  21.109  0.00  0.00    +0.000 A 
ATOM      7  N   UNL     1       0.260  11.085  21.245  0.00  0.00    +0.000 NA
ATOM      8  H   UNL     1       2.188   9.622  20.628  0.00  0.00    +0.000 HD
ENDROOT
BRANCH   4   9
ATOM      9  C   UNL     1      -2.227  10.693  17.896  0.00  0.00    +0.000 A 
ATOM     10  C   UNL     1      -3.420  11.414  17.701  0.00  0.00    +0.000 A 
ATOM     11  C   UNL     1      -4.162  11.297  16.518  0.00  0.00    +0.000 A 
ATOM     12  C   UNL     1      -3.721  10.440  15.517  0.00  0.00    +0.000 A 
ATOM     13  C   UNL     1      -2.560   9.701  15.682  0.00  0.00    +0.000 A 
ATOM     14  C   UNL     1      -1.822   9.823  16.863  0.00  0.00    +0.000 A 
BRANCH  12  15
ATOM     15  O   UNL     1      -4.411  10.288  14.352  0.00  0.00    +0.000 OA
ATOM     16  H   UNL     1      -3.867   9.773  13.734  0.00  0.00    +0.000 HD
ENDBRANCH  12  15
ENDBRANCH   4   9
BRANCH   6  17
ATOM     17  C   UNL     1      -0.788  13.127  22.013  0.00  0.00    +0.000 A 
ATOM     18  C   UNL     1       0.071  14.211  21.701  0.00  0.00    +0.000 A 
ATOM     19  C   UNL     1       0.150  15.358  22.489  0.00  0.00    +0.000 A 
ATOM     20  C   UNL     1      -0.643  15.451  23.621  0.00  0.00    +0.000 A 
ATOM     21  C   UNL     1      -1.500  14.405  23.966  0.00  0.00    +0.000 A 
ATOM     22  C   UNL     1      -1.573  13.240  23.185  0.00  0.00    +0.000 A 
BRANCH  19  23
ATOM     23  O   UNL     1       0.958  16.433  22.247  0.00  0.00    +0.000 OA
ATOM     24  C   UNL     1       2.111  16.202  21.444  0.00  0.00    +0.000 C 
ENDBRANCH  19  23
BRANCH  22  25
ATOM     25  O   UNL     1      -2.451  12.226  23.490  0.00  0.00    +0.000 OA
ATOM     26  C   UNL     1      -3.709  12.632  24.028  0.00  0.00    +0.000 C 
ENDBRANCH  22  25
ENDBRANCH   6  17
BRANCH   1  27
ATOM     27  C   UNL     1       1.280   7.863  19.904  0.00  0.00    +0.000 C 
ATOM     28  C   UNL     1       1.513   6.689  20.870  0.00  0.00    +0.000 C 
BRANCH  27  29
ATOM     29  C   UNL     1       2.403   7.917  18.846  0.00  0.00    +0.000 C 
BRANCH  29  30
ATOM     30  C   UNL     1       3.287   6.664  18.782  0.00  0.00    +0.000 C 
BRANCH  30  31
ATOM     31  C   UNL     1       2.808   5.593  17.786  0.00  0.00    +0.000 C 
BRANCH  31  32
ATOM     32  N   UNL     1       2.720   4.235  18.352  0.00  0.00    +0.000 NA
BRANCH  32  34
ATOM     33  C   UNL     1       0.948   3.120  19.773  0.00  0.00    +0.000 C 
ATOM     34  C   UNL     1       1.322   3.779  18.451  0.00  0.00    +0.000 C 
ENDBRANCH  32  34
BRANCH  32  35
ATOM     35  C   UNL     1       3.607   3.296  17.642  0.00  0.00    +0.000 C 
ATOM     36  C   UNL     1       4.634   3.913  16.697  0.00  0.00    +0.000 C 
ENDBRANCH  32  35
ENDBRANCH  31  32
ENDBRANCH  30  31
ENDBRANCH  29  30
ENDBRANCH  27  29
ENDBRANCH   1  27
TORSDOF 12
ENDMDL
MODEL 8
REMARK VINA RESULT:      -6.6      3.034      8.789
REMARK  Name = 
REMARK  17 active torsions:
REMARK  status: ('A' for Active; 'I' for Inactive)
REMARK    1  A    between atoms: C_1  and  C_2
REMARK    2  A    between atoms: C_2  and  N_3
REMARK    3  A    between atoms: N_3  and  C_4
REMARK    4  A    between atoms: N_3  and  C_6
REMARK    5  A    between atoms: C_4  and  C_5
REMARK    6  A    between atoms: C_6  and  C_7
REMARK    7  A    between atoms: C_7  and  C_8
REMARK    8  A    between atoms: C_8  and  C_9
REMARK    9  A    between atoms: C_9  and  C_10
REMARK   10  A    between atoms: C_9  and  N_11
REMARK   11  A    between atoms: C_14  and  C_15
REMARK   12  A    between atoms: C_18  and  O_19
REMARK   13  A    between atoms: C_23  and  C_24
REMARK   14  A    between atoms: C_26  and  O_27
REMARK   15  A    between atoms: O_27  and  C_28
REMARK   16  A    between atoms: C_31  and  O_32
REMARK   17  A    between atoms: O_32  and  C_33
REMARK                            x       y       z     vdW  Elec       q    Type
REMARK                         _______ _______ _______ _____ _____    ______ ____
ROOT
ATOM      1  N   UNL     1       0.876   8.538  18.796  0.00  0.00    +0.000 N 
ATOM      2  C   UNL     1       0.477   9.864  18.736  0.00  0.00    +0.000 A 
ATOM      3  N   UNL     1       1.368  10.845  18.945  0.00  0.00    +0.000 NA
ATOM      4  C   UNL     1       0.944  12.114  18.837  0.00  0.00    +0.000 A 
ATOM      5  C   UNL     1      -0.337  12.404  18.440  0.00  0.00    +0.000 A 
ATOM      6  C   UNL     1      -1.222  11.345  18.294  0.00  0.00    +0.000 A 
ATOM      7  N   UNL     1      -0.819  10.076  18.486  0.00  0.00    +0.000 NA
ATOM      8  H   UNL     1       0.319   8.113  19.530  0.00  0.00    +0.000 HD
ENDROOT
BRANCH   4   9
ATOM      9  C   UNL     1       1.916  13.160  19.240  0.00  0.00    +0.000 A 
ATOM     10  C   UNL     1       2.754  13.777  18.292  0.00  0.00    +0.000 A 
ATOM     11  C   UNL     1       3.691  14.749  18.666  0.00  0.00    +0.000 A 
ATOM     12  C   UNL     1       3.810  15.105  20.004  0.00  0.00    +0.000 A 
ATOM     13  C   UNL     1       3.014  14.505  20.967  0.00  0.00    +0.000 A 
ATOM     14  C   UNL     1       2.078  13.537  20.589  0.00  0.00    +0.000 A 
BRANCH  12  15
ATOM     15  O   UNL     1       4.711  16.041  20.417  0.00  0.00    +0.000 OA
ATOM     16  H   UNL     1       4.245  16.705  20.950  0.00  0.00    +0.000 HD
ENDBRANCH  12  15
ENDBRANCH   4   9
BRANCH   6  17
ATOM     17  C   UNL     1      -2.675  11.575  18.076  0.00  0.00    +0.000 A 
ATOM     18  C   UNL     1      -3.456  11.952  19.197  0.00  0.00    +0.000 A 
ATOM     19  C   UNL     1      -4.830  12.170  19.117  0.00  0.00    +0.000 A 
ATOM     20  C   UNL     1      -5.465  12.019  17.895  0.00  0.00    +0.000 A 
ATOM     21  C   UNL     1      -4.733  11.645  16.766  0.00  0.00    +0.000 A 
ATOM     22  C   UNL     1      -3.351  11.408  16.844  0.00  0.00    +0.000 A 
BRANCH  19  23
ATOM     23  O   UNL     1      -5.639  12.530  20.159  0.00  0.00    +0.000 OA
ATOM     24  C   UNL     1      -5.011  12.722  21.422  0.00  0.00    +0.000 C 
ENDBRANCH  19  23
BRANCH  22  25
ATOM     25  O   UNL     1      -2.615  11.089  15.727  0.00  0.00    +0.000 OA
ATOM     26  C   UNL     1      -3.250  10.222  14.788  0.00  0.00    +0.000 C 
ENDBRANCH  22  25
ENDBRANCH   6  17
BRANCH   1  27
ATOM     27  C   UNL     1       2.308   8.258  18.848  0.00  0.00    +0.000 C 
ATOM     28  C   UNL     1       2.839   8.095  17.413  0.00  0.00    +0.000 C 
BRANCH  27  29
ATOM     29  C   UNL     1       2.508   6.951  19.645  0.00  0.00    +0.000 C 
BRANCH  29  30
ATOM     30  C   UNL     1       3.091   5.786  18.833  0.00  0.00    +0.000 C 
BRANCH  30  31
ATOM     31  C   UNL     1       4.500   5.346  19.266  0.00  0.00    +0.000 C 
BRANCH  31  32
ATOM     32  N   UNL     1       5.423   5.081  18.148  0.00  0.00    +0.000 NA
BRANCH  32  34
ATOM     33  C   UNL     1       5.333   5.810  15.727  0.00  0.00    +0.000 C 
ATOM     34  C   UNL     1       4.709   5.006  16.861  0.00  0.00    +0.000 C 
ENDBRANCH  32  34
BRANCH  32  35
ATOM     35  C   UNL     1       6.557   6.023  18.149  0.00  0.00    +0.000 C 
ATOM     36  C   UNL     1       7.688   5.724  19.130  0.00  0.00    +0.000 C 
ENDBRANCH  32  35
ENDBRANCH  31  32
ENDBRANCH  30  31
ENDBRANCH  29  30
ENDBRANCH  27  29
ENDBRANCH   1  27
TORSDOF 12
ENDMDL
MODEL 9
REMARK VINA RESULT:      -6.6      2.799      6.820
REMARK  Name = 
REMARK  17 active torsions:
REMARK  status: ('A' for Active; 'I' for Inactive)
REMARK    1  A    between atoms: C_1  and  C_2
REMARK    2  A    between atoms: C_2  and  N_3
REMARK    3  A    between atoms: N_3  and  C_4
REMARK    4  A    between atoms: N_3  and  C_6
REMARK    5  A    between atoms: C_4  and  C_5
REMARK    6  A    between atoms: C_6  and  C_7
REMARK    7  A    between atoms: C_7  and  C_8
REMARK    8  A    between atoms: C_8  and  C_9
REMARK    9  A    between atoms: C_9  and  C_10
REMARK   10  A    between atoms: C_9  and  N_11
REMARK   11  A    between atoms: C_14  and  C_15
REMARK   12  A    between atoms: C_18  and  O_19
REMARK   13  A    between atoms: C_23  and  C_24
REMARK   14  A    between atoms: C_26  and  O_27
REMARK   15  A    between atoms: O_27  and  C_28
REMARK   16  A    between atoms: C_31  and  O_32
REMARK   17  A    between atoms: O_32  and  C_33
REMARK                            x       y       z     vdW  Elec       q    Type
REMARK                         _______ _______ _______ _____ _____    ______ ____
ROOT
ATOM      1  N   UNL     1       1.185  10.003  20.747  0.00  0.00    +0.000 N 
ATOM      2  C   UNL     1       0.598  11.057  20.063  0.00  0.00    +0.000 A 
ATOM      3  N   UNL     1      -0.710  11.024  19.771  0.00  0.00    +0.000 NA
ATOM      4  C   UNL     1      -1.242  12.084  19.142  0.00  0.00    +0.000 A 
ATOM      5  C   UNL     1      -0.494  13.205  18.882  0.00  0.00    +0.000 A 
ATOM      6  C   UNL     1       0.865  13.152  19.159  0.00  0.00    +0.000 A 
ATOM      7  N   UNL     1       1.415  12.056  19.711  0.00  0.00    +0.000 NA
ATOM      8  H   UNL     1       1.911   9.645  20.136  0.00  0.00    +0.000 HD
ENDROOT
BRANCH   4   9
ATOM      9  C   UNL     1      -2.647  11.934  18.691  0.00  0.00    +0.000 A 
ATOM     10  C   UNL     1      -3.721  12.294  19.527  0.00  0.00    +0.000 A 
ATOM     11  C   UNL     1      -5.052  12.134  19.118  0.00  0.00    +0.000 A 
ATOM     12  C   UNL     1      -5.323  11.596  17.867  0.00  0.00    +0.000 A 
ATOM     13  C   UNL     1      -4.291  11.213  17.025  0.00  0.00    +0.000 A 
ATOM     14  C   UNL     1      -2.964  11.376  17.435  0.00  0.00    +0.000 A 
BRANCH  12  15
ATOM     15  O   UNL     1      -6.601  11.416  17.428  0.00  0.00    +0.000 OA
ATOM     16  H   UNL     1      -6.988  10.661  17.901  0.00  0.00    +0.000 HD
ENDBRANCH  12  15
ENDBRANCH   4   9
BRANCH   6  17
ATOM     17  C   UNL     1       1.788  14.231  18.718  0.00  0.00    +0.000 A 
ATOM     18  C   UNL     1       3.126  13.870  18.420  0.00  0.00    +0.000 A 
ATOM     19  C   UNL     1       4.084  14.800  18.020  0.00  0.00    +0.000 A 
ATOM     20  C   UNL     1       3.720  16.132  17.903  0.00  0.00    +0.000 A 
ATOM     21  C   UNL     1       2.413  16.530  18.190  0.00  0.00    +0.000 A 
ATOM     22  C   UNL     1       1.447  15.601  18.608  0.00  0.00    +0.000 A 
BRANCH  19  23
ATOM     23  O   UNL     1       5.388  14.519  17.724  0.00  0.00    +0.000 OA
ATOM     24  C   UNL     1       6.372  15.396  18.263  0.00  0.00    +0.000 C 
ENDBRANCH  19  23
BRANCH  22  25
ATOM     25  O   UNL     1       0.145  15.976  18.844  0.00  0.00    +0.000 OA
ATOM     26  C   UNL     1      -0.153  17.356  18.633  0.00  0.00    +0.000 C 
ENDBRANCH  22  25
ENDBRANCH   6  17
BRANCH   1  27
ATOM     27  C   UNL     1       0.305   9.000  21.340  0.00  0.00    +0.000 C 
ATOM     28  C   UNL     1       0.074   9.349  22.820  0.00  0.00    +0.000 C 
BRANCH  27  29
ATOM     29  C   UNL     1       0.997   7.627  21.214  0.00  0.00    +0.000 C 
BRANCH  29  30
ATOM     30  C   UNL     1       1.994   7.514  20.053  0.00  0.00    +0.000 C 
BRANCH  30  31
ATOM     31  C   UNL     1       2.699   6.150  19.944  0.00  0.00    +0.000 C 
BRANCH  31  32
ATOM     32  N   UNL     1       3.060   5.761  18.569  0.00  0.00    +0.000 NA
BRANCH  32  34
ATOM     33  C   UNL     1       1.390   3.878  18.818  0.00  0.00    +0.000 C 
ATOM     34  C   UNL     1       1.997   4.961  17.936  0.00  0.00    +0.000 C 
ENDBRANCH  32  34
BRANCH  32  35
ATOM     35  C   UNL     1       3.487   6.926  17.773  0.00  0.00    +0.000 C 
ATOM     36  C   UNL     1       4.775   6.764  16.969  0.00  0.00    +0.000 C 
ENDBRANCH  32  35
ENDBRANCH  31  32
ENDBRANCH  30  31
ENDBRANCH  29  30
ENDBRANCH  27  29
ENDBRANCH   1  27
TORSDOF 12
ENDMDL
