MODEL 1
REMARK VINA RESULT:      -6.0      0.000      0.000
REMARK  Name = 
REMARK  5 active torsions:
REMARK  status: ('A' for Active; 'I' for Inactive)
REMARK    1  A    between atoms: C_1  and  C_2
REMARK    2  A    between atoms: C_2  and  C_3
REMARK    3  A    between atoms: C_6  and  C_7
REMARK    4  A    between atoms: C_7  and  S_8
REMARK    5  A    between atoms: S_8  and  C_9
REMARK                            x       y       z     vdW  Elec       q    Type
REMARK                         _______ _______ _______ _____ _____    ______ ____
ROOT
ATOM      1  C   UNL     1       2.053   3.428  19.240  0.00  0.00    +0.000 A 
ATOM      2  C   UNL     1       1.993   4.669  18.599  0.00  0.00    +0.000 A 
ATOM      3  C   UNL     1       2.968   5.032  17.666  0.00  0.00    +0.000 A 
ATOM      4  C   UNL     1       4.035   4.169  17.366  0.00  0.00    +0.000 A 
ATOM      5  C   UNL     1       4.062   2.907  17.975  0.00  0.00    +0.000 A 
ATOM      6  C   UNL     1       3.080   2.540  18.900  0.00  0.00    +0.000 A 
ENDROOT
BRANCH   1   8
ATOM      7  C   UNL     1       1.662   2.762  21.640  0.00  0.00    +0.000 C 
ATOM      8  C   UNL     1       1.033   3.062  20.290  0.00  0.00    +0.000 C 
ENDBRANCH   1   8
BRANCH   4   9
ATOM      9  C   UNL     1       5.130   4.597  16.413  0.00  0.00    +0.000 C 
BRANCH   9  10
ATOM     10  S   UNL     1       6.151   5.928  17.124  0.00  0.00    +0.000 S 
BRANCH  10  11
ATOM     11  C   UNL     1       7.231   5.008  18.109  0.00  0.00    +0.000 C 
ATOM     12  N   UNL     1       8.029   4.147  17.594  0.00  0.00    +0.000 NA
ATOM     13  N   UNL     1       7.240   5.310  19.423  0.00  0.00    +0.000 N 
ATOM     14  H   UNL     1       7.886   4.139  16.580  0.00  0.00    +0.000 HD
ATOM     15  H   UNL     1       6.939   6.254  19.633  0.00  0.00    +0.000 HD
ATOM     16  H   UNL     1       8.115   5.053  19.864  0.00  0.00    +0.000 HD
ENDBRANCH  10  11
ENDBRANCH   9  10
ENDBRANCH   4   9
TORSDOF 4
ENDMDL
MODEL 2
REMARK VINA RESULT:      -5.9      1.197      1.388
REMARK  Name = 
REMARK  5 active torsions:
REMARK  status: ('A' for Active; 'I' for Inactive)
REMARK    1  A    between atoms: C_1  and  C_2
REMARK    2  A    between atoms: C_2  and  C_3
REMARK    3  A    between atoms: C_6  and  C_7
REMARK    4  A    between atoms: C_7  and  S_8
REMARK    5  A    between atoms: S_8  and  C_9
REMARK                            x       y       z     vdW  Elec       q    Type
REMARK                         _______ _______ _______ _____ _____    ______ ____
ROOT
ATOM      1  C   UNL     1       1.855   3.714  19.212  0.00  0.00    +0.000 A 
ATOM      2  C   UNL     1       2.458   4.953  18.973  0.00  0.00    +0.000 A 
ATOM      3  C   UNL     1       3.423   5.089  17.971  0.00  0.00    +0.000 A 
ATOM      4  C   UNL     1       3.819   3.985  17.197  0.00  0.00    +0.000 A 
ATOM      5  C   UNL     1       3.175   2.758  17.410  0.00  0.00    +0.000 A 
ATOM      6  C   UNL     1       2.202   2.626  18.405  0.00  0.00    +0.000 A 
ENDROOT
BRANCH   1   8
ATOM      7  C   UNL     1       1.408   2.756  21.501  0.00  0.00    +0.000 C 
ATOM      8  C   UNL     1       0.857   3.556  20.333  0.00  0.00    +0.000 C 
ENDBRANCH   1   8
BRANCH   4   9
ATOM      9  C   UNL     1       4.918   4.119  16.166  0.00  0.00    +0.000 C 
BRANCH   9  10
ATOM     10  S   UNL     1       5.395   5.861  15.922  0.00  0.00    +0.000 S 
BRANCH  10  11
ATOM     11  C   UNL     1       7.008   5.837  16.540  0.00  0.00    +0.000 C 
ATOM     12  N   UNL     1       7.629   6.924  16.816  0.00  0.00    +0.000 NA
ATOM     13  N   UNL     1       7.532   4.620  16.788  0.00  0.00    +0.000 N 
ATOM     14  H   UNL     1       7.011   7.713  16.606  0.00  0.00    +0.000 HD
ATOM     15  H   UNL     1       6.841   3.901  16.966  0.00  0.00    +0.000 HD
ATOM     16  H   UNL     1       8.268   4.660  17.482  0.00  0.00    +0.000 HD
ENDBRANCH  10  11
ENDBRANCH   9  10
ENDBRANCH   4   9
TORSDOF 4
ENDMDL
MODEL 3
REMARK VINA RESULT:      -5.9      1.151      1.932
REMARK  Name = 
REMARK  5 active torsions:
REMARK  status: ('A' for Active; 'I' for Inactive)
REMARK    1  A    between atoms: C_1  and  C_2
REMARK    2  A    between atoms: C_2  and  C_3
REMARK    3  A    between atoms: C_6  and  C_7
REMARK    4  A    between atoms: C_7  and  S_8
REMARK    5  A    between atoms: S_8  and  C_9
REMARK                            x       y       z     vdW  Elec       q    Type
REMARK                         _______ _______ _______ _____ _____    ______ ____
ROOT
ATOM      1  C   UNL     1       1.971   4.294  19.346  0.00  0.00    +0.000 A 
ATOM      2  C   UNL     1       2.654   3.542  18.386  0.00  0.00    +0.000 A 
ATOM      3  C   UNL     1       3.596   4.147  17.550  0.00  0.00    +0.000 A 
ATOM      4  C   UNL     1       3.864   5.522  17.644  0.00  0.00    +0.000 A 
ATOM      5  C   UNL     1       3.212   6.261  18.641  0.00  0.00    +0.000 A 
ATOM      6  C   UNL     1       2.278   5.652  19.485  0.00  0.00    +0.000 A 
ENDROOT
BRANCH   1   8
ATOM      7  C   UNL     1       1.494   2.918  21.405  0.00  0.00    +0.000 C 
ATOM      8  C   UNL     1       0.911   3.651  20.207  0.00  0.00    +0.000 C 
ENDBRANCH   1   8
BRANCH   4   9
ATOM      9  C   UNL     1       4.829   6.188  16.687  0.00  0.00    +0.000 C 
BRANCH   9  10
ATOM     10  S   UNL     1       6.468   6.423  17.448  0.00  0.00    +0.000 S 
BRANCH  10  11
ATOM     11  C   UNL     1       7.254   4.963  16.964  0.00  0.00    +0.000 C 
ATOM     12  N   UNL     1       7.682   4.121  17.831  0.00  0.00    +0.000 NA
ATOM     13  N   UNL     1       7.312   4.730  15.637  0.00  0.00    +0.000 N 
ATOM     14  H   UNL     1       7.470   4.481  18.765  0.00  0.00    +0.000 HD
ATOM     15  H   UNL     1       6.584   5.191  15.105  0.00  0.00    +0.000 HD
ATOM     16  H   UNL     1       7.406   3.743  15.431  0.00  0.00    +0.000 HD
ENDBRANCH  10  11
ENDBRANCH   9  10
ENDBRANCH   4   9
TORSDOF 4
ENDMDL
MODEL 4
REMARK VINA RESULT:      -5.9      1.359      1.400
REMARK  Name = 
REMARK  5 active torsions:
REMARK  status: ('A' for Active; 'I' for Inactive)
REMARK    1  A    between atoms: C_1  and  C_2
REMARK    2  A    between atoms: C_2  and  C_3
REMARK    3  A    between atoms: C_6  and  C_7
REMARK    4  A    between atoms: C_7  and  S_8
REMARK    5  A    between atoms: S_8  and  C_9
REMARK                            x       y       z     vdW  Elec       q    Type
REMARK                         _______ _______ _______ _____ _____    ______ ____
ROOT
ATOM      1  C   UNL     1       2.284   3.842  19.500  0.00  0.00    +0.000 A 
ATOM      2  C   UNL     1       1.808   3.757  18.188  0.00  0.00    +0.000 A 
ATOM      3  C   UNL     1       2.699   3.725  17.113  0.00  0.00    +0.000 A 
ATOM      4  C   UNL     1       4.086   3.795  17.323  0.00  0.00    +0.000 A 
ATOM      5  C   UNL     1       4.558   3.832  18.643  0.00  0.00    +0.000 A 
ATOM      6  C   UNL     1       3.666   3.852  19.719  0.00  0.00    +0.000 A 
ENDROOT
BRANCH   1   8
ATOM      7  C   UNL     1       1.399   2.737  21.587  0.00  0.00    +0.000 C 
ATOM      8  C   UNL     1       1.319   3.936  20.657  0.00  0.00    +0.000 C 
ENDBRANCH   1   8
BRANCH   4   9
ATOM      9  C   UNL     1       5.044   3.838  16.153  0.00  0.00    +0.000 C 
BRANCH   9  10
ATOM     10  S   UNL     1       5.533   5.547  15.753  0.00  0.00    +0.000 S 
BRANCH  10  11
ATOM     11  C   UNL     1       7.079   5.622  16.520  0.00  0.00    +0.000 C 
ATOM     12  N   UNL     1       7.740   4.557  16.789  0.00  0.00    +0.000 NA
ATOM     13  N   UNL     1       7.576   6.857  16.737  0.00  0.00    +0.000 N 
ATOM     14  H   UNL     1       7.193   3.749  16.477  0.00  0.00    +0.000 HD
ATOM     15  H   UNL     1       7.214   7.564  16.109  0.00  0.00    +0.000 HD
ATOM     16  H   UNL     1       8.586   6.851  16.807  0.00  0.00    +0.000 HD
ENDBRANCH  10  11
ENDBRANCH   9  10
ENDBRANCH   4   9
TORSDOF 4
ENDMDL
MODEL 5
REMARK VINA RESULT:      -5.9      1.315      1.570
REMARK  Name = 
REMARK  5 active torsions:
REMARK  status: ('A' for Active; 'I' for Inactive)
REMARK    1  A    between atoms: C_1  and  C_2
REMARK    2  A    between atoms: C_2  and  C_3
REMARK    3  A    between atoms: C_6  and  C_7
REMARK    4  A    between atoms: C_7  and  S_8
REMARK    5  A    between atoms: S_8  and  C_9
REMARK                            x       y       z     vdW  Elec       q    Type
REMARK                         _______ _______ _______ _____ _____    ______ ____
ROOT
ATOM      1  C   UNL     1       2.162   4.068  18.171  0.00  0.00    +0.000 A 
ATOM      2  C   UNL     1       2.368   5.438  18.358  0.00  0.00    +0.000 A 
ATOM      3  C   UNL     1       3.510   6.059  17.846  0.00  0.00    +0.000 A 
ATOM      4  C   UNL     1       4.481   5.320  17.149  0.00  0.00    +0.000 A 
ATOM      5  C   UNL     1       4.245   3.957  16.923  0.00  0.00    +0.000 A 
ATOM      6  C   UNL     1       3.096   3.339  17.426  0.00  0.00    +0.000 A 
ENDROOT
BRANCH   1   8
ATOM      7  C   UNL     1       1.080   3.206  20.279  0.00  0.00    +0.000 C 
ATOM      8  C   UNL     1       0.958   3.388  18.775  0.00  0.00    +0.000 C 
ENDBRANCH   1   8
BRANCH   4   9
ATOM      9  C   UNL     1       5.753   5.981  16.662  0.00  0.00    +0.000 C 
BRANCH   9  10
ATOM     10  S   UNL     1       7.232   5.090  17.245  0.00  0.00    +0.000 S 
BRANCH  10  11
ATOM     11  C   UNL     1       7.433   5.797  18.808  0.00  0.00    +0.000 C 
ATOM     12  N   UNL     1       6.857   5.301  19.841  0.00  0.00    +0.000 NA
ATOM     13  N   UNL     1       8.288   6.837  18.885  0.00  0.00    +0.000 N 
ATOM     14  H   UNL     1       6.314   4.483  19.547  0.00  0.00    +0.000 HD
ATOM     15  H   UNL     1       8.993   6.846  18.158  0.00  0.00    +0.000 HD
ATOM     16  H   UNL     1       8.662   6.949  19.819  0.00  0.00    +0.000 HD
ENDBRANCH  10  11
ENDBRANCH   9  10
ENDBRANCH   4   9
TORSDOF 4
ENDMDL
MODEL 6
REMARK VINA RESULT:      -5.9      2.173      2.401
REMARK  Name = 
REMARK  5 active torsions:
REMARK  status: ('A' for Active; 'I' for Inactive)
REMARK    1  A    between atoms: C_1  and  C_2
REMARK    2  A    between atoms: C_2  and  C_3
REMARK    3  A    between atoms: C_6  and  C_7
REMARK    4  A    between atoms: C_7  and  S_8
REMARK    5  A    between atoms: S_8  and  C_9
REMARK                            x       y       z     vdW  Elec       q    Type
REMARK                         _______ _______ _______ _____ _____    ______ ____
ROOT
ATOM      1  C   UNL     1       2.178   4.034  18.310  0.00  0.00    +0.000 A 
ATOM      2  C   UNL     1       2.281   5.428  18.270  0.00  0.00    +0.000 A 
ATOM      3  C   UNL     1       3.422   6.039  17.746  0.00  0.00    +0.000 A 
ATOM      4  C   UNL     1       4.495   5.270  17.264  0.00  0.00    +0.000 A 
ATOM      5  C   UNL     1       4.365   3.874  17.262  0.00  0.00    +0.000 A 
ATOM      6  C   UNL     1       3.217   3.263  17.777  0.00  0.00    +0.000 A 
ENDROOT
BRANCH   1   8
ATOM      7  C   UNL     1       1.066   3.282  20.445  0.00  0.00    +0.000 C 
ATOM      8  C   UNL     1       0.970   3.376  18.931  0.00  0.00    +0.000 C 
ENDBRANCH   1   8
BRANCH   4   9
ATOM      9  C   UNL     1       5.761   5.934  16.768  0.00  0.00    +0.000 C 
BRANCH   9  10
ATOM     10  S   UNL     1       7.069   4.711  16.433  0.00  0.00    +0.000 S 
BRANCH  10  11
ATOM     11  C   UNL     1       7.025   4.664  14.707  0.00  0.00    +0.000 C 
ATOM     12  N   UNL     1       7.718   5.481  14.003  0.00  0.00    +0.000 NA
ATOM     13  N   UNL     1       6.293   3.673  14.157  0.00  0.00    +0.000 N 
ATOM     14  H   UNL     1       8.239   6.094  14.637  0.00  0.00    +0.000 HD
ATOM     15  H   UNL     1       6.180   2.863  14.754  0.00  0.00    +0.000 HD
ATOM     16  H   UNL     1       6.605   3.450  13.220  0.00  0.00    +0.000 HD
ENDBRANCH  10  11
ENDBRANCH   9  10
ENDBRANCH   4   9
TORSDOF 4
ENDMDL
MODEL 7
REMARK VINA RESULT:      -5.8      1.017      1.079
REMARK  Name = 
REMARK  5 active torsions:
REMARK  status: ('A' for Active; 'I' for Inactive)
REMARK    1  A    between atoms: C_1  and  C_2
REMARK    2  A    between atoms: C_2  and  C_3
REMARK    3  A    between atoms: C_6  and  C_7
REMARK    4  A    between atoms: C_7  and  S_8
REMARK    5  A    between atoms: S_8  and  C_9
REMARK                            x       y       z     vdW  Elec       q    Type
REMARK                         _______ _______ _______ _____ _____    ______ ____
ROOT
ATOM      1  C   UNL     1       1.968   3.737  18.919  0.00  0.00    +0.000 A 
ATOM      2  C   UNL     1       2.197   5.067  19.284  0.00  0.00    +0.000 A 
ATOM      3  C   UNL     1       3.122   5.845  18.583  0.00  0.00    +0.000 A 
ATOM      4  C   UNL     1       3.853   5.305  17.512  0.00  0.00    +0.000 A 
ATOM      5  C   UNL     1       3.583   3.986  17.120  0.00  0.00    +0.000 A 
ATOM      6  C   UNL     1       2.649   3.212  17.815  0.00  0.00    +0.000 A 
ENDROOT
BRANCH   1   8
ATOM      7  C   UNL     1       1.261   2.960  21.211  0.00  0.00    +0.000 C 
ATOM      8  C   UNL     1       1.012   2.882  19.714  0.00  0.00    +0.000 C 
ENDBRANCH   1   8
BRANCH   4   9
ATOM      9  C   UNL     1       4.909   6.126  16.804  0.00  0.00    +0.000 C 
BRANCH   9  10
ATOM     10  S   UNL     1       6.253   5.075  16.165  0.00  0.00    +0.000 S 
BRANCH  10  11
ATOM     11  C   UNL     1       7.330   5.082  17.516  0.00  0.00    +0.000 C 
ATOM     12  N   UNL     1       8.142   4.111  17.723  0.00  0.00    +0.000 NA
ATOM     13  N   UNL     1       7.322   6.195  18.277  0.00  0.00    +0.000 N 
ATOM     14  H   UNL     1       8.010   3.416  16.983  0.00  0.00    +0.000 HD
ATOM     15  H   UNL     1       7.010   7.026  17.790  0.00  0.00    +0.000 HD
ATOM     16  H   UNL     1       8.194   6.317  18.777  0.00  0.00    +0.000 HD
ENDBRANCH  10  11
ENDBRANCH   9  10
ENDBRANCH   4   9
TORSDOF 4
ENDMDL
MODEL 8
REMARK VINA RESULT:      -5.8      0.572      1.069
REMARK  Name = 
REMARK  5 active torsions:
REMARK  status: ('A' for Active; 'I' for Inactive)
REMARK    1  A    between atoms: C_1  and  C_2
REMARK    2  A    between atoms: C_2  and  C_3
REMARK    3  A    between atoms: C_6  and  C_7
REMARK    4  A    between atoms: C_7  and  S_8
REMARK    5  A    between atoms: S_8  and  C_9
REMARK                            x       y       z     vdW  Elec       q    Type
REMARK                         _______ _______ _______ _____ _____    ______ ____
ROOT
ATOM      1  C   UNL     1       2.087   3.666  19.553  0.00  0.00    +0.000 A 
ATOM      2  C   UNL     1       1.827   4.421  18.405  0.00  0.00    +0.000 A 
ATOM      3  C   UNL     1       2.855   4.726  17.510  0.00  0.00    +0.000 A 
ATOM      4  C   UNL     1       4.171   4.298  17.751  0.00  0.00    +0.000 A 
ATOM      5  C   UNL     1       4.415   3.500  18.878  0.00  0.00    +0.000 A 
ATOM      6  C   UNL     1       3.384   3.186  19.767  0.00  0.00    +0.000 A 
ENDROOT
BRANCH   1   8
ATOM      7  C   UNL     1       1.464   2.568  21.736  0.00  0.00    +0.000 C 
ATOM      8  C   UNL     1       0.987   3.388  20.549  0.00  0.00    +0.000 C 
ENDBRANCH   1   8
BRANCH   4   9
ATOM      9  C   UNL     1       5.296   4.694  16.820  0.00  0.00    +0.000 C 
BRANCH   9  10
ATOM     10  S   UNL     1       6.264   6.081  17.497  0.00  0.00    +0.000 S 
BRANCH  10  11
ATOM     11  C   UNL     1       7.415   5.224  18.459  0.00  0.00    +0.000 C 
ATOM     12  N   UNL     1       7.518   5.438  19.719  0.00  0.00    +0.000 NA
ATOM     13  N   UNL     1       8.128   4.271  17.825  0.00  0.00    +0.000 N 
ATOM     14  H   UNL     1       6.835   6.154  19.982  0.00  0.00    +0.000 HD
ATOM     15  H   UNL     1       7.671   3.890  17.005  0.00  0.00    +0.000 HD
ATOM     16  H   UNL     1       8.470   3.566  18.467  0.00  0.00    +0.000 HD
ENDBRANCH  10  11
ENDBRANCH   9  10
ENDBRANCH   4   9
TORSDOF 4
ENDMDL
MODEL 9
REMARK VINA RESULT:      -5.8      1.098      1.458
REMARK  Name = 
REMARK  5 active torsions:
REMARK  status: ('A' for Active; 'I' for Inactive)
REMARK    1  A    between atoms: C_1  and  C_2
REMARK    2  A    between atoms: C_2  and  C_3
REMARK    3  A    between atoms: C_6  and  C_7
REMARK    4  A    between atoms: C_7  and  S_8
REMARK    5  A    between atoms: S_8  and  C_9
REMARK                            x       y       z     vdW  Elec       q    Type
REMARK                         _______ _______ _______ _____ _____    ______ ____
ROOT
ATOM      1  C   UNL     1       1.977   4.106  18.717  0.00  0.00    +0.000 A 
ATOM      2  C   UNL     1       2.148   5.481  18.900  0.00  0.00    +0.000 A 
ATOM      3  C   UNL     1       3.090   6.184  18.145  0.00  0.00    +0.000 A 
ATOM      4  C   UNL     1       3.895   5.525  17.202  0.00  0.00    +0.000 A 
ATOM      5  C   UNL     1       3.684   4.156  16.989  0.00  0.00    +0.000 A 
ATOM      6  C   UNL     1       2.733   3.455  17.737  0.00  0.00    +0.000 A 
ENDROOT
BRANCH   1   8
ATOM      7  C   UNL     1       1.602   2.902  20.901  0.00  0.00    +0.000 C 
ATOM      8  C   UNL     1       1.001   3.338  19.575  0.00  0.00    +0.000 C 
ENDBRANCH   1   8
BRANCH   4   9
ATOM      9  C   UNL     1       4.966   6.275  16.441  0.00  0.00    +0.000 C 
BRANCH   9  10
ATOM     10  S   UNL     1       6.443   6.556  17.470  0.00  0.00    +0.000 S 
BRANCH  10  11
ATOM     11  C   UNL     1       7.198   5.005  17.371  0.00  0.00    +0.000 C 
ATOM     12  N   UNL     1       7.188   4.197  18.367  0.00  0.00    +0.000 NA
ATOM     13  N   UNL     1       7.715   4.671  16.171  0.00  0.00    +0.000 N 
ATOM     14  H   UNL     1       6.686   4.642  19.140  0.00  0.00    +0.000 HD
ATOM     15  H   UNL     1       7.285   5.148  15.389  0.00  0.00    +0.000 HD
ATOM     16  H   UNL     1       7.777   3.667  16.054  0.00  0.00    +0.000 HD
ENDBRANCH  10  11
ENDBRANCH   9  10
ENDBRANCH   4   9
TORSDOF 4
ENDMDL
