MODEL 1
REMARK VINA RESULT:      -8.5      0.000      0.000
REMARK  Name = 
REMARK  10 active torsions:
REMARK  status: ('A' for Active; 'I' for Inactive)
REMARK    1  A    between atoms: C_1  and  O_2
REMARK    2  A    between atoms: O_2  and  C_3
REMARK    3  A    between atoms: C_3  and  C_4
REMARK    4  A    between atoms: C_3  and  C_27
REMARK    5  A    between atoms: C_4  and  C_5
REMARK    6  A    between atoms: C_10  and  C_11
REMARK    7  A    between atoms: C_11  and  C_12
REMARK    8  A    between atoms: C_14  and  C_15
REMARK    9  A    between atoms: C_22  and  C_23
REMARK   10  A    between atoms: C_27  and  O_29
REMARK                            x       y       z     vdW  Elec       q    Type
REMARK                         _______ _______ _______ _____ _____    ______ ____
ROOT
ATOM      1  C   UNL     1       0.768   9.268  19.736  0.00  0.00    +0.000 A 
ATOM      2  C   UNL     1       1.360   9.560  18.494  0.00  0.00    +0.000 A 
ATOM      3  C   UNL     1       2.303   8.706  17.915  0.00  0.00    +0.000 A 
ATOM      4  C   UNL     1       2.650   7.575  18.648  0.00  0.00    +0.000 A 
ATOM      5  O   UNL     1       3.535   6.620  18.254  0.00  0.00    +0.000 OA
ATOM      6  C   UNL     1       3.618   5.705  19.265  0.00  0.00    +0.000 A 
ATOM      7  C   UNL     1       2.766   6.059  20.293  0.00  0.00    +0.000 A 
ATOM      8  C   UNL     1       2.134   7.269  19.901  0.00  0.00    +0.000 A 
ATOM      9  C   UNL     1       1.176   8.131  20.463  0.00  0.00    +0.000 A 
ENDROOT
BRANCH   1  10
ATOM     10  C   UNL     1      -0.411  10.091  20.225  0.00  0.00    +0.000 C 
BRANCH  10  11
ATOM     11  C   UNL     1      -0.010  11.110  21.311  0.00  0.00    +0.000 C 
BRANCH  11  13
ATOM     12  C   UNL     1       1.664  12.679  20.630  0.00  0.00    +0.000 C 
ATOM     13  O   UNL     1       1.397  11.405  21.219  0.00  0.00    +0.000 OA
ENDBRANCH  11  13
BRANCH  11  14
ATOM     14  C   UNL     1      -0.338  10.535  22.694  0.00  0.00    +0.000 C 
ATOM     15  O   UNL     1      -1.432  10.613  23.234  0.00  0.00    +0.000 OA
BRANCH  14  16
ATOM     16  O   UNL     1       0.719   9.898  23.256  0.00  0.00    +0.000 OA
ATOM     17  H   UNL     1       1.515  10.043  22.703  0.00  0.00    +0.000 HD
ENDBRANCH  14  16
ENDBRANCH  11  14
ENDBRANCH  10  11
ENDBRANCH   1  10
BRANCH   6  18
ATOM     18  C   UNL     1       4.603   4.605  19.075  0.00  0.00    +0.000 C 
BRANCH  18  19
ATOM     19  C   UNL     1       5.548   4.834  17.948  0.00  0.00    +0.000 A 
ATOM     20  N   UNL     1       5.235   4.436  16.660  0.00  0.00    +0.000 NA
ATOM     21  C   UNL     1       6.306   4.741  15.952  0.00  0.00    +0.000 A 
ATOM     22  O   UNL     1       7.306   5.323  16.685  0.00  0.00    +0.000 OA
ATOM     23  C   UNL     1       6.814   5.383  17.957  0.00  0.00    +0.000 A 
ATOM     24  C   UNL     1       7.687   5.978  18.983  0.00  0.00    +0.000 C 
BRANCH  21  25
ATOM     25  C   UNL     1       6.568   4.562  14.526  0.00  0.00    +0.000 A 
ATOM     26  C   UNL     1       7.567   5.317  13.894  0.00  0.00    +0.000 A 
ATOM     27  C   UNL     1       7.838   5.147  12.532  0.00  0.00    +0.000 A 
ATOM     28  C   UNL     1       7.109   4.223  11.785  0.00  0.00    +0.000 A 
ATOM     29  C   UNL     1       6.109   3.470  12.396  0.00  0.00    +0.000 A 
ATOM     30  C   UNL     1       5.841   3.640  13.757  0.00  0.00    +0.000 A 
ENDBRANCH  21  25
ENDBRANCH  18  19
ENDBRANCH   6  18
TORSDOF 8
ENDMDL
MODEL 2
REMARK VINA RESULT:      -8.4      1.375      1.961
REMARK  Name = 
REMARK  10 active torsions:
REMARK  status: ('A' for Active; 'I' for Inactive)
REMARK    1  A    between atoms: C_1  and  O_2
REMARK    2  A    between atoms: O_2  and  C_3
REMARK    3  A    between atoms: C_3  and  C_4
REMARK    4  A    between atoms: C_3  and  C_27
REMARK    5  A    between atoms: C_4  and  C_5
REMARK    6  A    between atoms: C_10  and  C_11
REMARK    7  A    between atoms: C_11  and  C_12
REMARK    8  A    between atoms: C_14  and  C_15
REMARK    9  A    between atoms: C_22  and  C_23
REMARK   10  A    between atoms: C_27  and  O_29
REMARK                            x       y       z     vdW  Elec       q    Type
REMARK                         _______ _______ _______ _____ _____    ______ ____
ROOT
ATOM      1  C   UNL     1       0.845   9.370  19.497  0.00  0.00    +0.000 A 
ATOM      2  C   UNL     1       1.421   9.583  18.232  0.00  0.00    +0.000 A 
ATOM      3  C   UNL     1       2.333   8.676  17.682  0.00  0.00    +0.000 A 
ATOM      4  C   UNL     1       2.666   7.577  18.467  0.00  0.00    +0.000 A 
ATOM      5  O   UNL     1       3.520   6.581  18.108  0.00  0.00    +0.000 OA
ATOM      6  C   UNL     1       3.600   5.717  19.164  0.00  0.00    +0.000 A 
ATOM      7  C   UNL     1       2.775   6.144  20.185  0.00  0.00    +0.000 A 
ATOM      8  C   UNL     1       2.165   7.349  19.742  0.00  0.00    +0.000 A 
ATOM      9  C   UNL     1       1.239   8.262  20.274  0.00  0.00    +0.000 A 
ENDROOT
BRANCH   1  10
ATOM     10  C   UNL     1      -0.305  10.246  19.962  0.00  0.00    +0.000 C 
BRANCH  10  11
ATOM     11  C   UNL     1      -0.149  11.712  19.511  0.00  0.00    +0.000 C 
BRANCH  11  13
ATOM     12  C   UNL     1       1.415  13.235  20.490  0.00  0.00    +0.000 C 
ATOM     13  O   UNL     1       0.172  12.547  20.639  0.00  0.00    +0.000 OA
ENDBRANCH  11  13
BRANCH  11  14
ATOM     14  C   UNL     1      -1.454  12.185  18.859  0.00  0.00    +0.000 C 
ATOM     15  O   UNL     1      -2.546  12.172  19.407  0.00  0.00    +0.000 OA
BRANCH  14  16
ATOM     16  O   UNL     1      -1.265  12.653  17.601  0.00  0.00    +0.000 OA
ATOM     17  H   UNL     1      -0.852  11.953  17.054  0.00  0.00    +0.000 HD
ENDBRANCH  14  16
ENDBRANCH  11  14
ENDBRANCH  10  11
ENDBRANCH   1  10
BRANCH   6  18
ATOM     18  C   UNL     1       4.554   4.585  19.014  0.00  0.00    +0.000 C 
BRANCH  18  19
ATOM     19  C   UNL     1       5.547   4.776  17.921  0.00  0.00    +0.000 A 
ATOM     20  N   UNL     1       5.239   4.452  16.612  0.00  0.00    +0.000 NA
ATOM     21  C   UNL     1       6.352   4.695  15.943  0.00  0.00    +0.000 A 
ATOM     22  O   UNL     1       7.374   5.167  16.723  0.00  0.00    +0.000 OA
ATOM     23  C   UNL     1       6.852   5.220  17.983  0.00  0.00    +0.000 A 
ATOM     24  C   UNL     1       7.740   5.704  19.054  0.00  0.00    +0.000 C 
BRANCH  21  25
ATOM     25  C   UNL     1       6.639   4.546  14.518  0.00  0.00    +0.000 A 
ATOM     26  C   UNL     1       5.934   3.606  13.752  0.00  0.00    +0.000 A 
ATOM     27  C   UNL     1       6.189   3.462  12.385  0.00  0.00    +0.000 A 
ATOM     28  C   UNL     1       7.158   4.253  11.768  0.00  0.00    +0.000 A 
ATOM     29  C   UNL     1       7.872   5.186  12.516  0.00  0.00    +0.000 A 
ATOM     30  C   UNL     1       7.614   5.331  13.882  0.00  0.00    +0.000 A 
ENDBRANCH  21  25
ENDBRANCH  18  19
ENDBRANCH   6  18
TORSDOF 8
ENDMDL
MODEL 3
REMARK VINA RESULT:      -8.3      0.679      1.759
REMARK  Name = 
REMARK  10 active torsions:
REMARK  status: ('A' for Active; 'I' for Inactive)
REMARK    1  A    between atoms: C_1  and  O_2
REMARK    2  A    between atoms: O_2  and  C_3
REMARK    3  A    between atoms: C_3  and  C_4
REMARK    4  A    between atoms: C_3  and  C_27
REMARK    5  A    between atoms: C_4  and  C_5
REMARK    6  A    between atoms: C_10  and  C_11
REMARK    7  A    between atoms: C_11  and  C_12
REMARK    8  A    between atoms: C_14  and  C_15
REMARK    9  A    between atoms: C_22  and  C_23
REMARK   10  A    between atoms: C_27  and  O_29
REMARK                            x       y       z     vdW  Elec       q    Type
REMARK                         _______ _______ _______ _____ _____    ______ ____
ROOT
ATOM      1  C   UNL     1       0.945   9.326  19.687  0.00  0.00    +0.000 A 
ATOM      2  C   UNL     1       1.477   9.564  18.407  0.00  0.00    +0.000 A 
ATOM      3  C   UNL     1       2.328   8.644  17.788  0.00  0.00    +0.000 A 
ATOM      4  C   UNL     1       2.648   7.503  18.518  0.00  0.00    +0.000 A 
ATOM      5  O   UNL     1       3.446   6.489  18.088  0.00  0.00    +0.000 OA
ATOM      6  C   UNL     1       3.533   5.584  19.108  0.00  0.00    +0.000 A 
ATOM      7  C   UNL     1       2.769   6.005  20.178  0.00  0.00    +0.000 A 
ATOM      8  C   UNL     1       2.191   7.247  19.804  0.00  0.00    +0.000 A 
ATOM      9  C   UNL     1       1.325   8.176  20.408  0.00  0.00    +0.000 A 
ENDROOT
BRANCH   1  10
ATOM     10  C   UNL     1      -0.149  10.229  20.232  0.00  0.00    +0.000 C 
BRANCH  10  11
ATOM     11  C   UNL     1       0.337  11.101  21.407  0.00  0.00    +0.000 C 
BRANCH  11  13
ATOM     12  C   UNL     1      -0.754   9.996  23.228  0.00  0.00    +0.000 C 
ATOM     13  O   UNL     1      -0.680  11.175  22.424  0.00  0.00    +0.000 OA
ENDBRANCH  11  13
BRANCH  11  14
ATOM     14  C   UNL     1       0.672  12.506  20.893  0.00  0.00    +0.000 C 
ATOM     15  O   UNL     1      -0.154  13.311  20.489  0.00  0.00    +0.000 OA
BRANCH  14  16
ATOM     16  O   UNL     1       1.999  12.779  20.958  0.00  0.00    +0.000 OA
ATOM     17  H   UNL     1       2.180  13.321  21.754  0.00  0.00    +0.000 HD
ENDBRANCH  14  16
ENDBRANCH  11  14
ENDBRANCH  10  11
ENDBRANCH   1  10
BRANCH   6  18
ATOM     18  C   UNL     1       4.434   4.422  18.878  0.00  0.00    +0.000 C 
BRANCH  18  19
ATOM     19  C   UNL     1       5.444   4.647  17.808  0.00  0.00    +0.000 A 
ATOM     20  N   UNL     1       5.171   4.331  16.489  0.00  0.00    +0.000 NA
ATOM     21  C   UNL     1       6.291   4.606  15.846  0.00  0.00    +0.000 A 
ATOM     22  O   UNL     1       7.287   5.091  16.652  0.00  0.00    +0.000 OA
ATOM     23  C   UNL     1       6.738   5.118  17.902  0.00  0.00    +0.000 A 
ATOM     24  C   UNL     1       7.594   5.609  18.996  0.00  0.00    +0.000 C 
BRANCH  21  25
ATOM     25  C   UNL     1       6.610   4.480  14.426  0.00  0.00    +0.000 A 
ATOM     26  C   UNL     1       5.948   3.528  13.637  0.00  0.00    +0.000 A 
ATOM     27  C   UNL     1       6.234   3.405  12.274  0.00  0.00    +0.000 A 
ATOM     28  C   UNL     1       7.190   4.230  11.684  0.00  0.00    +0.000 A 
ATOM     29  C   UNL     1       7.862   5.176  12.454  0.00  0.00    +0.000 A 
ATOM     30  C   UNL     1       7.573   5.300  13.816  0.00  0.00    +0.000 A 
ENDBRANCH  21  25
ENDBRANCH  18  19
ENDBRANCH   6  18
TORSDOF 8
ENDMDL
MODEL 4
REMARK VINA RESULT:      -8.1      1.342      2.240
REMARK  Name = 
REMARK  10 active torsions:
REMARK  status: ('A' for Active; 'I' for Inactive)
REMARK    1  A    between atoms: C_1  and  O_2
REMARK    2  A    between atoms: O_2  and  C_3
REMARK    3  A    between atoms: C_3  and  C_4
REMARK    4  A    between atoms: C_3  and  C_27
REMARK    5  A    between atoms: C_4  and  C_5
REMARK    6  A    between atoms: C_10  and  C_11
REMARK    7  A    between atoms: C_11  and  C_12
REMARK    8  A    between atoms: C_14  and  C_15
REMARK    9  A    between atoms: C_22  and  C_23
REMARK   10  A    between atoms: C_27  and  O_29
REMARK                            x       y       z     vdW  Elec       q    Type
REMARK                         _______ _______ _______ _____ _____    ______ ____
ROOT
ATOM      1  C   UNL     1       0.721   9.735  19.343  0.00  0.00    +0.000 A 
ATOM      2  C   UNL     1       0.564   9.117  20.596  0.00  0.00    +0.000 A 
ATOM      3  C   UNL     1       1.267   7.956  20.932  0.00  0.00    +0.000 A 
ATOM      4  C   UNL     1       2.099   7.428  19.950  0.00  0.00    +0.000 A 
ATOM      5  O   UNL     1       2.872   6.317  20.085  0.00  0.00    +0.000 OA
ATOM      6  C   UNL     1       3.505   6.118  18.891  0.00  0.00    +0.000 A 
ATOM      7  C   UNL     1       3.160   7.117  18.002  0.00  0.00    +0.000 A 
ATOM      8  C   UNL     1       2.249   7.971  18.680  0.00  0.00    +0.000 A 
ATOM      9  C   UNL     1       1.546   9.146  18.364  0.00  0.00    +0.000 A 
ENDROOT
BRANCH   1  10
ATOM     10  C   UNL     1       0.125  11.111  19.096  0.00  0.00    +0.000 C 
BRANCH  10  11
ATOM     11  C   UNL     1      -0.771  11.581  20.260  0.00  0.00    +0.000 C 
BRANCH  11  13
ATOM     12  C   UNL     1      -2.208  11.776  18.357  0.00  0.00    +0.000 C 
ATOM     13  O   UNL     1      -2.062  11.980  19.763  0.00  0.00    +0.000 OA
ENDBRANCH  11  13
BRANCH  11  14
ATOM     14  C   UNL     1      -0.096  12.757  20.978  0.00  0.00    +0.000 C 
ATOM     15  O   UNL     1       1.010  12.710  21.493  0.00  0.00    +0.000 OA
BRANCH  14  16
ATOM     16  O   UNL     1      -0.855  13.880  20.959  0.00  0.00    +0.000 OA
ATOM     17  H   UNL     1      -0.403  14.585  21.468  0.00  0.00    +0.000 HD
ENDBRANCH  14  16
ENDBRANCH  11  14
ENDBRANCH  10  11
ENDBRANCH   1  10
BRANCH   6  18
ATOM     18  C   UNL     1       4.349   4.896  18.791  0.00  0.00    +0.000 C 
BRANCH  18  19
ATOM     19  C   UNL     1       5.395   4.973  17.735  0.00  0.00    +0.000 A 
ATOM     20  N   UNL     1       5.108   4.656  16.419  0.00  0.00    +0.000 NA
ATOM     21  C   UNL     1       6.263   4.781  15.791  0.00  0.00    +0.000 A 
ATOM     22  O   UNL     1       7.295   5.167  16.604  0.00  0.00    +0.000 OA
ATOM     23  C   UNL     1       6.733   5.292  17.842  0.00  0.00    +0.000 A 
ATOM     24  C   UNL     1       7.623   5.709  18.939  0.00  0.00    +0.000 C 
BRANCH  21  25
ATOM     25  C   UNL     1       6.588   4.580  14.381  0.00  0.00    +0.000 A 
ATOM     26  C   UNL     1       5.897   3.618  13.629  0.00  0.00    +0.000 A 
ATOM     27  C   UNL     1       6.189   3.424  12.275  0.00  0.00    +0.000 A 
ATOM     28  C   UNL     1       7.180   4.187  11.658  0.00  0.00    +0.000 A 
ATOM     29  C   UNL     1       7.880   5.142  12.392  0.00  0.00    +0.000 A 
ATOM     30  C   UNL     1       7.585   5.336  13.744  0.00  0.00    +0.000 A 
ENDBRANCH  21  25
ENDBRANCH  18  19
ENDBRANCH   6  18
TORSDOF 8
ENDMDL
MODEL 5
REMARK VINA RESULT:      -8.1      1.503      2.602
REMARK  Name = 
REMARK  10 active torsions:
REMARK  status: ('A' for Active; 'I' for Inactive)
REMARK    1  A    between atoms: C_1  and  O_2
REMARK    2  A    between atoms: O_2  and  C_3
REMARK    3  A    between atoms: C_3  and  C_4
REMARK    4  A    between atoms: C_3  and  C_27
REMARK    5  A    between atoms: C_4  and  C_5
REMARK    6  A    between atoms: C_10  and  C_11
REMARK    7  A    between atoms: C_11  and  C_12
REMARK    8  A    between atoms: C_14  and  C_15
REMARK    9  A    between atoms: C_22  and  C_23
REMARK   10  A    between atoms: C_27  and  O_29
REMARK                            x       y       z     vdW  Elec       q    Type
REMARK                         _______ _______ _______ _____ _____    ______ ____
ROOT
ATOM      1  C   UNL     1       0.783   9.940  19.844  0.00  0.00    +0.000 A 
ATOM      2  C   UNL     1       0.558   9.210  21.024  0.00  0.00    +0.000 A 
ATOM      3  C   UNL     1       1.099   7.934  21.210  0.00  0.00    +0.000 A 
ATOM      4  C   UNL     1       1.839   7.414  20.153  0.00  0.00    +0.000 A 
ATOM      5  O   UNL     1       2.455   6.201  20.142  0.00  0.00    +0.000 OA
ATOM      6  C   UNL     1       3.040   6.056  18.916  0.00  0.00    +0.000 A 
ATOM      7  C   UNL     1       2.824   7.186  18.154  0.00  0.00    +0.000 A 
ATOM      8  C   UNL     1       2.047   8.072  18.947  0.00  0.00    +0.000 A 
ATOM      9  C   UNL     1       1.508   9.359  18.782  0.00  0.00    +0.000 A 
ENDROOT
BRANCH   1  10
ATOM     10  C   UNL     1       0.377  11.402  19.768  0.00  0.00    +0.000 C 
BRANCH  10  11
ATOM     11  C   UNL     1       1.593  12.349  19.717  0.00  0.00    +0.000 C 
BRANCH  11  13
ATOM     12  C   UNL     1       2.860  13.919  21.004  0.00  0.00    +0.000 C 
ATOM     13  O   UNL     1       1.711  13.072  20.957  0.00  0.00    +0.000 OA
ENDBRANCH  11  13
BRANCH  11  14
ATOM     14  C   UNL     1       1.427  13.328  18.548  0.00  0.00    +0.000 C 
ATOM     15  O   UNL     1       0.696  14.307  18.564  0.00  0.00    +0.000 OA
BRANCH  14  16
ATOM     16  O   UNL     1       2.207  13.005  17.487  0.00  0.00    +0.000 OA
ATOM     17  H   UNL     1       3.065  12.659  17.809  0.00  0.00    +0.000 HD
ENDBRANCH  14  16
ENDBRANCH  11  14
ENDBRANCH  10  11
ENDBRANCH   1  10
BRANCH   6  18
ATOM     18  C   UNL     1       3.707   4.750  18.658  0.00  0.00    +0.000 C 
BRANCH  18  19
ATOM     19  C   UNL     1       4.844   4.836  17.700  0.00  0.00    +0.000 A 
ATOM     20  N   UNL     1       4.670   4.550  16.358  0.00  0.00    +0.000 NA
ATOM     21  C   UNL     1       5.877   4.672  15.837  0.00  0.00    +0.000 A 
ATOM     22  O   UNL     1       6.838   5.029  16.746  0.00  0.00    +0.000 OA
ATOM     23  C   UNL     1       6.171   5.135  17.932  0.00  0.00    +0.000 A 
ATOM     24  C   UNL     1       6.965   5.518  19.112  0.00  0.00    +0.000 C 
BRANCH  21  25
ATOM     25  C   UNL     1       6.324   4.497  14.457  0.00  0.00    +0.000 A 
ATOM     26  C   UNL     1       5.653   3.604  13.608  0.00  0.00    +0.000 A 
ATOM     27  C   UNL     1       6.061   3.435  12.281  0.00  0.00    +0.000 A 
ATOM     28  C   UNL     1       7.149   4.154  11.788  0.00  0.00    +0.000 A 
ATOM     29  C   UNL     1       7.830   5.040  12.619  0.00  0.00    +0.000 A 
ATOM     30  C   UNL     1       7.420   5.209  13.945  0.00  0.00    +0.000 A 
ENDBRANCH  21  25
ENDBRANCH  18  19
ENDBRANCH   6  18
TORSDOF 8
ENDMDL
MODEL 6
REMARK VINA RESULT:      -8.0      1.110      1.620
REMARK  Name = 
REMARK  10 active torsions:
REMARK  status: ('A' for Active; 'I' for Inactive)
REMARK    1  A    between atoms: C_1  and  O_2
REMARK    2  A    between atoms: O_2  and  C_3
REMARK    3  A    between atoms: C_3  and  C_4
REMARK    4  A    between atoms: C_3  and  C_27
REMARK    5  A    between atoms: C_4  and  C_5
REMARK    6  A    between atoms: C_10  and  C_11
REMARK    7  A    between atoms: C_11  and  C_12
REMARK    8  A    between atoms: C_14  and  C_15
REMARK    9  A    between atoms: C_22  and  C_23
REMARK   10  A    between atoms: C_27  and  O_29
REMARK                            x       y       z     vdW  Elec       q    Type
REMARK                         _______ _______ _______ _____ _____    ______ ____
ROOT
ATOM      1  C   UNL     1       1.180  10.121  20.081  0.00  0.00    +0.000 A 
ATOM      2  C   UNL     1       1.293  10.278  18.688  0.00  0.00    +0.000 A 
ATOM      3  C   UNL     1       1.675   9.216  17.862  0.00  0.00    +0.000 A 
ATOM      4  C   UNL     1       1.970   8.013  18.494  0.00  0.00    +0.000 A 
ATOM      5  O   UNL     1       2.347   6.864  17.868  0.00  0.00    +0.000 OA
ATOM      6  C   UNL     1       2.574   5.931  18.840  0.00  0.00    +0.000 A 
ATOM      7  C   UNL     1       2.317   6.473  20.083  0.00  0.00    +0.000 A 
ATOM      8  C   UNL     1       1.924   7.821  19.869  0.00  0.00    +0.000 A 
ATOM      9  C   UNL     1       1.525   8.894  20.684  0.00  0.00    +0.000 A 
ENDROOT
BRANCH   1  10
ATOM     10  C   UNL     1       0.546  11.219  20.918  0.00  0.00    +0.000 C 
BRANCH  10  11
ATOM     11  C   UNL     1      -0.939  10.941  21.227  0.00  0.00    +0.000 C 
BRANCH  11  13
ATOM     12  C   UNL     1      -2.063  11.710  19.259  0.00  0.00    +0.000 C 
ATOM     13  O   UNL     1      -1.768  11.959  20.634  0.00  0.00    +0.000 OA
ENDBRANCH  11  13
BRANCH  11  14
ATOM     14  C   UNL     1      -1.146  10.911  22.746  0.00  0.00    +0.000 C 
ATOM     15  O   UNL     1      -2.106  11.397  23.323  0.00  0.00    +0.000 OA
BRANCH  14  16
ATOM     16  O   UNL     1      -0.150  10.256  23.392  0.00  0.00    +0.000 OA
ATOM     17  H   UNL     1      -0.482   9.390  23.706  0.00  0.00    +0.000 HD
ENDBRANCH  14  16
ENDBRANCH  11  14
ENDBRANCH  10  11
ENDBRANCH   1  10
BRANCH   6  18
ATOM     18  C   UNL     1       3.080   4.611  18.375  0.00  0.00    +0.000 C 
BRANCH  18  19
ATOM     19  C   UNL     1       4.314   4.698  17.547  0.00  0.00    +0.000 A 
ATOM     20  N   UNL     1       4.278   4.468  16.183  0.00  0.00    +0.000 NA
ATOM     21  C   UNL     1       5.537   4.574  15.798  0.00  0.00    +0.000 A 
ATOM     22  O   UNL     1       6.404   4.867  16.818  0.00  0.00    +0.000 OA
ATOM     23  C   UNL     1       5.616   4.948  17.930  0.00  0.00    +0.000 A 
ATOM     24  C   UNL     1       6.289   5.262  19.202  0.00  0.00    +0.000 C 
BRANCH  21  25
ATOM     25  C   UNL     1       6.124   4.438  14.467  0.00  0.00    +0.000 A 
ATOM     26  C   UNL     1       5.548   3.568  13.530  0.00  0.00    +0.000 A 
ATOM     27  C   UNL     1       6.091   3.437  12.248  0.00  0.00    +0.000 A 
ATOM     28  C   UNL     1       7.221   4.171  11.890  0.00  0.00    +0.000 A 
ATOM     29  C   UNL     1       7.809   5.034  12.811  0.00  0.00    +0.000 A 
ATOM     30  C   UNL     1       7.264   5.165  14.091  0.00  0.00    +0.000 A 
ENDBRANCH  21  25
ENDBRANCH  18  19
ENDBRANCH   6  18
TORSDOF 8
ENDMDL
MODEL 7
REMARK VINA RESULT:      -8.0      1.249      2.284
REMARK  Name = 
REMARK  10 active torsions:
REMARK  status: ('A' for Active; 'I' for Inactive)
REMARK    1  A    between atoms: C_1  and  O_2
REMARK    2  A    between atoms: O_2  and  C_3
REMARK    3  A    between atoms: C_3  and  C_4
REMARK    4  A    between atoms: C_3  and  C_27
REMARK    5  A    between atoms: C_4  and  C_5
REMARK    6  A    between atoms: C_10  and  C_11
REMARK    7  A    between atoms: C_11  and  C_12
REMARK    8  A    between atoms: C_14  and  C_15
REMARK    9  A    between atoms: C_22  and  C_23
REMARK   10  A    between atoms: C_27  and  O_29
REMARK                            x       y       z     vdW  Elec       q    Type
REMARK                         _______ _______ _______ _____ _____    ______ ____
ROOT
ATOM      1  C   UNL     1       0.854   9.449  19.822  0.00  0.00    +0.000 A 
ATOM      2  C   UNL     1       0.637   8.685  20.983  0.00  0.00    +0.000 A 
ATOM      3  C   UNL     1       1.284   7.462  21.185  0.00  0.00    +0.000 A 
ATOM      4  C   UNL     1       2.123   7.028  20.164  0.00  0.00    +0.000 A 
ATOM      5  O   UNL     1       2.849   5.877  20.176  0.00  0.00    +0.000 OA
ATOM      6  C   UNL     1       3.509   5.804  18.981  0.00  0.00    +0.000 A 
ATOM      7  C   UNL     1       3.228   6.920  18.218  0.00  0.00    +0.000 A 
ATOM      8  C   UNL     1       2.332   7.719  18.978  0.00  0.00    +0.000 A 
ATOM      9  C   UNL     1       1.684   8.953  18.796  0.00  0.00    +0.000 A 
ENDROOT
BRANCH   1  10
ATOM     10  C   UNL     1       0.319  10.868  19.738  0.00  0.00    +0.000 C 
BRANCH  10  11
ATOM     11  C   UNL     1       1.334  11.912  20.245  0.00  0.00    +0.000 C 
BRANCH  11  13
ATOM     12  C   UNL     1      -0.589  12.586  21.499  0.00  0.00    +0.000 C 
ATOM     13  O   UNL     1       0.837  12.549  21.437  0.00  0.00    +0.000 OA
ENDBRANCH  11  13
BRANCH  11  14
ATOM     14  C   UNL     1       1.577  12.958  19.150  0.00  0.00    +0.000 C 
ATOM     15  O   UNL     1       2.464  13.797  19.180  0.00  0.00    +0.000 OA
BRANCH  14  16
ATOM     16  O   UNL     1       0.710  12.837  18.115  0.00  0.00    +0.000 OA
ATOM     17  H   UNL     1       0.296  11.949  18.141  0.00  0.00    +0.000 HD
ENDBRANCH  14  16
ENDBRANCH  11  14
ENDBRANCH  10  11
ENDBRANCH   1  10
BRANCH   6  18
ATOM     18  C   UNL     1       4.307   4.569  18.747  0.00  0.00    +0.000 C 
BRANCH  18  19
ATOM     19  C   UNL     1       5.342   4.715  17.687  0.00  0.00    +0.000 A 
ATOM     20  N   UNL     1       5.057   4.421  16.365  0.00  0.00    +0.000 NA
ATOM     21  C   UNL     1       6.201   4.607  15.733  0.00  0.00    +0.000 A 
ATOM     22  O   UNL     1       7.224   5.014  16.549  0.00  0.00    +0.000 OA
ATOM     23  C   UNL     1       6.667   5.085  17.793  0.00  0.00    +0.000 A 
ATOM     24  C   UNL     1       7.548   5.509  18.895  0.00  0.00    +0.000 C 
BRANCH  21  25
ATOM     25  C   UNL     1       6.523   4.456  14.316  0.00  0.00    +0.000 A 
ATOM     26  C   UNL     1       7.484   5.287  13.720  0.00  0.00    +0.000 A 
ATOM     27  C   UNL     1       7.812   5.146  12.368  0.00  0.00    +0.000 A 
ATOM     28  C   UNL     1       7.179   4.175  11.594  0.00  0.00    +0.000 A 
ATOM     29  C   UNL     1       6.218   3.346  12.168  0.00  0.00    +0.000 A 
ATOM     30  C   UNL     1       5.893   3.487  13.520  0.00  0.00    +0.000 A 
ENDBRANCH  21  25
ENDBRANCH  18  19
ENDBRANCH   6  18
TORSDOF 8
ENDMDL
MODEL 8
REMARK VINA RESULT:      -7.9      3.042      9.372
REMARK  Name = 
REMARK  10 active torsions:
REMARK  status: ('A' for Active; 'I' for Inactive)
REMARK    1  A    between atoms: C_1  and  O_2
REMARK    2  A    between atoms: O_2  and  C_3
REMARK    3  A    between atoms: C_3  and  C_4
REMARK    4  A    between atoms: C_3  and  C_27
REMARK    5  A    between atoms: C_4  and  C_5
REMARK    6  A    between atoms: C_10  and  C_11
REMARK    7  A    between atoms: C_11  and  C_12
REMARK    8  A    between atoms: C_14  and  C_15
REMARK    9  A    between atoms: C_22  and  C_23
REMARK   10  A    between atoms: C_27  and  O_29
REMARK                            x       y       z     vdW  Elec       q    Type
REMARK                         _______ _______ _______ _____ _____    ______ ____
ROOT
ATOM      1  C   UNL     1       4.327   4.870  17.473  0.00  0.00    +0.000 A 
ATOM      2  C   UNL     1       4.024   4.192  18.667  0.00  0.00    +0.000 A 
ATOM      3  C   UNL     1       3.254   4.788  19.670  0.00  0.00    +0.000 A 
ATOM      4  C   UNL     1       2.837   6.095  19.440  0.00  0.00    +0.000 A 
ATOM      5  O   UNL     1       2.074   6.840  20.284  0.00  0.00    +0.000 OA
ATOM      6  C   UNL     1       1.917   8.069  19.708  0.00  0.00    +0.000 A 
ATOM      7  C   UNL     1       2.555   8.101  18.484  0.00  0.00    +0.000 A 
ATOM      8  C   UNL     1       3.153   6.826  18.302  0.00  0.00    +0.000 A 
ATOM      9  C   UNL     1       3.917   6.207  17.296  0.00  0.00    +0.000 A 
ENDROOT
BRANCH   1  10
ATOM     10  C   UNL     1       4.965   4.119  16.316  0.00  0.00    +0.000 C 
BRANCH  10  11
ATOM     11  C   UNL     1       6.041   4.954  15.594  0.00  0.00    +0.000 C 
BRANCH  11  13
ATOM     12  C   UNL     1       5.486   3.890  13.524  0.00  0.00    +0.000 C 
ATOM     13  O   UNL     1       6.525   4.246  14.437  0.00  0.00    +0.000 OA
ENDBRANCH  11  13
BRANCH  11  14
ATOM     14  C   UNL     1       7.198   5.238  16.560  0.00  0.00    +0.000 C 
ATOM     15  O   UNL     1       7.794   4.383  17.196  0.00  0.00    +0.000 OA
BRANCH  14  16
ATOM     16  O   UNL     1       7.513   6.556  16.617  0.00  0.00    +0.000 OA
ATOM     17  H   UNL     1       8.008   6.806  15.809  0.00  0.00    +0.000 HD
ENDBRANCH  14  16
ENDBRANCH  11  14
ENDBRANCH  10  11
ENDBRANCH   1  10
BRANCH   6  18
ATOM     18  C   UNL     1       1.174   9.080  20.510  0.00  0.00    +0.000 C 
BRANCH  18  19
ATOM     19  C   UNL     1       0.386  10.038  19.687  0.00  0.00    +0.000 A 
ATOM     20  N   UNL     1      -0.879   9.715  19.229  0.00  0.00    +0.000 NA
ATOM     21  C   UNL     1      -1.242  10.756  18.503  0.00  0.00    +0.000 A 
ATOM     22  O   UNL     1      -0.302  11.752  18.457  0.00  0.00    +0.000 OA
ATOM     23  C   UNL     1       0.732  11.289  19.218  0.00  0.00    +0.000 A 
ATOM     24  C   UNL     1       1.905  12.168  19.355  0.00  0.00    +0.000 C 
BRANCH  21  25
ATOM     25  C   UNL     1      -2.480  10.998  17.767  0.00  0.00    +0.000 A 
ATOM     26  C   UNL     1      -3.574  11.599  18.408  0.00  0.00    +0.000 A 
ATOM     27  C   UNL     1      -4.762  11.848  17.713  0.00  0.00    +0.000 A 
ATOM     28  C   UNL     1      -4.871  11.496  16.369  0.00  0.00    +0.000 A 
ATOM     29  C   UNL     1      -3.797  10.893  15.719  0.00  0.00    +0.000 A 
ATOM     30  C   UNL     1      -2.610  10.646  16.414  0.00  0.00    +0.000 A 
ENDBRANCH  21  25
ENDBRANCH  18  19
ENDBRANCH   6  18
TORSDOF 8
ENDMDL
MODEL 9
REMARK VINA RESULT:      -7.9      1.558      2.465
REMARK  Name = 
REMARK  10 active torsions:
REMARK  status: ('A' for Active; 'I' for Inactive)
REMARK    1  A    between atoms: C_1  and  O_2
REMARK    2  A    between atoms: O_2  and  C_3
REMARK    3  A    between atoms: C_3  and  C_4
REMARK    4  A    between atoms: C_3  and  C_27
REMARK    5  A    between atoms: C_4  and  C_5
REMARK    6  A    between atoms: C_10  and  C_11
REMARK    7  A    between atoms: C_11  and  C_12
REMARK    8  A    between atoms: C_14  and  C_15
REMARK    9  A    between atoms: C_22  and  C_23
REMARK   10  A    between atoms: C_27  and  O_29
REMARK                            x       y       z     vdW  Elec       q    Type
REMARK                         _______ _______ _______ _____ _____    ______ ____
ROOT
ATOM      1  C   UNL     1       0.912  10.371  19.193  0.00  0.00    +0.000 A 
ATOM      2  C   UNL     1       0.627   9.755  20.425  0.00  0.00    +0.000 A 
ATOM      3  C   UNL     1       1.146   8.498  20.751  0.00  0.00    +0.000 A 
ATOM      4  C   UNL     1       1.925   7.877  19.779  0.00  0.00    +0.000 A 
ATOM      5  O   UNL     1       2.527   6.663  19.908  0.00  0.00    +0.000 OA
ATOM      6  C   UNL     1       3.163   6.402  18.727  0.00  0.00    +0.000 A 
ATOM      7  C   UNL     1       2.993   7.459  17.855  0.00  0.00    +0.000 A 
ATOM      8  C   UNL     1       2.192   8.420  18.529  0.00  0.00    +0.000 A 
ATOM      9  C   UNL     1       1.675   9.690  18.223  0.00  0.00    +0.000 A 
ENDROOT
BRANCH   1  10
ATOM     10  C   UNL     1       0.526  11.823  18.966  0.00  0.00    +0.000 C 
BRANCH  10  11
ATOM     11  C   UNL     1       0.506  12.639  20.273  0.00  0.00    +0.000 C 
BRANCH  11  13
ATOM     12  C   UNL     1      -1.852  12.965  20.025  0.00  0.00    +0.000 C 
ATOM     13  O   UNL     1      -0.583  13.581  20.254  0.00  0.00    +0.000 OA
ENDBRANCH  11  13
BRANCH  11  14
ATOM     14  C   UNL     1       1.840  13.378  20.432  0.00  0.00    +0.000 C 
ATOM     15  O   UNL     1       2.295  13.763  21.498  0.00  0.00    +0.000 OA
BRANCH  14  16
ATOM     16  O   UNL     1       2.486  13.541  19.251  0.00  0.00    +0.000 OA
ATOM     17  H   UNL     1       1.962  14.136  18.675  0.00  0.00    +0.000 HD
ENDBRANCH  14  16
ENDBRANCH  11  14
ENDBRANCH  10  11
ENDBRANCH   1  10
BRANCH   6  18
ATOM     18  C   UNL     1       3.826   5.074  18.620  0.00  0.00    +0.000 C 
BRANCH  18  19
ATOM     19  C   UNL     1       4.951   5.041  17.645  0.00  0.00    +0.000 A 
ATOM     20  N   UNL     1       4.732   4.747  16.311  0.00  0.00    +0.000 NA
ATOM     21  C   UNL     1       5.937   4.753  15.771  0.00  0.00    +0.000 A 
ATOM     22  O   UNL     1       6.940   5.040  16.659  0.00  0.00    +0.000 OA
ATOM     23  C   UNL     1       6.303   5.226  17.852  0.00  0.00    +0.000 A 
ATOM     24  C   UNL     1       7.145   5.559  19.013  0.00  0.00    +0.000 C 
BRANCH  21  25
ATOM     25  C   UNL     1       6.345   4.513  14.388  0.00  0.00    +0.000 A 
ATOM     26  C   UNL     1       5.656   3.578  13.603  0.00  0.00    +0.000 A 
ATOM     27  C   UNL     1       6.027   3.347  12.275  0.00  0.00    +0.000 A 
ATOM     28  C   UNL     1       7.096   4.047  11.717  0.00  0.00    +0.000 A 
ATOM     29  C   UNL     1       7.795   4.975  12.485  0.00  0.00    +0.000 A 
ATOM     30  C   UNL     1       7.422   5.206  13.812  0.00  0.00    +0.000 A 
ENDBRANCH  21  25
ENDBRANCH  18  19
ENDBRANCH   6  18
TORSDOF 8
ENDMDL
