MODEL 1
REMARK VINA RESULT:      -9.8      0.000      0.000
REMARK  Name = 
REMARK  3 active torsions:
REMARK  status: ('A' for Active; 'I' for Inactive)
REMARK    1  A    between atoms: C_10  and  C_11
REMARK    2  A    between atoms: C_11  and  N_12
REMARK    3  A    between atoms: C_26  and  C_27
REMARK                            x       y       z     vdW  Elec       q    Type
REMARK                         _______ _______ _______ _____ _____    ______ ____
ROOT
ATOM      1  N   UNL     1      -0.435  12.296  18.325  0.00  0.00    +0.000 N 
ATOM      2  C   UNL     1      -0.108  11.320  19.231  0.00  0.00    +0.000 A 
ATOM      3  N   UNL     1       0.722  10.363  18.955  0.00  0.00    +0.000 NA
ATOM      4  C   UNL     1       0.978   9.376  19.898  0.00  0.00    +0.000 A 
ATOM      5  N   UNL     1       1.777   8.326  19.504  0.00  0.00    +0.000 N 
ATOM      6  C   UNL     1       2.352   8.214  18.161  0.00  0.00    +0.000 C 
ATOM      7  C   UNL     1       2.196   6.779  17.610  0.00  0.00    +0.000 C 
ATOM      8  N   UNL     1       2.699   5.733  18.533  0.00  0.00    +0.000 NA
ATOM      9  C   UNL     1       2.475   4.399  17.952  0.00  0.00    +0.000 C 
ATOM     10  C   UNL     1       2.906   3.243  18.876  0.00  0.00    +0.000 C 
ATOM     11  C   UNL     1       2.247   3.412  20.255  0.00  0.00    +0.000 C 
ATOM     12  C   UNL     1       2.480   4.808  20.828  0.00  0.00    +0.000 C 
ATOM     13  C   UNL     1       2.010   5.886  19.843  0.00  0.00    +0.000 C 
ATOM     14  C   UNL     1       2.253   7.298  20.439  0.00  0.00    +0.000 C 
ATOM     15  N   UNL     1       0.480   9.401  21.110  0.00  0.00    +0.000 NA
ATOM     16  C   UNL     1      -0.358  10.413  21.429  0.00  0.00    +0.000 A 
ATOM     17  N   UNL     1      -1.009  10.706  22.536  0.00  0.00    +0.000 NA
ATOM     18  C   UNL     1      -1.742  11.828  22.195  0.00  0.00    +0.000 A 
ATOM     19  N   UNL     1      -1.553  12.266  20.938  0.00  0.00    +0.000 NA
ATOM     20  N   UNL     1      -0.678  11.346  20.497  0.00  0.00    +0.000 N 
ATOM     21  H   UNL     1       0.185  12.418  17.534  0.00  0.00    +0.000 HD
ATOM     22  H   UNL     1      -0.912  13.123  18.675  0.00  0.00    +0.000 HD
ENDROOT
BRANCH  18  23
ATOM     23  C   UNL     1      -2.674  12.498  23.148  0.00  0.00    +0.000 A 
ATOM     24  C   UNL     1      -2.698  13.850  23.438  0.00  0.00    +0.000 A 
ATOM     25  C   UNL     1      -3.729  14.049  24.388  0.00  0.00    +0.000 A 
ATOM     26  C   UNL     1      -4.263  12.806  24.634  0.00  0.00    +0.000 A 
ATOM     27  O   UNL     1      -3.641  11.864  23.881  0.00  0.00    +0.000 OA
ENDBRANCH  18  23
BRANCH  10  28
ATOM     28  C   UNL     1       4.434   3.100  19.020  0.00  0.00    +0.000 C 
BRANCH  28  29
ATOM     29  N   UNL     1       5.114   3.511  17.797  0.00  0.00    +0.000 N 
ATOM     30  C   UNL     1       6.010   4.560  17.987  0.00  0.00    +0.000 A 
ATOM     31  N   UNL     1       6.728   4.646  19.115  0.00  0.00    +0.000 NA
ATOM     32  C   UNL     1       7.567   5.696  19.229  0.00  0.00    +0.000 A 
ATOM     33  C   UNL     1       7.705   6.659  18.261  0.00  0.00    +0.000 A 
ATOM     34  C   UNL     1       6.921   6.483  17.148  0.00  0.00    +0.000 A 
ATOM     35  N   UNL     1       6.068   5.453  16.990  0.00  0.00    +0.000 NA
ATOM     36  H   UNL     1       4.499   3.853  17.062  0.00  0.00    +0.000 HD
ENDBRANCH  28  29
ENDBRANCH  10  28
TORSDOF 3
ENDMDL
MODEL 2
REMARK VINA RESULT:      -9.3      0.778      1.176
REMARK  Name = 
REMARK  3 active torsions:
REMARK  status: ('A' for Active; 'I' for Inactive)
REMARK    1  A    between atoms: C_10  and  C_11
REMARK    2  A    between atoms: C_11  and  N_12
REMARK    3  A    between atoms: C_26  and  C_27
REMARK                            x       y       z     vdW  Elec       q    Type
REMARK                         _______ _______ _______ _____ _____    ______ ____
ROOT
ATOM      1  N   UNL     1      -0.012  12.197  18.577  0.00  0.00    +0.000 N 
ATOM      2  C   UNL     1       0.165  11.168  19.466  0.00  0.00    +0.000 A 
ATOM      3  N   UNL     1       0.909  10.140  19.200  0.00  0.00    +0.000 NA
ATOM      4  C   UNL     1       1.013   9.105  20.122  0.00  0.00    +0.000 A 
ATOM      5  N   UNL     1       1.723   7.990  19.734  0.00  0.00    +0.000 N 
ATOM      6  C   UNL     1       2.357   7.859  18.418  0.00  0.00    +0.000 C 
ATOM      7  C   UNL     1       2.088   6.464  17.812  0.00  0.00    +0.000 C 
ATOM      8  N   UNL     1       2.433   5.346  18.724  0.00  0.00    +0.000 NA
ATOM      9  C   UNL     1       2.108   4.059  18.087  0.00  0.00    +0.000 C 
ATOM     10  C   UNL     1       2.370   2.839  18.992  0.00  0.00    +0.000 C 
ATOM     11  C   UNL     1       1.656   3.035  20.340  0.00  0.00    +0.000 C 
ATOM     12  C   UNL     1       1.996   4.383  20.972  0.00  0.00    +0.000 C 
ATOM     13  C   UNL     1       1.692   5.531  20.001  0.00  0.00    +0.000 C 
ATOM     14  C   UNL     1       2.042   6.893  20.656  0.00  0.00    +0.000 C 
ATOM     15  N   UNL     1       0.454   9.145  21.306  0.00  0.00    +0.000 NA
ATOM     16  C   UNL     1      -0.295  10.229  21.615  0.00  0.00    +0.000 A 
ATOM     17  N   UNL     1      -0.973  10.554  22.696  0.00  0.00    +0.000 NA
ATOM     18  C   UNL     1      -1.570  11.754  22.356  0.00  0.00    +0.000 A 
ATOM     19  N   UNL     1      -1.269  12.207  21.127  0.00  0.00    +0.000 NA
ATOM     20  N   UNL     1      -0.468  11.216  20.700  0.00  0.00    +0.000 N 
ATOM     21  H   UNL     1       0.659  12.278  17.825  0.00  0.00    +0.000 HD
ATOM     22  H   UNL     1      -0.423  13.058  18.931  0.00  0.00    +0.000 HD
ENDROOT
BRANCH  18  23
ATOM     23  C   UNL     1      -2.481  12.488  23.282  0.00  0.00    +0.000 A 
ATOM     24  C   UNL     1      -2.334  13.803  23.686  0.00  0.00    +0.000 A 
ATOM     25  C   UNL     1      -3.412  14.087  24.559  0.00  0.00    +0.000 A 
ATOM     26  C   UNL     1      -4.144  12.927  24.650  0.00  0.00    +0.000 A 
ATOM     27  O   UNL     1      -3.598  11.958  23.873  0.00  0.00    +0.000 OA
ENDBRANCH  18  23
BRANCH  10  28
ATOM     28  C   UNL     1       3.866   2.537  19.210  0.00  0.00    +0.000 C 
BRANCH  28  29
ATOM     29  N   UNL     1       4.623   3.768  19.407  0.00  0.00    +0.000 N 
ATOM     30  C   UNL     1       5.507   4.047  18.368  0.00  0.00    +0.000 A 
ATOM     31  N   UNL     1       5.184   3.754  17.102  0.00  0.00    +0.000 NA
ATOM     32  C   UNL     1       6.098   4.045  16.153  0.00  0.00    +0.000 A 
ATOM     33  C   UNL     1       7.317   4.611  16.429  0.00  0.00    +0.000 A 
ATOM     34  C   UNL     1       7.553   4.867  17.756  0.00  0.00    +0.000 A 
ATOM     35  N   UNL     1       6.674   4.592  18.739  0.00  0.00    +0.000 NA
ATOM     36  H   UNL     1       5.216   3.776  20.234  0.00  0.00    +0.000 HD
ENDBRANCH  28  29
ENDBRANCH  10  28
TORSDOF 3
ENDMDL
MODEL 3
REMARK VINA RESULT:      -8.7      1.243      1.617
REMARK  Name = 
REMARK  3 active torsions:
REMARK  status: ('A' for Active; 'I' for Inactive)
REMARK    1  A    between atoms: C_10  and  C_11
REMARK    2  A    between atoms: C_11  and  N_12
REMARK    3  A    between atoms: C_26  and  C_27
REMARK                            x       y       z     vdW  Elec       q    Type
REMARK                         _______ _______ _______ _____ _____    ______ ____
ROOT
ATOM      1  N   UNL     1       0.501  12.930  18.353  0.00  0.00    +0.000 N 
ATOM      2  C   UNL     1       0.638  11.903  19.251  0.00  0.00    +0.000 A 
ATOM      3  N   UNL     1       1.246  10.796  18.954  0.00  0.00    +0.000 NA
ATOM      4  C   UNL     1       1.312   9.772  19.891  0.00  0.00    +0.000 A 
ATOM      5  N   UNL     1       1.867   8.581  19.477  0.00  0.00    +0.000 N 
ATOM      6  C   UNL     1       2.376   8.360  18.121  0.00  0.00    +0.000 C 
ATOM      7  C   UNL     1       1.913   6.992  17.572  0.00  0.00    +0.000 C 
ATOM      8  N   UNL     1       2.209   5.858  18.482  0.00  0.00    +0.000 NA
ATOM      9  C   UNL     1       1.700   4.603  17.906  0.00  0.00    +0.000 C 
ATOM     10  C   UNL     1       1.902   3.378  18.818  0.00  0.00    +0.000 C 
ATOM     11  C   UNL     1       1.324   3.672  20.212  0.00  0.00    +0.000 C 
ATOM     12  C   UNL     1       1.854   4.986  20.781  0.00  0.00    +0.000 C 
ATOM     13  C   UNL     1       1.597   6.144  19.808  0.00  0.00    +0.000 C 
ATOM     14  C   UNL     1       2.140   7.471  20.399  0.00  0.00    +0.000 C 
ATOM     15  N   UNL     1       0.858   9.892  21.114  0.00  0.00    +0.000 NA
ATOM     16  C   UNL     1       0.255  11.055  21.453  0.00  0.00    +0.000 A 
ATOM     17  N   UNL     1      -0.295  11.470  22.575  0.00  0.00    +0.000 NA
ATOM     18  C   UNL     1      -0.787  12.721  22.252  0.00  0.00    +0.000 A 
ATOM     19  N   UNL     1      -0.539  13.118  20.992  0.00  0.00    +0.000 NA
ATOM     20  N   UNL     1       0.115  12.039  20.529  0.00  0.00    +0.000 N 
ATOM     21  H   UNL     1       1.115  12.925  17.549  0.00  0.00    +0.000 HD
ATOM     22  H   UNL     1       0.214  13.836  18.716  0.00  0.00    +0.000 HD
ENDROOT
BRANCH  18  23
ATOM     23  C   UNL     1      -1.538  13.564  23.228  0.00  0.00    +0.000 A 
ATOM     24  C   UNL     1      -2.915  13.650  23.329  0.00  0.00    +0.000 A 
ATOM     25  C   UNL     1      -3.194  14.560  24.377  0.00  0.00    +0.000 A 
ATOM     26  C   UNL     1      -1.973  14.988  24.844  0.00  0.00    +0.000 A 
ATOM     27  O   UNL     1      -0.966  14.383  24.165  0.00  0.00    +0.000 OA
ENDBRANCH  18  23
BRANCH  10  28
ATOM     28  C   UNL     1       3.371   2.920  18.927  0.00  0.00    +0.000 C 
BRANCH  28  29
ATOM     29  N   UNL     1       4.260   4.061  19.113  0.00  0.00    +0.000 N 
ATOM     30  C   UNL     1       5.236   4.169  18.126  0.00  0.00    +0.000 A 
ATOM     31  N   UNL     1       4.961   3.842  16.857  0.00  0.00    +0.000 NA
ATOM     32  C   UNL     1       5.962   3.964  15.962  0.00  0.00    +0.000 A 
ATOM     33  C   UNL     1       7.222   4.395  16.293  0.00  0.00    +0.000 A 
ATOM     34  C   UNL     1       7.403   4.699  17.619  0.00  0.00    +0.000 A 
ATOM     35  N   UNL     1       6.435   4.591  18.550  0.00  0.00    +0.000 NA
ATOM     36  H   UNL     1       4.795   4.047  19.978  0.00  0.00    +0.000 HD
ENDBRANCH  28  29
ENDBRANCH  10  28
TORSDOF 3
ENDMDL
MODEL 4
REMARK VINA RESULT:      -8.1      2.355      4.066
REMARK  Name = 
REMARK  3 active torsions:
REMARK  status: ('A' for Active; 'I' for Inactive)
REMARK    1  A    between atoms: C_10  and  C_11
REMARK    2  A    between atoms: C_11  and  N_12
REMARK    3  A    between atoms: C_26  and  C_27
REMARK                            x       y       z     vdW  Elec       q    Type
REMARK                         _______ _______ _______ _____ _____    ______ ____
ROOT
ATOM      1  N   UNL     1      -0.287   9.621  23.471  0.00  0.00    +0.000 N 
ATOM      2  C   UNL     1       0.240   9.685  22.206  0.00  0.00    +0.000 A 
ATOM      3  N   UNL     1       0.675   8.636  21.580  0.00  0.00    +0.000 NA
ATOM      4  C   UNL     1       1.242   8.771  20.319  0.00  0.00    +0.000 A 
ATOM      5  N   UNL     1       1.791   7.640  19.756  0.00  0.00    +0.000 N 
ATOM      6  C   UNL     1       1.799   6.334  20.421  0.00  0.00    +0.000 C 
ATOM      7  C   UNL     1       3.180   5.654  20.291  0.00  0.00    +0.000 C 
ATOM      8  N   UNL     1       3.676   5.584  18.894  0.00  0.00    +0.000 NA
ATOM      9  C   UNL     1       5.010   4.964  18.864  0.00  0.00    +0.000 C 
ATOM     10  C   UNL     1       5.635   4.912  17.457  0.00  0.00    +0.000 C 
ATOM     11  C   UNL     1       5.616   6.317  16.832  0.00  0.00    +0.000 C 
ATOM     12  C   UNL     1       4.225   6.945  16.890  0.00  0.00    +0.000 C 
ATOM     13  C   UNL     1       3.695   6.961  18.329  0.00  0.00    +0.000 C 
ATOM     14  C   UNL     1       2.283   7.601  18.373  0.00  0.00    +0.000 C 
ATOM     15  N   UNL     1       1.290   9.911  19.675  0.00  0.00    +0.000 NA
ATOM     16  C   UNL     1       0.805  11.009  20.298  0.00  0.00    +0.000 A 
ATOM     17  N   UNL     1       0.717  12.270  19.926  0.00  0.00    +0.000 NA
ATOM     18  C   UNL     1       0.186  12.900  21.036  0.00  0.00    +0.000 A 
ATOM     19  N   UNL     1      -0.093  12.086  22.069  0.00  0.00    +0.000 NA
ATOM     20  N   UNL     1       0.314  10.911  21.560  0.00  0.00    +0.000 N 
ATOM     21  H   UNL     1      -0.584   8.712  23.801  0.00  0.00    +0.000 HD
ATOM     22  H   UNL     1      -0.802  10.431  23.807  0.00  0.00    +0.000 HD
ENDROOT
BRANCH  18  23
ATOM     23  C   UNL     1      -0.057  14.371  21.084  0.00  0.00    +0.000 A 
ATOM     24  C   UNL     1      -0.059  15.225  19.995  0.00  0.00    +0.000 A 
ATOM     25  C   UNL     1      -0.328  16.523  20.492  0.00  0.00    +0.000 A 
ATOM     26  C   UNL     1      -0.459  16.389  21.854  0.00  0.00    +0.000 A 
ATOM     27  O   UNL     1      -0.310  15.091  22.221  0.00  0.00    +0.000 OA
ENDBRANCH  18  23
BRANCH  10  28
ATOM     28  C   UNL     1       4.963   3.892  16.516  0.00  0.00    +0.000 C 
BRANCH  28  29
ATOM     29  N   UNL     1       4.634   2.663  17.229  0.00  0.00    +0.000 N 
ATOM     30  C   UNL     1       3.367   2.680  17.806  0.00  0.00    +0.000 A 
ATOM     31  N   UNL     1       2.346   3.292  17.190  0.00  0.00    +0.000 NA
ATOM     32  C   UNL     1       1.152   3.273  17.817  0.00  0.00    +0.000 A 
ATOM     33  C   UNL     1       0.949   2.672  19.034  0.00  0.00    +0.000 A 
ATOM     34  C   UNL     1       2.058   2.079  19.583  0.00  0.00    +0.000 A 
ATOM     35  N   UNL     1       3.270   2.074  18.997  0.00  0.00    +0.000 NA
ATOM     36  H   UNL     1       5.249   2.446  18.010  0.00  0.00    +0.000 HD
ENDBRANCH  28  29
ENDBRANCH  10  28
TORSDOF 3
ENDMDL
MODEL 5
REMARK VINA RESULT:      -8.1      1.333      1.655
REMARK  Name = 
REMARK  3 active torsions:
REMARK  status: ('A' for Active; 'I' for Inactive)
REMARK    1  A    between atoms: C_10  and  C_11
REMARK    2  A    between atoms: C_11  and  N_12
REMARK    3  A    between atoms: C_26  and  C_27
REMARK                            x       y       z     vdW  Elec       q    Type
REMARK                         _______ _______ _______ _____ _____    ______ ____
ROOT
ATOM      1  N   UNL     1      -0.790  13.003  17.856  0.00  0.00    +0.000 N 
ATOM      2  C   UNL     1      -0.523  12.080  18.834  0.00  0.00    +0.000 A 
ATOM      3  N   UNL     1       0.326  11.114  18.666  0.00  0.00    +0.000 NA
ATOM      4  C   UNL     1       0.520  10.181  19.676  0.00  0.00    +0.000 A 
ATOM      5  N   UNL     1       1.346   9.115  19.394  0.00  0.00    +0.000 N 
ATOM      6  C   UNL     1       2.011   8.935  18.100  0.00  0.00    +0.000 C 
ATOM      7  C   UNL     1       1.896   7.472  17.618  0.00  0.00    +0.000 C 
ATOM      8  N   UNL     1       2.338   6.479  18.628  0.00  0.00    +0.000 NA
ATOM      9  C   UNL     1       2.156   5.115  18.106  0.00  0.00    +0.000 C 
ATOM     10  C   UNL     1       2.526   4.013  19.117  0.00  0.00    +0.000 C 
ATOM     11  C   UNL     1       1.775   4.252  20.438  0.00  0.00    +0.000 C 
ATOM     12  C   UNL     1       1.965   5.678  20.950  0.00  0.00    +0.000 C 
ATOM     13  C   UNL     1       1.561   6.699  19.878  0.00  0.00    +0.000 C 
ATOM     14  C   UNL     1       1.760   8.142  20.412  0.00  0.00    +0.000 C 
ATOM     15  N   UNL     1      -0.059  10.267  20.849  0.00  0.00    +0.000 NA
ATOM     16  C   UNL     1      -0.920  11.290  21.055  0.00  0.00    +0.000 A 
ATOM     17  N   UNL     1      -1.645  11.638  22.098  0.00  0.00    +0.000 NA
ATOM     18  C   UNL     1      -2.355  12.735  21.648  0.00  0.00    +0.000 A 
ATOM     19  N   UNL     1      -2.082  13.107  20.386  0.00  0.00    +0.000 NA
ATOM     20  N   UNL     1      -1.178  12.170  20.054  0.00  0.00    +0.000 N 
ATOM     21  H   UNL     1      -0.118  13.087  17.104  0.00  0.00    +0.000 HD
ATOM     22  H   UNL     1      -1.291  13.845  18.129  0.00  0.00    +0.000 HD
ENDROOT
BRANCH  18  23
ATOM     23  C   UNL     1      -3.351  13.450  22.499  0.00  0.00    +0.000 A 
ATOM     24  C   UNL     1      -4.663  13.065  22.702  0.00  0.00    +0.000 A 
ATOM     25  C   UNL     1      -5.243  14.022  23.570  0.00  0.00    +0.000 A 
ATOM     26  C   UNL     1      -4.257  14.944  23.832  0.00  0.00    +0.000 A 
ATOM     27  O   UNL     1      -3.106  14.601  23.200  0.00  0.00    +0.000 OA
ENDBRANCH  18  23
BRANCH  10  28
ATOM     28  C   UNL     1       4.042   3.887  19.372  0.00  0.00    +0.000 C 
BRANCH  28  29
ATOM     29  N   UNL     1       4.751   5.068  18.894  0.00  0.00    +0.000 N 
ATOM     30  C   UNL     1       5.499   4.836  17.743  0.00  0.00    +0.000 A 
ATOM     31  N   UNL     1       5.054   3.997  16.798  0.00  0.00    +0.000 NA
ATOM     32  C   UNL     1       5.841   3.817  15.718  0.00  0.00    +0.000 A 
ATOM     33  C   UNL     1       7.052   4.442  15.555  0.00  0.00    +0.000 A 
ATOM     34  C   UNL     1       7.420   5.276  16.581  0.00  0.00    +0.000 A 
ATOM     35  N   UNL     1       6.670   5.485  17.679  0.00  0.00    +0.000 NA
ATOM     36  H   UNL     1       5.430   5.451  19.547  0.00  0.00    +0.000 HD
ENDBRANCH  28  29
ENDBRANCH  10  28
TORSDOF 3
ENDMDL
MODEL 6
REMARK VINA RESULT:      -8.0      2.809      4.580
REMARK  Name = 
REMARK  3 active torsions:
REMARK  status: ('A' for Active; 'I' for Inactive)
REMARK    1  A    between atoms: C_10  and  C_11
REMARK    2  A    between atoms: C_11  and  N_12
REMARK    3  A    between atoms: C_26  and  C_27
REMARK                            x       y       z     vdW  Elec       q    Type
REMARK                         _______ _______ _______ _____ _____    ______ ____
ROOT
ATOM      1  N   UNL     1      -0.110  10.877  22.331  0.00  0.00    +0.000 N 
ATOM      2  C   UNL     1       0.475  10.698  21.104  0.00  0.00    +0.000 A 
ATOM      3  N   UNL     1       0.841   9.532  20.671  0.00  0.00    +0.000 NA
ATOM      4  C   UNL     1       1.473   9.419  19.438  0.00  0.00    +0.000 A 
ATOM      5  N   UNL     1       1.941   8.173  19.087  0.00  0.00    +0.000 N 
ATOM      6  C   UNL     1       1.800   6.991  19.943  0.00  0.00    +0.000 C 
ATOM      7  C   UNL     1       3.118   6.187  19.997  0.00  0.00    +0.000 C 
ATOM      8  N   UNL     1       3.666   5.858  18.658  0.00  0.00    +0.000 NA
ATOM      9  C   UNL     1       4.939   5.132  18.800  0.00  0.00    +0.000 C 
ATOM     10  C   UNL     1       5.618   4.808  17.455  0.00  0.00    +0.000 C 
ATOM     11  C   UNL     1       5.754   6.094  16.624  0.00  0.00    +0.000 C 
ATOM     12  C   UNL     1       4.425   6.837  16.505  0.00  0.00    +0.000 C 
ATOM     13  C   UNL     1       3.836   7.122  17.892  0.00  0.00    +0.000 C 
ATOM     14  C   UNL     1       2.487   7.877  17.756  0.00  0.00    +0.000 C 
ATOM     15  N   UNL     1       1.652  10.437  18.632  0.00  0.00    +0.000 NA
ATOM     16  C   UNL     1       1.242  11.656  19.052  0.00  0.00    +0.000 A 
ATOM     17  N   UNL     1       1.286  12.845  18.487  0.00  0.00    +0.000 NA
ATOM     18  C   UNL     1       0.766  13.683  19.456  0.00  0.00    +0.000 A 
ATOM     19  N   UNL     1       0.369  13.068  20.583  0.00  0.00    +0.000 NA
ATOM     20  N   UNL     1       0.689  11.797  20.283  0.00  0.00    +0.000 N 
ATOM     21  H   UNL     1      -0.503  10.059  22.778  0.00  0.00    +0.000 HD
ATOM     22  H   UNL     1      -0.564  11.770  22.509  0.00  0.00    +0.000 HD
ENDROOT
BRANCH  18  23
ATOM     23  C   UNL     1       0.656  15.159  19.265  0.00  0.00    +0.000 A 
ATOM     24  C   UNL     1      -0.387  15.816  18.638  0.00  0.00    +0.000 A 
ATOM     25  C   UNL     1      -0.084  17.199  18.678  0.00  0.00    +0.000 A 
ATOM     26  C   UNL     1       1.131  17.304  19.311  0.00  0.00    +0.000 A 
ATOM     27  O   UNL     1       1.581  16.078  19.681  0.00  0.00    +0.000 OA
ENDBRANCH  18  23
BRANCH  10  28
ATOM     28  C   UNL     1       4.898   3.712  16.644  0.00  0.00    +0.000 C 
BRANCH  28  29
ATOM     29  N   UNL     1       4.538   2.584  17.495  0.00  0.00    +0.000 N 
ATOM     30  C   UNL     1       3.273   2.701  18.064  0.00  0.00    +0.000 A 
ATOM     31  N   UNL     1       2.268   3.263  17.380  0.00  0.00    +0.000 NA
ATOM     32  C   UNL     1       1.075   3.349  18.004  0.00  0.00    +0.000 A 
ATOM     33  C   UNL     1       0.858   2.899  19.282  0.00  0.00    +0.000 A 
ATOM     34  C   UNL     1       1.952   2.346  19.898  0.00  0.00    +0.000 A 
ATOM     35  N   UNL     1       3.163   2.241  19.318  0.00  0.00    +0.000 NA
ATOM     36  H   UNL     1       5.149   2.444  18.297  0.00  0.00    +0.000 HD
ENDBRANCH  28  29
ENDBRANCH  10  28
TORSDOF 3
ENDMDL
MODEL 7
REMARK VINA RESULT:      -7.4      2.834      4.237
REMARK  Name = 
REMARK  3 active torsions:
REMARK  status: ('A' for Active; 'I' for Inactive)
REMARK    1  A    between atoms: C_10  and  C_11
REMARK    2  A    between atoms: C_11  and  N_12
REMARK    3  A    between atoms: C_26  and  C_27
REMARK                            x       y       z     vdW  Elec       q    Type
REMARK                         _______ _______ _______ _____ _____    ______ ____
ROOT
ATOM      1  N   UNL     1      -0.622   8.503  22.235  0.00  0.00    +0.000 N 
ATOM      2  C   UNL     1       0.194   8.801  21.174  0.00  0.00    +0.000 A 
ATOM      3  N   UNL     1       0.916   7.903  20.579  0.00  0.00    +0.000 NA
ATOM      4  C   UNL     1       1.760   8.274  19.539  0.00  0.00    +0.000 A 
ATOM      5  N   UNL     1       2.585   7.298  19.026  0.00  0.00    +0.000 N 
ATOM      6  C   UNL     1       2.605   5.919  19.523  0.00  0.00    +0.000 C 
ATOM      7  C   UNL     1       4.055   5.415  19.697  0.00  0.00    +0.000 C 
ATOM      8  N   UNL     1       4.894   5.595  18.486  0.00  0.00    +0.000 NA
ATOM      9  C   UNL     1       6.265   5.130  18.750  0.00  0.00    +0.000 C 
ATOM     10  C   UNL     1       7.228   5.343  17.566  0.00  0.00    +0.000 C 
ATOM     11  C   UNL     1       7.173   6.813  17.115  0.00  0.00    +0.000 C 
ATOM     12  C   UNL     1       5.739   7.276  16.864  0.00  0.00    +0.000 C 
ATOM     13  C   UNL     1       4.864   7.032  18.100  0.00  0.00    +0.000 C 
ATOM     14  C   UNL     1       3.413   7.507  17.831  0.00  0.00    +0.000 C 
ATOM     15  N   UNL     1       1.810   9.492  19.060  0.00  0.00    +0.000 NA
ATOM     16  C   UNL     1       1.035  10.434  19.644  0.00  0.00    +0.000 A 
ATOM     17  N   UNL     1       0.870  11.718  19.401  0.00  0.00    +0.000 NA
ATOM     18  C   UNL     1      -0.008  12.125  20.388  0.00  0.00    +0.000 A 
ATOM     19  N   UNL     1      -0.424  11.149  21.214  0.00  0.00    +0.000 NA
ATOM     20  N   UNL     1       0.259  10.107  20.709  0.00  0.00    +0.000 N 
ATOM     21  H   UNL     1      -0.865   7.531  22.373  0.00  0.00    +0.000 HD
ATOM     22  H   UNL     1      -1.313   9.199  22.506  0.00  0.00    +0.000 HD
ENDROOT
BRANCH  18  23
ATOM     23  C   UNL     1      -0.458  13.541  20.528  0.00  0.00    +0.000 A 
ATOM     24  C   UNL     1       0.309  14.588  21.005  0.00  0.00    +0.000 A 
ATOM     25  C   UNL     1      -0.506  15.745  20.969  0.00  0.00    +0.000 A 
ATOM     26  C   UNL     1      -1.727  15.334  20.487  0.00  0.00    +0.000 A 
ATOM     27  O   UNL     1      -1.705  14.007  20.206  0.00  0.00    +0.000 OA
ENDBRANCH  18  23
BRANCH  10  28
ATOM     28  C   UNL     1       6.965   4.401  16.374  0.00  0.00    +0.000 C 
BRANCH  28  29
ATOM     29  N   UNL     1       7.353   5.030  15.117  0.00  0.00    +0.000 N 
ATOM     30  C   UNL     1       6.733   4.470  14.003  0.00  0.00    +0.000 A 
ATOM     31  N   UNL     1       5.469   4.032  14.075  0.00  0.00    +0.000 NA
ATOM     32  C   UNL     1       4.943   3.493  12.956  0.00  0.00    +0.000 A 
ATOM     33  C   UNL     1       5.637   3.372  11.778  0.00  0.00    +0.000 A 
ATOM     34  C   UNL     1       6.925   3.844  11.811  0.00  0.00    +0.000 A 
ATOM     35  N   UNL     1       7.495   4.388  12.904  0.00  0.00    +0.000 NA
ATOM     36  H   UNL     1       8.344   4.966  14.896  0.00  0.00    +0.000 HD
ENDBRANCH  28  29
ENDBRANCH  10  28
TORSDOF 3
ENDMDL
MODEL 8
REMARK VINA RESULT:      -7.4      3.099      4.791
REMARK  Name = 
REMARK  3 active torsions:
REMARK  status: ('A' for Active; 'I' for Inactive)
REMARK    1  A    between atoms: C_10  and  C_11
REMARK    2  A    between atoms: C_11  and  N_12
REMARK    3  A    between atoms: C_26  and  C_27
REMARK                            x       y       z     vdW  Elec       q    Type
REMARK                         _______ _______ _______ _____ _____    ______ ____
ROOT
ATOM      1  N   UNL     1      -1.048  12.667  22.768  0.00  0.00    +0.000 N 
ATOM      2  C   UNL     1      -0.581  12.319  21.527  0.00  0.00    +0.000 A 
ATOM      3  N   UNL     1      -0.282  11.096  21.214  0.00  0.00    +0.000 NA
ATOM      4  C   UNL     1       0.232  10.811  19.956  0.00  0.00    +0.000 A 
ATOM      5  N   UNL     1       0.638   9.515  19.725  0.00  0.00    +0.000 N 
ATOM      6  C   UNL     1       0.550   8.454  20.732  0.00  0.00    +0.000 C 
ATOM      7  C   UNL     1       1.849   7.619  20.772  0.00  0.00    +0.000 C 
ATOM      8  N   UNL     1       2.266   7.109  19.442  0.00  0.00    +0.000 NA
ATOM      9  C   UNL     1       3.530   6.364  19.563  0.00  0.00    +0.000 C 
ATOM     10  C   UNL     1       4.076   5.854  18.215  0.00  0.00    +0.000 C 
ATOM     11  C   UNL     1       4.165   7.022  17.219  0.00  0.00    +0.000 C 
ATOM     12  C   UNL     1       2.847   7.789  17.125  0.00  0.00    +0.000 C 
ATOM     13  C   UNL     1       2.393   8.263  18.511  0.00  0.00    +0.000 C 
ATOM     14  C   UNL     1       1.055   9.039  18.399  0.00  0.00    +0.000 C 
ATOM     15  N   UNL     1       0.360  11.714  19.015  0.00  0.00    +0.000 NA
ATOM     16  C   UNL     1       0.017  12.989  19.312  0.00  0.00    +0.000 A 
ATOM     17  N   UNL     1       0.035  14.097  18.600  0.00  0.00    +0.000 NA
ATOM     18  C   UNL     1      -0.376  15.065  19.497  0.00  0.00    +0.000 A 
ATOM     19  N   UNL     1      -0.682  14.607  20.723  0.00  0.00    +0.000 NA
ATOM     20  N   UNL     1      -0.418  13.300  20.559  0.00  0.00    +0.000 N 
ATOM     21  H   UNL     1      -1.417  11.924  23.348  0.00  0.00    +0.000 HD
ATOM     22  H   UNL     1      -1.464  13.590  22.872  0.00  0.00    +0.000 HD
ENDROOT
BRANCH  18  23
ATOM     23  C   UNL     1      -0.470  16.509  19.132  0.00  0.00    +0.000 A 
ATOM     24  C   UNL     1      -1.506  17.361  19.468  0.00  0.00    +0.000 A 
ATOM     25  C   UNL     1      -1.190  18.628  18.921  0.00  0.00    +0.000 A 
ATOM     26  C   UNL     1       0.010  18.472  18.269  0.00  0.00    +0.000 A 
ATOM     27  O   UNL     1       0.461  17.199  18.402  0.00  0.00    +0.000 OA
ENDBRANCH  18  23
BRANCH  10  28
ATOM     28  C   UNL     1       3.261   4.691  17.614  0.00  0.00    +0.000 C 
BRANCH  28  29
ATOM     29  N   UNL     1       3.625   3.423  18.237  0.00  0.00    +0.000 N 
ATOM     30  C   UNL     1       2.907   3.150  19.398  0.00  0.00    +0.000 A 
ATOM     31  N   UNL     1       1.620   3.506  19.502  0.00  0.00    +0.000 NA
ATOM     32  C   UNL     1       0.996   3.216  20.662  0.00  0.00    +0.000 A 
ATOM     33  C   UNL     1       1.614   2.590  21.715  0.00  0.00    +0.000 A 
ATOM     34  C   UNL     1       2.933   2.273  21.510  0.00  0.00    +0.000 A 
ATOM     35  N   UNL     1       3.600   2.544  20.372  0.00  0.00    +0.000 NA
ATOM     36  H   UNL     1       4.596   3.358  18.536  0.00  0.00    +0.000 HD
ENDBRANCH  28  29
ENDBRANCH  10  28
TORSDOF 3
ENDMDL
MODEL 9
REMARK VINA RESULT:      -7.4      1.624      2.331
REMARK  Name = 
REMARK  3 active torsions:
REMARK  status: ('A' for Active; 'I' for Inactive)
REMARK    1  A    between atoms: C_10  and  C_11
REMARK    2  A    between atoms: C_11  and  N_12
REMARK    3  A    between atoms: C_26  and  C_27
REMARK                            x       y       z     vdW  Elec       q    Type
REMARK                         _______ _______ _______ _____ _____    ______ ____
ROOT
ATOM      1  N   UNL     1      -1.241  14.391  19.121  0.00  0.00    +0.000 N 
ATOM      2  C   UNL     1      -1.106  13.253  19.874  0.00  0.00    +0.000 A 
ATOM      3  N   UNL     1      -0.141  12.406  19.688  0.00  0.00    +0.000 NA
ATOM      4  C   UNL     1      -0.084  11.246  20.451  0.00  0.00    +0.000 A 
ATOM      5  N   UNL     1       0.895  10.333  20.127  0.00  0.00    +0.000 N 
ATOM      6  C   UNL     1       1.854  10.535  19.037  0.00  0.00    +0.000 C 
ATOM      7  C   UNL     1       2.011   9.250  18.194  0.00  0.00    +0.000 C 
ATOM      8  N   UNL     1       2.316   8.045  19.003  0.00  0.00    +0.000 NA
ATOM      9  C   UNL     1       2.407   6.863  18.131  0.00  0.00    +0.000 C 
ATOM     10  C   UNL     1       2.654   5.548  18.896  0.00  0.00    +0.000 C 
ATOM     11  C   UNL     1       1.599   5.392  20.004  0.00  0.00    +0.000 C 
ATOM     12  C   UNL     1       1.512   6.636  20.885  0.00  0.00    +0.000 C 
ATOM     13  C   UNL     1       1.255   7.887  20.035  0.00  0.00    +0.000 C 
ATOM     14  C   UNL     1       1.169   9.142  20.942  0.00  0.00    +0.000 C 
ATOM     15  N   UNL     1      -0.921  10.990  21.425  0.00  0.00    +0.000 NA
ATOM     16  C   UNL     1      -1.912  11.882  21.658  0.00  0.00    +0.000 A 
ATOM     17  N   UNL     1      -2.889  11.905  22.541  0.00  0.00    +0.000 NA
ATOM     18  C   UNL     1      -3.592  13.050  22.215  0.00  0.00    +0.000 A 
ATOM     19  N   UNL     1      -3.080  13.757  21.194  0.00  0.00    +0.000 NA
ATOM     20  N   UNL     1      -2.028  12.984  20.876  0.00  0.00    +0.000 N 
ATOM     21  H   UNL     1      -0.428  14.702  18.605  0.00  0.00    +0.000 HD
ATOM     22  H   UNL     1      -1.880  15.106  19.461  0.00  0.00    +0.000 HD
ENDROOT
BRANCH  18  23
ATOM     23  C   UNL     1      -4.828  13.466  22.942  0.00  0.00    +0.000 A 
ATOM     24  C   UNL     1      -5.303  14.761  23.051  0.00  0.00    +0.000 A 
ATOM     25  C   UNL     1      -6.490  14.699  23.820  0.00  0.00    +0.000 A 
ATOM     26  C   UNL     1      -6.662  13.375  24.149  0.00  0.00    +0.000 A 
ATOM     27  O   UNL     1      -5.670  12.620  23.613  0.00  0.00    +0.000 OA
ENDBRANCH  18  23
BRANCH  10  28
ATOM     28  C   UNL     1       4.076   5.426  19.480  0.00  0.00    +0.000 C 
BRANCH  28  29
ATOM     29  N   UNL     1       4.781   4.288  18.903  0.00  0.00    +0.000 N 
ATOM     30  C   UNL     1       5.503   4.608  17.756  0.00  0.00    +0.000 A 
ATOM     31  N   UNL     1       6.114   5.795  17.645  0.00  0.00    +0.000 NA
ATOM     32  C   UNL     1       6.785   6.034  16.500  0.00  0.00    +0.000 A 
ATOM     33  C   UNL     1       6.859   5.133  15.467  0.00  0.00    +0.000 A 
ATOM     34  C   UNL     1       6.194   3.951  15.677  0.00  0.00    +0.000 A 
ATOM     35  N   UNL     1       5.509   3.668  16.801  0.00  0.00    +0.000 NA
ATOM     36  H   UNL     1       4.181   3.523  18.602  0.00  0.00    +0.000 HD
ENDBRANCH  28  29
ENDBRANCH  10  28
TORSDOF 3
ENDMDL
