MODEL 1
REMARK VINA RESULT:      -7.4      0.000      0.000
REMARK  Name = 
REMARK  11 active torsions:
REMARK  status: ('A' for Active; 'I' for Inactive)
REMARK    1  A    between atoms: C_1  and  O_2
REMARK    2  A    between atoms: O_2  and  C_3
REMARK    3  A    between atoms: N_7  and  C_8
REMARK    4  A    between atoms: C_8  and  C_9
REMARK    5  A    between atoms: N_11  and  C_12
REMARK    6  A    between atoms: N_11  and  C_13
REMARK    7  A    between atoms: C_13  and  C_14
REMARK    8  A    between atoms: C_14  and  O_15
REMARK    9  A    between atoms: O_15  and  C_16
REMARK   10  A    between atoms: C_18  and  C_19
REMARK   11  A    between atoms: C_21  and  C_22
REMARK                            x       y       z     vdW  Elec       q    Type
REMARK                         _______ _______ _______ _____ _____    ______ ____
ROOT
ATOM      1  C   UNL     1       6.297   5.872  16.778  0.00  0.00    +0.000 C 
ATOM      2  O   UNL     1       6.165   6.223  15.599  0.00  0.00    +0.000 OA
ATOM      3  N   UNL     1       7.202   6.513  17.620  0.00  0.00    +0.000 N 
ATOM      4  C   UNL     1       7.651   5.957  18.896  0.00  0.00    +0.000 C 
ENDROOT
BRANCH   1   5
ATOM      5  C   UNL     1       5.455   4.706  17.318  0.00  0.00    +0.000 C 
BRANCH   5  10
ATOM      6  C   UNL     1       2.935   4.699  20.211  0.00  0.00    +0.000 A 
ATOM      7  C   UNL     1       2.294   5.837  19.904  0.00  0.00    +0.000 A 
ATOM      8  C   UNL     1       2.729   6.695  18.837  0.00  0.00    +0.000 A 
ATOM      9  C   UNL     1       3.716   6.300  18.026  0.00  0.00    +0.000 A 
ATOM     10  N   UNL     1       4.391   5.110  18.247  0.00  0.00    +0.000 N 
ATOM     11  C   UNL     1       4.161   4.333  19.391  0.00  0.00    +0.000 A 
ATOM     12  O   UNL     1       4.889   3.391  19.701  0.00  0.00    +0.000 OA
BRANCH   6  14
ATOM     13  C   UNL     1       1.451   2.907  20.768  0.00  0.00    +0.000 C 
ATOM     14  O   UNL     1       2.389   3.885  21.192  0.00  0.00    +0.000 OA
ENDBRANCH   6  14
ENDBRANCH   5  10
ENDBRANCH   1   5
BRANCH   3  15
ATOM     15  C   UNL     1       7.896   7.719  17.117  0.00  0.00    +0.000 C 
BRANCH  15  16
ATOM     16  C   UNL     1       7.803   8.931  18.053  0.00  0.00    +0.000 C 
BRANCH  16  17
ATOM     17  O   UNL     1       8.983   9.083  18.850  0.00  0.00    +0.000 OA
BRANCH  17  18
ATOM     18  C   UNL     1       9.393  10.387  19.008  0.00  0.00    +0.000 A 
ATOM     19  C   UNL     1       9.287  10.921  20.295  0.00  0.00    +0.000 A 
ATOM     20  C   UNL     1       9.667  12.245  20.557  0.00  0.00    +0.000 A 
ATOM     21  C   UNL     1       9.537  12.838  21.928  0.00  0.00    +0.000 C 
ATOM     22  C   UNL     1      10.184  13.028  19.513  0.00  0.00    +0.000 A 
ATOM     23  C   UNL     1      10.319  12.502  18.230  0.00  0.00    +0.000 A 
ATOM     24  C   UNL     1      10.885  13.317  17.103  0.00  0.00    +0.000 C 
ATOM     25  C   UNL     1       9.928  11.174  17.985  0.00  0.00    +0.000 A 
ENDBRANCH  17  18
ENDBRANCH  16  17
ENDBRANCH  15  16
ENDBRANCH   3  15
TORSDOF 7
ENDMDL
MODEL 2
REMARK VINA RESULT:      -7.1      4.967      7.075
REMARK  Name = 
REMARK  11 active torsions:
REMARK  status: ('A' for Active; 'I' for Inactive)
REMARK    1  A    between atoms: C_1  and  O_2
REMARK    2  A    between atoms: O_2  and  C_3
REMARK    3  A    between atoms: N_7  and  C_8
REMARK    4  A    between atoms: C_8  and  C_9
REMARK    5  A    between atoms: N_11  and  C_12
REMARK    6  A    between atoms: N_11  and  C_13
REMARK    7  A    between atoms: C_13  and  C_14
REMARK    8  A    between atoms: C_14  and  O_15
REMARK    9  A    between atoms: O_15  and  C_16
REMARK   10  A    between atoms: C_18  and  C_19
REMARK   11  A    between atoms: C_21  and  C_22
REMARK                            x       y       z     vdW  Elec       q    Type
REMARK                         _______ _______ _______ _____ _____    ______ ____
ROOT
ATOM      1  C   UNL     1       1.759   4.174  20.053  0.00  0.00    +0.000 C 
ATOM      2  O   UNL     1       0.624   3.915  19.636  0.00  0.00    +0.000 OA
ATOM      3  N   UNL     1       2.813   3.283  19.866  0.00  0.00    +0.000 N 
ATOM      4  C   UNL     1       4.074   3.357  20.603  0.00  0.00    +0.000 C 
ENDROOT
BRANCH   1   5
ATOM      5  C   UNL     1       2.009   5.497  20.793  0.00  0.00    +0.000 C 
BRANCH   5  10
ATOM      6  C   UNL     1       1.507   9.030  19.384  0.00  0.00    +0.000 A 
ATOM      7  C   UNL     1       2.097   8.842  18.193  0.00  0.00    +0.000 A 
ATOM      8  C   UNL     1       2.775   7.620  17.861  0.00  0.00    +0.000 A 
ATOM      9  C   UNL     1       2.711   6.576  18.693  0.00  0.00    +0.000 A 
ATOM     10  N   UNL     1       2.071   6.676  19.919  0.00  0.00    +0.000 N 
ATOM     11  C   UNL     1       1.578   7.899  20.396  0.00  0.00    +0.000 A 
ATOM     12  O   UNL     1       1.196   8.043  21.556  0.00  0.00    +0.000 OA
BRANCH   6  14
ATOM     13  C   UNL     1      -0.558  10.216  19.143  0.00  0.00    +0.000 C 
ATOM     14  O   UNL     1       0.793  10.202  19.582  0.00  0.00    +0.000 OA
ENDBRANCH   6  14
ENDBRANCH   5  10
ENDBRANCH   1   5
BRANCH   3  15
ATOM     15  C   UNL     1       2.580   2.084  19.031  0.00  0.00    +0.000 C 
BRANCH  15  16
ATOM     16  C   UNL     1       3.260   2.137  17.657  0.00  0.00    +0.000 C 
BRANCH  16  17
ATOM     17  O   UNL     1       3.298   3.468  17.130  0.00  0.00    +0.000 OA
BRANCH  17  18
ATOM     18  C   UNL     1       4.539   3.863  16.684  0.00  0.00    +0.000 A 
ATOM     19  C   UNL     1       5.435   4.313  17.658  0.00  0.00    +0.000 A 
ATOM     20  C   UNL     1       6.720   4.749  17.303  0.00  0.00    +0.000 A 
ATOM     21  C   UNL     1       7.684   5.256  18.333  0.00  0.00    +0.000 C 
ATOM     22  C   UNL     1       7.111   4.705  15.956  0.00  0.00    +0.000 A 
ATOM     23  C   UNL     1       6.237   4.234  14.978  0.00  0.00    +0.000 A 
ATOM     24  C   UNL     1       6.641   4.163  13.533  0.00  0.00    +0.000 C 
ATOM     25  C   UNL     1       4.951   3.806  15.350  0.00  0.00    +0.000 A 
ENDBRANCH  17  18
ENDBRANCH  16  17
ENDBRANCH  15  16
ENDBRANCH   3  15
TORSDOF 7
ENDMDL
MODEL 3
REMARK VINA RESULT:      -7.1      5.675      9.176
REMARK  Name = 
REMARK  11 active torsions:
REMARK  status: ('A' for Active; 'I' for Inactive)
REMARK    1  A    between atoms: C_1  and  O_2
REMARK    2  A    between atoms: O_2  and  C_3
REMARK    3  A    between atoms: N_7  and  C_8
REMARK    4  A    between atoms: C_8  and  C_9
REMARK    5  A    between atoms: N_11  and  C_12
REMARK    6  A    between atoms: N_11  and  C_13
REMARK    7  A    between atoms: C_13  and  C_14
REMARK    8  A    between atoms: C_14  and  O_15
REMARK    9  A    between atoms: O_15  and  C_16
REMARK   10  A    between atoms: C_18  and  C_19
REMARK   11  A    between atoms: C_21  and  C_22
REMARK                            x       y       z     vdW  Elec       q    Type
REMARK                         _______ _______ _______ _____ _____    ______ ____
ROOT
ATOM      1  C   UNL     1       2.179   7.670  19.317  0.00  0.00    +0.000 C 
ATOM      2  O   UNL     1       2.616   7.951  18.194  0.00  0.00    +0.000 OA
ATOM      3  N   UNL     1       1.476   8.608  20.068  0.00  0.00    +0.000 N 
ATOM      4  C   UNL     1       1.225   8.469  21.502  0.00  0.00    +0.000 C 
ENDROOT
BRANCH   1   5
ATOM      5  C   UNL     1       2.422   6.266  19.892  0.00  0.00    +0.000 C 
BRANCH   5  10
ATOM      6  C   UNL     1       4.671   4.179  17.589  0.00  0.00    +0.000 A 
ATOM      7  C   UNL     1       3.706   3.502  16.948  0.00  0.00    +0.000 A 
ATOM      8  C   UNL     1       2.322   3.608  17.320  0.00  0.00    +0.000 A 
ATOM      9  C   UNL     1       1.947   4.504  18.238  0.00  0.00    +0.000 A 
ATOM     10  N   UNL     1       2.882   5.280  18.906  0.00  0.00    +0.000 N 
ATOM     11  C   UNL     1       4.260   5.075  18.745  0.00  0.00    +0.000 A 
ATOM     12  O   UNL     1       5.091   5.610  19.477  0.00  0.00    +0.000 OA
BRANCH   6  14
ATOM     13  C   UNL     1       6.115   3.913  15.699  0.00  0.00    +0.000 C 
ATOM     14  O   UNL     1       5.966   4.091  17.100  0.00  0.00    +0.000 OA
ENDBRANCH   6  14
ENDBRANCH   5  10
ENDBRANCH   1   5
BRANCH   3  15
ATOM     15  C   UNL     1       1.134   9.901  19.437  0.00  0.00    +0.000 C 
BRANCH  15  16
ATOM     16  C   UNL     1      -0.358  10.073  19.129  0.00  0.00    +0.000 C 
BRANCH  16  17
ATOM     17  O   UNL     1      -0.639   9.907  17.735  0.00  0.00    +0.000 OA
BRANCH  17  18
ATOM     18  C   UNL     1      -1.897  10.322  17.360  0.00  0.00    +0.000 A 
ATOM     19  C   UNL     1      -2.289  10.015  16.054  0.00  0.00    +0.000 A 
ATOM     20  C   UNL     1      -3.547  10.405  15.572  0.00  0.00    +0.000 A 
ATOM     21  C   UNL     1      -3.973  10.103  14.167  0.00  0.00    +0.000 C 
ATOM     22  C   UNL     1      -4.427  11.088  16.427  0.00  0.00    +0.000 A 
ATOM     23  C   UNL     1      -4.059  11.378  17.740  0.00  0.00    +0.000 A 
ATOM     24  C   UNL     1      -4.991  12.093  18.676  0.00  0.00    +0.000 C 
ATOM     25  C   UNL     1      -2.792  10.985  18.204  0.00  0.00    +0.000 A 
ENDBRANCH  17  18
ENDBRANCH  16  17
ENDBRANCH  15  16
ENDBRANCH   3  15
TORSDOF 7
ENDMDL
MODEL 4
REMARK VINA RESULT:      -7.0      4.884      7.228
REMARK  Name = 
REMARK  11 active torsions:
REMARK  status: ('A' for Active; 'I' for Inactive)
REMARK    1  A    between atoms: C_1  and  O_2
REMARK    2  A    between atoms: O_2  and  C_3
REMARK    3  A    between atoms: N_7  and  C_8
REMARK    4  A    between atoms: C_8  and  C_9
REMARK    5  A    between atoms: N_11  and  C_12
REMARK    6  A    between atoms: N_11  and  C_13
REMARK    7  A    between atoms: C_13  and  C_14
REMARK    8  A    between atoms: C_14  and  O_15
REMARK    9  A    between atoms: O_15  and  C_16
REMARK   10  A    between atoms: C_18  and  C_19
REMARK   11  A    between atoms: C_21  and  C_22
REMARK                            x       y       z     vdW  Elec       q    Type
REMARK                         _______ _______ _______ _____ _____    ______ ____
ROOT
ATOM      1  C   UNL     1       1.953   4.808  19.654  0.00  0.00    +0.000 C 
ATOM      2  O   UNL     1       1.587   4.909  18.477  0.00  0.00    +0.000 OA
ATOM      3  N   UNL     1       2.238   3.564  20.213  0.00  0.00    +0.000 N 
ATOM      4  C   UNL     1       2.348   3.332  21.652  0.00  0.00    +0.000 C 
ENDROOT
BRANCH   1   5
ATOM      5  C   UNL     1       2.089   6.074  20.515  0.00  0.00    +0.000 C 
BRANCH   5  10
ATOM      6  C   UNL     1       1.018   9.612  19.489  0.00  0.00    +0.000 A 
ATOM      7  C   UNL     1       1.590   9.637  18.276  0.00  0.00    +0.000 A 
ATOM      8  C   UNL     1       2.432   8.572  17.806  0.00  0.00    +0.000 A 
ATOM      9  C   UNL     1       2.552   7.452  18.527  0.00  0.00    +0.000 A 
ATOM     10  N   UNL     1       1.946   7.330  19.767  0.00  0.00    +0.000 N 
ATOM     11  C   UNL     1       1.291   8.410  20.377  0.00  0.00    +0.000 A 
ATOM     12  O   UNL     1       0.930   8.377  21.553  0.00  0.00    +0.000 OA
BRANCH   6  14
ATOM     13  C   UNL     1      -0.016  11.680  18.871  0.00  0.00    +0.000 C 
ATOM     14  O   UNL     1       0.144  10.637  19.821  0.00  0.00    +0.000 OA
ENDBRANCH   6  14
ENDBRANCH   5  10
ENDBRANCH   1   5
BRANCH   3  15
ATOM     15  C   UNL     1       2.235   2.379  19.328  0.00  0.00    +0.000 C 
BRANCH  15  16
ATOM     16  C   UNL     1       3.579   2.111  18.637  0.00  0.00    +0.000 C 
BRANCH  16  17
ATOM     17  O   UNL     1       3.686   2.803  17.389  0.00  0.00    +0.000 OA
BRANCH  17  18
ATOM     18  C   UNL     1       4.806   3.595  17.277  0.00  0.00    +0.000 A 
ATOM     19  C   UNL     1       5.289   3.812  15.984  0.00  0.00    +0.000 A 
ATOM     20  C   UNL     1       6.432   4.594  15.765  0.00  0.00    +0.000 A 
ATOM     21  C   UNL     1       6.974   4.817  14.386  0.00  0.00    +0.000 C 
ATOM     22  C   UNL     1       7.077   5.184  16.863  0.00  0.00    +0.000 A 
ATOM     23  C   UNL     1       6.593   4.998  18.157  0.00  0.00    +0.000 A 
ATOM     24  C   UNL     1       7.259   5.634  19.343  0.00  0.00    +0.000 C 
ATOM     25  C   UNL     1       5.449   4.206  18.357  0.00  0.00    +0.000 A 
ENDBRANCH  17  18
ENDBRANCH  16  17
ENDBRANCH  15  16
ENDBRANCH   3  15
TORSDOF 7
ENDMDL
MODEL 5
REMARK VINA RESULT:      -7.0      4.501      7.192
REMARK  Name = 
REMARK  11 active torsions:
REMARK  status: ('A' for Active; 'I' for Inactive)
REMARK    1  A    between atoms: C_1  and  O_2
REMARK    2  A    between atoms: O_2  and  C_3
REMARK    3  A    between atoms: N_7  and  C_8
REMARK    4  A    between atoms: C_8  and  C_9
REMARK    5  A    between atoms: N_11  and  C_12
REMARK    6  A    between atoms: N_11  and  C_13
REMARK    7  A    between atoms: C_13  and  C_14
REMARK    8  A    between atoms: C_14  and  O_15
REMARK    9  A    between atoms: O_15  and  C_16
REMARK   10  A    between atoms: C_18  and  C_19
REMARK   11  A    between atoms: C_21  and  C_22
REMARK                            x       y       z     vdW  Elec       q    Type
REMARK                         _______ _______ _______ _____ _____    ______ ____
ROOT
ATOM      1  C   UNL     1       2.155   5.578  18.856  0.00  0.00    +0.000 C 
ATOM      2  O   UNL     1       2.108   5.769  17.635  0.00  0.00    +0.000 OA
ATOM      3  N   UNL     1       1.833   4.337  19.401  0.00  0.00    +0.000 N 
ATOM      4  C   UNL     1       1.544   4.129  20.819  0.00  0.00    +0.000 C 
ENDROOT
BRANCH   1   5
ATOM      5  C   UNL     1       2.569   6.729  19.786  0.00  0.00    +0.000 C 
BRANCH   5  10
ATOM      6  C   UNL     1       0.444   9.915  20.016  0.00  0.00    +0.000 A 
ATOM      7  C   UNL     1       0.677  10.386  18.782  0.00  0.00    +0.000 A 
ATOM      8  C   UNL     1       1.613   9.760  17.890  0.00  0.00    +0.000 A 
ATOM      9  C   UNL     1       2.178   8.596  18.228  0.00  0.00    +0.000 A 
ATOM     10  N   UNL     1       1.943   8.018  19.466  0.00  0.00    +0.000 N 
ATOM     11  C   UNL     1       1.212   8.682  20.462  0.00  0.00    +0.000 A 
ATOM     12  O   UNL     1       1.170   8.277  21.623  0.00  0.00    +0.000 OA
BRANCH   6  14
ATOM     13  C   UNL     1      -0.146  11.592  21.619  0.00  0.00    +0.000 C 
ATOM     14  O   UNL     1      -0.547  10.524  20.772  0.00  0.00    +0.000 OA
ENDBRANCH   6  14
ENDBRANCH   5  10
ENDBRANCH   1   5
BRANCH   3  15
ATOM     15  C   UNL     1       1.575   3.210  18.478  0.00  0.00    +0.000 C 
BRANCH  15  16
ATOM     16  C   UNL     1       2.845   2.552  17.924  0.00  0.00    +0.000 C 
BRANCH  16  17
ATOM     17  O   UNL     1       4.001   2.882  18.700  0.00  0.00    +0.000 OA
BRANCH  17  18
ATOM     18  C   UNL     1       4.916   3.673  18.042  0.00  0.00    +0.000 A 
ATOM     19  C   UNL     1       4.888   3.626  16.646  0.00  0.00    +0.000 A 
ATOM     20  C   UNL     1       5.787   4.385  15.884  0.00  0.00    +0.000 A 
ATOM     21  C   UNL     1       5.784   4.328  14.386  0.00  0.00    +0.000 C 
ATOM     22  C   UNL     1       6.706   5.219  16.540  0.00  0.00    +0.000 A 
ATOM     23  C   UNL     1       6.729   5.295  17.931  0.00  0.00    +0.000 A 
ATOM     24  C   UNL     1       7.693   6.194  18.652  0.00  0.00    +0.000 C 
ATOM     25  C   UNL     1       5.824   4.523  18.679  0.00  0.00    +0.000 A 
ENDBRANCH  17  18
ENDBRANCH  16  17
ENDBRANCH  15  16
ENDBRANCH   3  15
TORSDOF 7
ENDMDL
MODEL 6
REMARK VINA RESULT:      -6.9      3.375      7.369
REMARK  Name = 
REMARK  11 active torsions:
REMARK  status: ('A' for Active; 'I' for Inactive)
REMARK    1  A    between atoms: C_1  and  O_2
REMARK    2  A    between atoms: O_2  and  C_3
REMARK    3  A    between atoms: N_7  and  C_8
REMARK    4  A    between atoms: C_8  and  C_9
REMARK    5  A    between atoms: N_11  and  C_12
REMARK    6  A    between atoms: N_11  and  C_13
REMARK    7  A    between atoms: C_13  and  C_14
REMARK    8  A    between atoms: C_14  and  O_15
REMARK    9  A    between atoms: O_15  and  C_16
REMARK   10  A    between atoms: C_18  and  C_19
REMARK   11  A    between atoms: C_21  and  C_22
REMARK                            x       y       z     vdW  Elec       q    Type
REMARK                         _______ _______ _______ _____ _____    ______ ____
ROOT
ATOM      1  C   UNL     1       3.062   4.172  18.614  0.00  0.00    +0.000 C 
ATOM      2  O   UNL     1       2.664   5.090  17.886  0.00  0.00    +0.000 OA
ATOM      3  N   UNL     1       2.447   3.905  19.834  0.00  0.00    +0.000 N 
ATOM      4  C   UNL     1       3.051   3.080  20.879  0.00  0.00    +0.000 C 
ENDROOT
BRANCH   1   5
ATOM      5  C   UNL     1       4.258   3.317  18.165  0.00  0.00    +0.000 C 
BRANCH   5  10
ATOM      6  C   UNL     1       7.171   5.750  17.599  0.00  0.00    +0.000 A 
ATOM      7  C   UNL     1       7.287   5.598  16.271  0.00  0.00    +0.000 A 
ATOM      8  C   UNL     1       6.518   4.625  15.544  0.00  0.00    +0.000 A 
ATOM      9  C   UNL     1       5.557   3.937  16.166  0.00  0.00    +0.000 A 
ATOM     10  N   UNL     1       5.339   4.079  17.528  0.00  0.00    +0.000 N 
ATOM     11  C   UNL     1       6.192   4.848  18.333  0.00  0.00    +0.000 A 
ATOM     12  O   UNL     1       6.135   4.819  19.562  0.00  0.00    +0.000 OA
BRANCH   6  14
ATOM     13  C   UNL     1       7.774   8.065  17.615  0.00  0.00    +0.000 C 
ATOM     14  O   UNL     1       7.879   6.777  18.204  0.00  0.00    +0.000 OA
ENDBRANCH   6  14
ENDBRANCH   5  10
ENDBRANCH   1   5
BRANCH   3  15
ATOM     15  C   UNL     1       1.215   4.648  20.177  0.00  0.00    +0.000 C 
BRANCH  15  16
ATOM     16  C   UNL     1       1.455   5.899  21.032  0.00  0.00    +0.000 C 
BRANCH  16  17
ATOM     17  O   UNL     1       1.946   6.993  20.251  0.00  0.00    +0.000 OA
BRANCH  17  18
ATOM     18  C   UNL     1       1.335   8.197  20.520  0.00  0.00    +0.000 A 
ATOM     19  C   UNL     1       1.387   9.161  19.509  0.00  0.00    +0.000 A 
ATOM     20  C   UNL     1       0.805  10.424  19.691  0.00  0.00    +0.000 A 
ATOM     21  C   UNL     1       0.872  11.476  18.625  0.00  0.00    +0.000 C 
ATOM     22  C   UNL     1       0.143  10.706  20.897  0.00  0.00    +0.000 A 
ATOM     23  C   UNL     1       0.061   9.746  21.904  0.00  0.00    +0.000 A 
ATOM     24  C   UNL     1      -0.657  10.021  23.194  0.00  0.00    +0.000 C 
ATOM     25  C   UNL     1       0.655   8.487  21.706  0.00  0.00    +0.000 A 
ENDBRANCH  17  18
ENDBRANCH  16  17
ENDBRANCH  15  16
ENDBRANCH   3  15
TORSDOF 7
ENDMDL
MODEL 7
REMARK VINA RESULT:      -6.9      4.219      7.197
REMARK  Name = 
REMARK  11 active torsions:
REMARK  status: ('A' for Active; 'I' for Inactive)
REMARK    1  A    between atoms: C_1  and  O_2
REMARK    2  A    between atoms: O_2  and  C_3
REMARK    3  A    between atoms: N_7  and  C_8
REMARK    4  A    between atoms: C_8  and  C_9
REMARK    5  A    between atoms: N_11  and  C_12
REMARK    6  A    between atoms: N_11  and  C_13
REMARK    7  A    between atoms: C_13  and  C_14
REMARK    8  A    between atoms: C_14  and  O_15
REMARK    9  A    between atoms: O_15  and  C_16
REMARK   10  A    between atoms: C_18  and  C_19
REMARK   11  A    between atoms: C_21  and  C_22
REMARK                            x       y       z     vdW  Elec       q    Type
REMARK                         _______ _______ _______ _____ _____    ______ ____
ROOT
ATOM      1  C   UNL     1       2.344   5.963  18.824  0.00  0.00    +0.000 C 
ATOM      2  O   UNL     1       2.038   5.967  17.626  0.00  0.00    +0.000 OA
ATOM      3  N   UNL     1       2.258   4.798  19.583  0.00  0.00    +0.000 N 
ATOM      4  C   UNL     1       2.278   4.783  21.045  0.00  0.00    +0.000 C 
ENDROOT
BRANCH   1   5
ATOM      5  C   UNL     1       2.821   7.264  19.487  0.00  0.00    +0.000 C 
BRANCH   5  10
ATOM      6  C   UNL     1       0.361  10.209  19.477  0.00  0.00    +0.000 A 
ATOM      7  C   UNL     1      -0.222   9.969  20.661  0.00  0.00    +0.000 A 
ATOM      8  C   UNL     1       0.072   8.794  21.434  0.00  0.00    +0.000 A 
ATOM      9  C   UNL     1       1.051   7.972  21.048  0.00  0.00    +0.000 A 
ATOM     10  N   UNL     1       1.739   8.183  19.862  0.00  0.00    +0.000 N 
ATOM     11  C   UNL     1       1.357   9.185  18.958  0.00  0.00    +0.000 A 
ATOM     12  O   UNL     1       1.822   9.252  17.821  0.00  0.00    +0.000 OA
BRANCH   6  14
ATOM     13  C   UNL     1      -1.115  12.073  19.207  0.00  0.00    +0.000 C 
ATOM     14  O   UNL     1       0.091  11.414  18.846  0.00  0.00    +0.000 OA
ENDBRANCH   6  14
ENDBRANCH   5  10
ENDBRANCH   1   5
BRANCH   3  15
ATOM     15  C   UNL     1       1.932   3.532  18.891  0.00  0.00    +0.000 C 
BRANCH  15  16
ATOM     16  C   UNL     1       3.041   3.023  17.961  0.00  0.00    +0.000 C 
BRANCH  16  17
ATOM     17  O   UNL     1       4.342   3.224  18.522  0.00  0.00    +0.000 OA
BRANCH  17  18
ATOM     18  C   UNL     1       5.183   3.982  17.739  0.00  0.00    +0.000 A 
ATOM     19  C   UNL     1       5.210   3.674  16.376  0.00  0.00    +0.000 A 
ATOM     20  C   UNL     1       6.043   4.381  15.496  0.00  0.00    +0.000 A 
ATOM     21  C   UNL     1       6.099   4.048  14.036  0.00  0.00    +0.000 C 
ATOM     22  C   UNL     1       6.835   5.427  15.996  0.00  0.00    +0.000 A 
ATOM     23  C   UNL     1       6.800   5.762  17.348  0.00  0.00    +0.000 A 
ATOM     24  C   UNL     1       7.628   6.887  17.900  0.00  0.00    +0.000 C 
ATOM     25  C   UNL     1       5.963   5.039  18.215  0.00  0.00    +0.000 A 
ENDBRANCH  17  18
ENDBRANCH  16  17
ENDBRANCH  15  16
ENDBRANCH   3  15
TORSDOF 7
ENDMDL
MODEL 8
REMARK VINA RESULT:      -6.8      4.187      7.024
REMARK  Name = 
REMARK  11 active torsions:
REMARK  status: ('A' for Active; 'I' for Inactive)
REMARK    1  A    between atoms: C_1  and  O_2
REMARK    2  A    between atoms: O_2  and  C_3
REMARK    3  A    between atoms: N_7  and  C_8
REMARK    4  A    between atoms: C_8  and  C_9
REMARK    5  A    between atoms: N_11  and  C_12
REMARK    6  A    between atoms: N_11  and  C_13
REMARK    7  A    between atoms: C_13  and  C_14
REMARK    8  A    between atoms: C_14  and  O_15
REMARK    9  A    between atoms: O_15  and  C_16
REMARK   10  A    between atoms: C_18  and  C_19
REMARK   11  A    between atoms: C_21  and  C_22
REMARK                            x       y       z     vdW  Elec       q    Type
REMARK                         _______ _______ _______ _____ _____    ______ ____
ROOT
ATOM      1  C   UNL     1       3.051   4.909  20.073  0.00  0.00    +0.000 C 
ATOM      2  O   UNL     1       4.264   5.152  20.103  0.00  0.00    +0.000 OA
ATOM      3  N   UNL     1       2.575   3.692  19.591  0.00  0.00    +0.000 N 
ATOM      4  C   UNL     1       1.180   3.462  19.217  0.00  0.00    +0.000 C 
ENDROOT
BRANCH   1   5
ATOM      5  C   UNL     1       2.055   5.968  20.571  0.00  0.00    +0.000 C 
BRANCH   5  10
ATOM      6  C   UNL     1       1.343   9.541  19.367  0.00  0.00    +0.000 A 
ATOM      7  C   UNL     1       1.781   9.405  18.106  0.00  0.00    +0.000 A 
ATOM      8  C   UNL     1       2.425   8.205  17.647  0.00  0.00    +0.000 A 
ATOM      9  C   UNL     1       2.477   7.132  18.441  0.00  0.00    +0.000 A 
ATOM     10  N   UNL     1       1.996   7.178  19.740  0.00  0.00    +0.000 N 
ATOM     11  C   UNL     1       1.552   8.376  20.320  0.00  0.00    +0.000 A 
ATOM     12  O   UNL     1       1.318   8.473  21.524  0.00  0.00    +0.000 OA
BRANCH   6  14
ATOM     13  C   UNL     1      -0.536  10.535  20.465  0.00  0.00    +0.000 C 
ATOM     14  O   UNL     1       0.648  10.694  19.697  0.00  0.00    +0.000 OA
ENDBRANCH   6  14
ENDBRANCH   5  10
ENDBRANCH   1   5
BRANCH   3  15
ATOM     15  C   UNL     1       3.556   2.639  19.250  0.00  0.00    +0.000 C 
BRANCH  15  16
ATOM     16  C   UNL     1       3.863   2.530  17.751  0.00  0.00    +0.000 C 
BRANCH  16  17
ATOM     17  O   UNL     1       3.627   3.765  17.066  0.00  0.00    +0.000 OA
BRANCH  17  18
ATOM     18  C   UNL     1       4.762   4.349  16.550  0.00  0.00    +0.000 A 
ATOM     19  C   UNL     1       5.148   3.935  15.272  0.00  0.00    +0.000 A 
ATOM     20  C   UNL     1       6.297   4.462  14.664  0.00  0.00    +0.000 A 
ATOM     21  C   UNL     1       6.736   4.012  13.303  0.00  0.00    +0.000 C 
ATOM     22  C   UNL     1       7.046   5.435  15.343  0.00  0.00    +0.000 A 
ATOM     23  C   UNL     1       6.659   5.875  16.607  0.00  0.00    +0.000 A 
ATOM     24  C   UNL     1       7.438   6.927  17.344  0.00  0.00    +0.000 C 
ATOM     25  C   UNL     1       5.509   5.333  17.204  0.00  0.00    +0.000 A 
ENDBRANCH  17  18
ENDBRANCH  16  17
ENDBRANCH  15  16
ENDBRANCH   3  15
TORSDOF 7
ENDMDL
MODEL 9
REMARK VINA RESULT:      -6.8      4.142      7.060
REMARK  Name = 
REMARK  11 active torsions:
REMARK  status: ('A' for Active; 'I' for Inactive)
REMARK    1  A    between atoms: C_1  and  O_2
REMARK    2  A    between atoms: O_2  and  C_3
REMARK    3  A    between atoms: N_7  and  C_8
REMARK    4  A    between atoms: C_8  and  C_9
REMARK    5  A    between atoms: N_11  and  C_12
REMARK    6  A    between atoms: N_11  and  C_13
REMARK    7  A    between atoms: C_13  and  C_14
REMARK    8  A    between atoms: C_14  and  O_15
REMARK    9  A    between atoms: O_15  and  C_16
REMARK   10  A    between atoms: C_18  and  C_19
REMARK   11  A    between atoms: C_21  and  C_22
REMARK                            x       y       z     vdW  Elec       q    Type
REMARK                         _______ _______ _______ _____ _____    ______ ____
ROOT
ATOM      1  C   UNL     1       2.358   6.026  18.975  0.00  0.00    +0.000 C 
ATOM      2  O   UNL     1       2.103   6.137  17.770  0.00  0.00    +0.000 OA
ATOM      3  N   UNL     1       2.276   4.791  19.615  0.00  0.00    +0.000 N 
ATOM      4  C   UNL     1       2.233   4.636  21.068  0.00  0.00    +0.000 C 
ENDROOT
BRANCH   1   5
ATOM      5  C   UNL     1       2.766   7.270  19.780  0.00  0.00    +0.000 C 
BRANCH   5  10
ATOM      6  C   UNL     1       0.386  10.269  19.536  0.00  0.00    +0.000 A 
ATOM      7  C   UNL     1      -0.340  10.023  20.637  0.00  0.00    +0.000 A 
ATOM      8  C   UNL     1      -0.164   8.829  21.417  0.00  0.00    +0.000 A 
ATOM      9  C   UNL     1       0.838   7.991  21.133  0.00  0.00    +0.000 A 
ATOM     10  N   UNL     1       1.665   8.206  20.042  0.00  0.00    +0.000 N 
ATOM     11  C   UNL     1       1.415   9.232  19.119  0.00  0.00    +0.000 A 
ATOM     12  O   UNL     1       2.013   9.308  18.046  0.00  0.00    +0.000 OA
BRANCH   6  14
ATOM     13  C   UNL     1       0.233  12.650  19.722  0.00  0.00    +0.000 C 
ATOM     14  O   UNL     1       0.217  11.491  18.901  0.00  0.00    +0.000 OA
ENDBRANCH   6  14
ENDBRANCH   5  10
ENDBRANCH   1   5
BRANCH   3  15
ATOM     15  C   UNL     1       2.020   3.589  18.792  0.00  0.00    +0.000 C 
BRANCH  15  16
ATOM     16  C   UNL     1       3.277   2.774  18.465  0.00  0.00    +0.000 C 
BRANCH  16  17
ATOM     17  O   UNL     1       4.467   3.413  18.940  0.00  0.00    +0.000 OA
BRANCH  17  18
ATOM     18  C   UNL     1       5.171   4.087  17.969  0.00  0.00    +0.000 A 
ATOM     19  C   UNL     1       6.024   5.103  18.410  0.00  0.00    +0.000 A 
ATOM     20  C   UNL     1       6.776   5.856  17.497  0.00  0.00    +0.000 A 
ATOM     21  C   UNL     1       7.678   6.963  17.954  0.00  0.00    +0.000 C 
ATOM     22  C   UNL     1       6.685   5.561  16.128  0.00  0.00    +0.000 A 
ATOM     23  C   UNL     1       5.858   4.535  15.675  0.00  0.00    +0.000 A 
ATOM     24  C   UNL     1       5.759   4.193  14.216  0.00  0.00    +0.000 C 
ATOM     25  C   UNL     1       5.108   3.794  16.604  0.00  0.00    +0.000 A 
ENDBRANCH  17  18
ENDBRANCH  16  17
ENDBRANCH  15  16
ENDBRANCH   3  15
TORSDOF 7
ENDMDL
