MODEL 1
REMARK VINA RESULT:      -8.5      0.000      0.000
REMARK  Name = 
REMARK  8 active torsions:
REMARK  status: ('A' for Active; 'I' for Inactive)
REMARK    1  A    between atoms: C_1  and  O_2
REMARK    2  A    between atoms: O_2  and  C_3
REMARK    3  A    between atoms: C_6  and  C_7
REMARK    4  A    between atoms: N_12  and  C_13
REMARK    5  A    between atoms: C_22  and  O_23
REMARK    6  A    between atoms: O_23  and  C_24
REMARK    7  A    between atoms: C_24  and  C_25
REMARK    8  A    between atoms: C_25  and  C_26
REMARK                            x       y       z     vdW  Elec       q    Type
REMARK                         _______ _______ _______ _____ _____    ______ ____
ROOT
ATOM      1  C   UNL     1       6.581   5.474  15.715  0.00  0.00    +0.000 A 
ATOM      2  C   UNL     1       5.430   4.674  15.794  0.00  0.00    +0.000 A 
ATOM      3  C   UNL     1       4.542   4.795  16.862  0.00  0.00    +0.000 A 
ATOM      4  C   UNL     1       4.776   5.736  17.861  0.00  0.00    +0.000 A 
ATOM      5  C   UNL     1       5.931   6.526  17.805  0.00  0.00    +0.000 A 
ATOM      6  C   UNL     1       6.814   6.439  16.717  0.00  0.00    +0.000 A 
ENDROOT
BRANCH   4   7
ATOM      7  C   UNL     1       3.815   5.785  18.990  0.00  0.00    +0.000 C 
ATOM      8  O   UNL     1       3.958   4.958  19.891  0.00  0.00    +0.000 OA
ATOM      9  N   UNL     1       2.816   6.746  19.016  0.00  0.00    +0.000 N 
ATOM     10  C   UNL     1       1.993   6.862  20.226  0.00  0.00    +0.000 C 
ATOM     11  C   UNL     1       1.734   8.338  20.587  0.00  0.00    +0.000 C 
ATOM     12  N   UNL     1       1.197   9.045  19.409  0.00  0.00    +0.000 N 
ATOM     13  C   UNL     1       2.031   8.945  18.197  0.00  0.00    +0.000 C 
ATOM     14  C   UNL     1       2.262   7.463  17.856  0.00  0.00    +0.000 C 
BRANCH  12  15
ATOM     15  C   UNL     1       0.193   9.987  19.514  0.00  0.00    +0.000 A 
ATOM     16  C   UNL     1      -0.544  10.433  18.414  0.00  0.00    +0.000 A 
ATOM     17  C   UNL     1      -1.500  11.427  18.582  0.00  0.00    +0.000 A 
ATOM     18  N   UNL     1      -1.782  12.011  19.761  0.00  0.00    +0.000 NA
ATOM     19  C   UNL     1      -1.066  11.582  20.817  0.00  0.00    +0.000 A 
ATOM     20  C   UNL     1      -0.094  10.588  20.746  0.00  0.00    +0.000 A 
ENDBRANCH  12  15
ENDBRANCH   4   7
BRANCH   1  22
ATOM     21  C   UNL     1       7.224   4.458  13.634  0.00  0.00    +0.000 C 
ATOM     22  O   UNL     1       7.507   5.336  14.719  0.00  0.00    +0.000 OA
ENDBRANCH   1  22
BRANCH   6  23
ATOM     23  O   UNL     1       7.870   7.319  16.813  0.00  0.00    +0.000 OA
BRANCH  23  24
ATOM     24  C   UNL     1       7.985   8.089  18.016  0.00  0.00    +0.000 C 
BRANCH  24  25
ATOM     25  C   UNL     1       7.639   9.563  17.742  0.00  0.00    +0.000 C 
BRANCH  25  26
ATOM     26  C   UNL     1       8.631  10.549  18.334  0.00  0.00    +0.000 A 
ATOM     27  C   UNL     1       9.543  10.090  19.299  0.00  0.00    +0.000 A 
ATOM     28  C   UNL     1      10.485  10.953  19.865  0.00  0.00    +0.000 A 
ATOM     29  C   UNL     1      10.526  12.287  19.469  0.00  0.00    +0.000 A 
ATOM     30 CL   UNL     1      11.697  13.345  20.155  0.00  0.00    +0.000 Cl
ATOM     31  C   UNL     1       9.626  12.768  18.522  0.00  0.00    +0.000 A 
ATOM     32  C   UNL     1       8.683  11.904  17.959  0.00  0.00    +0.000 A 
ATOM     33 CL   UNL     1       7.582  12.576  16.809  0.00  0.00    +0.000 Cl
ENDBRANCH  25  26
ENDBRANCH  24  25
ENDBRANCH  23  24
ENDBRANCH   6  23
TORSDOF 7
ENDMDL
MODEL 2
REMARK VINA RESULT:      -7.8      3.257      5.213
REMARK  Name = 
REMARK  8 active torsions:
REMARK  status: ('A' for Active; 'I' for Inactive)
REMARK    1  A    between atoms: C_1  and  O_2
REMARK    2  A    between atoms: O_2  and  C_3
REMARK    3  A    between atoms: C_6  and  C_7
REMARK    4  A    between atoms: N_12  and  C_13
REMARK    5  A    between atoms: C_22  and  O_23
REMARK    6  A    between atoms: O_23  and  C_24
REMARK    7  A    between atoms: C_24  and  C_25
REMARK    8  A    between atoms: C_25  and  C_26
REMARK                            x       y       z     vdW  Elec       q    Type
REMARK                         _______ _______ _______ _____ _____    ______ ____
ROOT
ATOM      1  C   UNL     1       2.089   4.115  19.836  0.00  0.00    +0.000 A 
ATOM      2  C   UNL     1       1.712   5.177  20.671  0.00  0.00    +0.000 A 
ATOM      3  C   UNL     1       1.712   6.493  20.208  0.00  0.00    +0.000 A 
ATOM      4  C   UNL     1       2.068   6.768  18.890  0.00  0.00    +0.000 A 
ATOM      5  C   UNL     1       2.467   5.719  18.052  0.00  0.00    +0.000 A 
ATOM      6  C   UNL     1       2.436   4.387  18.496  0.00  0.00    +0.000 A 
ENDROOT
BRANCH   4   7
ATOM      7  C   UNL     1       2.088   8.191  18.472  0.00  0.00    +0.000 C 
ATOM      8  O   UNL     1       2.691   8.467  17.435  0.00  0.00    +0.000 OA
ATOM      9  N   UNL     1       1.429   9.149  19.225  0.00  0.00    +0.000 N 
ATOM     10  C   UNL     1       1.335  10.513  18.689  0.00  0.00    +0.000 C 
ATOM     11  C   UNL     1      -0.061  11.116  18.938  0.00  0.00    +0.000 C 
ATOM     12  N   UNL     1      -0.403  10.995  20.367  0.00  0.00    +0.000 N 
ATOM     13  C   UNL     1      -0.327   9.622  20.904  0.00  0.00    +0.000 C 
ATOM     14  C   UNL     1       1.079   9.052  20.652  0.00  0.00    +0.000 C 
BRANCH  12  15
ATOM     15  C   UNL     1      -1.055  11.999  21.053  0.00  0.00    +0.000 A 
ATOM     16  C   UNL     1      -2.265  12.548  20.622  0.00  0.00    +0.000 A 
ATOM     17  C   UNL     1      -2.838  13.598  21.329  0.00  0.00    +0.000 A 
ATOM     18  N   UNL     1      -2.300  14.144  22.435  0.00  0.00    +0.000 NA
ATOM     19  C   UNL     1      -1.132  13.616  22.844  0.00  0.00    +0.000 A 
ATOM     20  C   UNL     1      -0.488  12.560  22.205  0.00  0.00    +0.000 A 
ENDBRANCH  12  15
ENDBRANCH   4   7
BRANCH   1  22
ATOM     21  C   UNL     1       3.179   2.475  21.213  0.00  0.00    +0.000 C 
ATOM     22  O   UNL     1       2.165   2.823  20.276  0.00  0.00    +0.000 OA
ENDBRANCH   1  22
BRANCH   6  23
ATOM     23  O   UNL     1       2.822   3.490  17.524  0.00  0.00    +0.000 OA
BRANCH  23  24
ATOM     24  C   UNL     1       4.193   3.073  17.512  0.00  0.00    +0.000 C 
BRANCH  24  25
ATOM     25  C   UNL     1       4.979   3.856  16.446  0.00  0.00    +0.000 C 
BRANCH  25  26
ATOM     26  C   UNL     1       5.865   4.951  17.014  0.00  0.00    +0.000 A 
ATOM     27  C   UNL     1       6.665   4.658  18.132  0.00  0.00    +0.000 A 
ATOM     28  C   UNL     1       7.507   5.627  18.686  0.00  0.00    +0.000 A 
ATOM     29  C   UNL     1       7.560   6.899  18.124  0.00  0.00    +0.000 A 
ATOM     30 CL   UNL     1       8.611   8.085  18.797  0.00  0.00    +0.000 Cl
ATOM     31  C   UNL     1       6.770   7.217  17.023  0.00  0.00    +0.000 A 
ATOM     32  C   UNL     1       5.927   6.248  16.472  0.00  0.00    +0.000 A 
ATOM     33 CL   UNL     1       4.956   6.720  15.122  0.00  0.00    +0.000 Cl
ENDBRANCH  25  26
ENDBRANCH  24  25
ENDBRANCH  23  24
ENDBRANCH   6  23
TORSDOF 7
ENDMDL
MODEL 3
REMARK VINA RESULT:      -7.5      3.700      5.962
REMARK  Name = 
REMARK  8 active torsions:
REMARK  status: ('A' for Active; 'I' for Inactive)
REMARK    1  A    between atoms: C_1  and  O_2
REMARK    2  A    between atoms: O_2  and  C_3
REMARK    3  A    between atoms: C_6  and  C_7
REMARK    4  A    between atoms: N_12  and  C_13
REMARK    5  A    between atoms: C_22  and  O_23
REMARK    6  A    between atoms: O_23  and  C_24
REMARK    7  A    between atoms: C_24  and  C_25
REMARK    8  A    between atoms: C_25  and  C_26
REMARK                            x       y       z     vdW  Elec       q    Type
REMARK                         _______ _______ _______ _____ _____    ______ ____
ROOT
ATOM      1  C   UNL     1       1.581   4.065  20.066  0.00  0.00    +0.000 A 
ATOM      2  C   UNL     1       1.730   5.176  20.910  0.00  0.00    +0.000 A 
ATOM      3  C   UNL     1       1.959   6.450  20.388  0.00  0.00    +0.000 A 
ATOM      4  C   UNL     1       2.021   6.639  19.010  0.00  0.00    +0.000 A 
ATOM      5  C   UNL     1       1.895   5.535  18.158  0.00  0.00    +0.000 A 
ATOM      6  C   UNL     1       1.628   4.254  18.669  0.00  0.00    +0.000 A 
ENDROOT
BRANCH   4   7
ATOM      7  C   UNL     1       2.308   8.010  18.522  0.00  0.00    +0.000 C 
ATOM      8  O   UNL     1       3.162   8.130  17.644  0.00  0.00    +0.000 OA
ATOM      9  N   UNL     1       1.615   9.094  19.036  0.00  0.00    +0.000 N 
ATOM     10  C   UNL     1       1.812  10.407  18.412  0.00  0.00    +0.000 C 
ATOM     11  C   UNL     1       0.480  11.171  18.283  0.00  0.00    +0.000 C 
ATOM     12  N   UNL     1      -0.193  11.212  19.595  0.00  0.00    +0.000 N 
ATOM     13  C   UNL     1      -0.410   9.892  20.216  0.00  0.00    +0.000 C 
ATOM     14  C   UNL     1       0.937   9.159  20.343  0.00  0.00    +0.000 C 
BRANCH  12  15
ATOM     15  C   UNL     1      -0.859  12.335  20.043  0.00  0.00    +0.000 A 
ATOM     16  C   UNL     1      -0.478  13.632  19.690  0.00  0.00    +0.000 A 
ATOM     17  C   UNL     1      -1.156  14.720  20.225  0.00  0.00    +0.000 A 
ATOM     18  N   UNL     1      -2.187  14.617  21.084  0.00  0.00    +0.000 NA
ATOM     19  C   UNL     1      -2.547  13.367  21.426  0.00  0.00    +0.000 A 
ATOM     20  C   UNL     1      -1.932  12.218  20.936  0.00  0.00    +0.000 A 
ENDBRANCH  12  15
ENDBRANCH   4   7
BRANCH   1  22
ATOM     21  C   UNL     1       2.079   2.428  21.754  0.00  0.00    +0.000 C 
ATOM     22  O   UNL     1       1.424   2.794  20.544  0.00  0.00    +0.000 OA
ENDBRANCH   1  22
BRANCH   6  23
ATOM     23  O   UNL     1       1.495   3.301  17.682  0.00  0.00    +0.000 OA
BRANCH  23  24
ATOM     24  C   UNL     1       2.476   3.287  16.637  0.00  0.00    +0.000 C 
BRANCH  24  25
ATOM     25  C   UNL     1       3.850   2.888  17.201  0.00  0.00    +0.000 C 
BRANCH  25  26
ATOM     26  C   UNL     1       4.825   4.046  17.326  0.00  0.00    +0.000 A 
ATOM     27  C   UNL     1       5.188   4.750  16.165  0.00  0.00    +0.000 A 
ATOM     28  C   UNL     1       6.071   5.831  16.227  0.00  0.00    +0.000 A 
ATOM     29  C   UNL     1       6.598   6.222  17.454  0.00  0.00    +0.000 A 
ATOM     30 CL   UNL     1       7.673   7.565  17.532  0.00  0.00    +0.000 Cl
ATOM     31  C   UNL     1       6.262   5.535  18.617  0.00  0.00    +0.000 A 
ATOM     32  C   UNL     1       5.381   4.452  18.553  0.00  0.00    +0.000 A 
ATOM     33 CL   UNL     1       5.029   3.630  20.032  0.00  0.00    +0.000 Cl
ENDBRANCH  25  26
ENDBRANCH  24  25
ENDBRANCH  23  24
ENDBRANCH   6  23
TORSDOF 7
ENDMDL
MODEL 4
REMARK VINA RESULT:      -7.5      4.921      8.670
REMARK  Name = 
REMARK  8 active torsions:
REMARK  status: ('A' for Active; 'I' for Inactive)
REMARK    1  A    between atoms: C_1  and  O_2
REMARK    2  A    between atoms: O_2  and  C_3
REMARK    3  A    between atoms: C_6  and  C_7
REMARK    4  A    between atoms: N_12  and  C_13
REMARK    5  A    between atoms: C_22  and  O_23
REMARK    6  A    between atoms: O_23  and  C_24
REMARK    7  A    between atoms: C_24  and  C_25
REMARK    8  A    between atoms: C_25  and  C_26
REMARK                            x       y       z     vdW  Elec       q    Type
REMARK                         _______ _______ _______ _____ _____    ______ ____
ROOT
ATOM      1  C   UNL     1      -1.396  10.539  18.008  0.00  0.00    +0.000 A 
ATOM      2  C   UNL     1      -1.951  11.669  18.627  0.00  0.00    +0.000 A 
ATOM      3  C   UNL     1      -1.201  12.448  19.509  0.00  0.00    +0.000 A 
ATOM      4  C   UNL     1       0.127  12.122  19.770  0.00  0.00    +0.000 A 
ATOM      5  C   UNL     1       0.687  10.985  19.176  0.00  0.00    +0.000 A 
ATOM      6  C   UNL     1      -0.046  10.214  18.258  0.00  0.00    +0.000 A 
ENDROOT
BRANCH   4   7
ATOM      7  C   UNL     1       0.856  12.966  20.749  0.00  0.00    +0.000 C 
ATOM      8  O   UNL     1       0.492  12.911  21.924  0.00  0.00    +0.000 OA
ATOM      9  N   UNL     1       1.914  13.760  20.336  0.00  0.00    +0.000 N 
ATOM     10  C   UNL     1       2.709  14.450  21.359  0.00  0.00    +0.000 C 
ATOM     11  C   UNL     1       4.213  14.397  21.028  0.00  0.00    +0.000 C 
ATOM     12  N   UNL     1       4.432  14.882  19.652  0.00  0.00    +0.000 N 
ATOM     13  C   UNL     1       3.647  14.178  18.619  0.00  0.00    +0.000 C 
ATOM     14  C   UNL     1       2.152  14.258  18.970  0.00  0.00    +0.000 C 
BRANCH  12  15
ATOM     15  C   UNL     1       5.507  15.679  19.318  0.00  0.00    +0.000 A 
ATOM     16  C   UNL     1       6.530  15.252  18.467  0.00  0.00    +0.000 A 
ATOM     17  C   UNL     1       7.615  16.085  18.220  0.00  0.00    +0.000 A 
ATOM     18  N   UNL     1       7.760  17.312  18.753  0.00  0.00    +0.000 NA
ATOM     19  C   UNL     1       6.775  17.717  19.576  0.00  0.00    +0.000 A 
ATOM     20  C   UNL     1       5.650  16.956  19.877  0.00  0.00    +0.000 A 
ENDBRANCH  12  15
ENDBRANCH   4   7
BRANCH   1  22
ATOM     21  C   UNL     1      -2.633  10.237  15.970  0.00  0.00    +0.000 C 
ATOM     22  O   UNL     1      -2.121   9.716  17.192  0.00  0.00    +0.000 OA
ENDBRANCH   1  22
BRANCH   6  23
ATOM     23  O   UNL     1       0.679   9.161  17.744  0.00  0.00    +0.000 OA
BRANCH  23  24
ATOM     24  C   UNL     1       2.036   9.013  18.181  0.00  0.00    +0.000 C 
BRANCH  24  25
ATOM     25  C   UNL     1       2.240   7.635  18.832  0.00  0.00    +0.000 C 
BRANCH  25  26
ATOM     26  C   UNL     1       3.134   6.702  18.034  0.00  0.00    +0.000 A 
ATOM     27  C   UNL     1       4.117   7.262  17.199  0.00  0.00    +0.000 A 
ATOM     28  C   UNL     1       4.974   6.448  16.453  0.00  0.00    +0.000 A 
ATOM     29  C   UNL     1       4.858   5.063  16.537  0.00  0.00    +0.000 A 
ATOM     30 CL   UNL     1       5.925   4.062  15.630  0.00  0.00    +0.000 Cl
ATOM     31  C   UNL     1       3.886   4.485  17.348  0.00  0.00    +0.000 A 
ATOM     32  C   UNL     1       3.028   5.301  18.092  0.00  0.00    +0.000 A 
ATOM     33 CL   UNL     1       1.829   4.515  19.057  0.00  0.00    +0.000 Cl
ENDBRANCH  25  26
ENDBRANCH  24  25
ENDBRANCH  23  24
ENDBRANCH   6  23
TORSDOF 7
ENDMDL
MODEL 5
REMARK VINA RESULT:      -7.4      4.498      6.269
REMARK  Name = 
REMARK  8 active torsions:
REMARK  status: ('A' for Active; 'I' for Inactive)
REMARK    1  A    between atoms: C_1  and  O_2
REMARK    2  A    between atoms: O_2  and  C_3
REMARK    3  A    between atoms: C_6  and  C_7
REMARK    4  A    between atoms: N_12  and  C_13
REMARK    5  A    between atoms: C_22  and  O_23
REMARK    6  A    between atoms: O_23  and  C_24
REMARK    7  A    between atoms: C_24  and  C_25
REMARK    8  A    between atoms: C_25  and  C_26
REMARK                            x       y       z     vdW  Elec       q    Type
REMARK                         _______ _______ _______ _____ _____    ______ ____
ROOT
ATOM      1  C   UNL     1       1.812   3.948  19.933  0.00  0.00    +0.000 A 
ATOM      2  C   UNL     1       1.760   5.054  20.795  0.00  0.00    +0.000 A 
ATOM      3  C   UNL     1       1.886   6.354  20.306  0.00  0.00    +0.000 A 
ATOM      4  C   UNL     1       2.044   6.574  18.940  0.00  0.00    +0.000 A 
ATOM      5  C   UNL     1       2.119   5.478  18.072  0.00  0.00    +0.000 A 
ATOM      6  C   UNL     1       1.957   4.167  18.547  0.00  0.00    +0.000 A 
ENDROOT
BRANCH   4   7
ATOM      7  C   UNL     1       2.214   7.978  18.491  0.00  0.00    +0.000 C 
ATOM      8  O   UNL     1       2.923   8.172  17.503  0.00  0.00    +0.000 OA
ATOM      9  N   UNL     1       1.574   9.008  19.160  0.00  0.00    +0.000 N 
ATOM     10  C   UNL     1       1.636  10.357  18.585  0.00  0.00    +0.000 C 
ATOM     11  C   UNL     1       0.278  11.076  18.696  0.00  0.00    +0.000 C 
ATOM     12  N   UNL     1      -0.193  11.027  20.093  0.00  0.00    +0.000 N 
ATOM     13  C   UNL     1      -0.274   9.670  20.667  0.00  0.00    +0.000 C 
ATOM     14  C   UNL     1       1.098   8.983  20.553  0.00  0.00    +0.000 C 
BRANCH  12  15
ATOM     15  C   UNL     1      -0.817  12.100  20.695  0.00  0.00    +0.000 A 
ATOM     16  C   UNL     1      -0.246  12.811  21.753  0.00  0.00    +0.000 A 
ATOM     17  C   UNL     1      -0.956  13.845  22.352  0.00  0.00    +0.000 A 
ATOM     18  N   UNL     1      -2.191  14.227  21.979  0.00  0.00    +0.000 NA
ATOM     19  C   UNL     1      -2.739  13.535  20.963  0.00  0.00    +0.000 A 
ATOM     20  C   UNL     1      -2.102  12.491  20.299  0.00  0.00    +0.000 A 
ENDBRANCH  12  15
ENDBRANCH   4   7
BRANCH   1  22
ATOM     21  C   UNL     1       2.263   2.365  21.683  0.00  0.00    +0.000 C 
ATOM     22  O   UNL     1       1.759   2.659  20.385  0.00  0.00    +0.000 OA
ENDBRANCH   1  22
BRANCH   6  23
ATOM     23  O   UNL     1       2.019   3.223  17.545  0.00  0.00    +0.000 OA
BRANCH  23  24
ATOM     24  C   UNL     1       3.309   2.695  17.209  0.00  0.00    +0.000 C 
BRANCH  24  25
ATOM     25  C   UNL     1       4.411   3.702  17.581  0.00  0.00    +0.000 C 
BRANCH  25  26
ATOM     26  C   UNL     1       5.316   4.081  16.422  0.00  0.00    +0.000 A 
ATOM     27  C   UNL     1       4.838   3.913  15.111  0.00  0.00    +0.000 A 
ATOM     28  C   UNL     1       5.626   4.258  14.009  0.00  0.00    +0.000 A 
ATOM     29  C   UNL     1       6.901   4.780  14.209  0.00  0.00    +0.000 A 
ATOM     30 CL   UNL     1       7.864   5.220  12.851  0.00  0.00    +0.000 Cl
ATOM     31  C   UNL     1       7.401   4.947  15.497  0.00  0.00    +0.000 A 
ATOM     32  C   UNL     1       6.612   4.598  16.597  0.00  0.00    +0.000 A 
ATOM     33 CL   UNL     1       7.307   4.809  18.166  0.00  0.00    +0.000 Cl
ENDBRANCH  25  26
ENDBRANCH  24  25
ENDBRANCH  23  24
ENDBRANCH   6  23
TORSDOF 7
ENDMDL
MODEL 6
REMARK VINA RESULT:      -7.4      2.570      4.871
REMARK  Name = 
REMARK  8 active torsions:
REMARK  status: ('A' for Active; 'I' for Inactive)
REMARK    1  A    between atoms: C_1  and  O_2
REMARK    2  A    between atoms: O_2  and  C_3
REMARK    3  A    between atoms: C_6  and  C_7
REMARK    4  A    between atoms: N_12  and  C_13
REMARK    5  A    between atoms: C_22  and  O_23
REMARK    6  A    between atoms: O_23  and  C_24
REMARK    7  A    between atoms: C_24  and  C_25
REMARK    8  A    between atoms: C_25  and  C_26
REMARK                            x       y       z     vdW  Elec       q    Type
REMARK                         _______ _______ _______ _____ _____    ______ ____
ROOT
ATOM      1  C   UNL     1       2.837   4.482  19.804  0.00  0.00    +0.000 A 
ATOM      2  C   UNL     1       2.196   5.445  20.599  0.00  0.00    +0.000 A 
ATOM      3  C   UNL     1       1.957   6.732  20.118  0.00  0.00    +0.000 A 
ATOM      4  C   UNL     1       2.336   7.073  18.822  0.00  0.00    +0.000 A 
ATOM      5  C   UNL     1       2.995   6.129  18.026  0.00  0.00    +0.000 A 
ATOM      6  C   UNL     1       3.208   4.819  18.486  0.00  0.00    +0.000 A 
ENDROOT
BRANCH   4   7
ATOM      7  C   UNL     1       2.091   8.470  18.386  0.00  0.00    +0.000 C 
ATOM      8  O   UNL     1       2.540   8.807  17.290  0.00  0.00    +0.000 OA
ATOM      9  N   UNL     1       1.366   9.336  19.188  0.00  0.00    +0.000 N 
ATOM     10  C   UNL     1       1.007  10.653  18.648  0.00  0.00    +0.000 C 
ATOM     11  C   UNL     1      -0.435  11.039  19.027  0.00  0.00    +0.000 C 
ATOM     12  N   UNL     1      -0.614  10.906  20.485  0.00  0.00    +0.000 N 
ATOM     13  C   UNL     1      -0.272   9.578  21.028  0.00  0.00    +0.000 C 
ATOM     14  C   UNL     1       1.175   9.225  20.645  0.00  0.00    +0.000 C 
BRANCH  12  15
ATOM     15  C   UNL     1      -1.346  11.816  21.220  0.00  0.00    +0.000 A 
ATOM     16  C   UNL     1      -0.990  12.205  22.514  0.00  0.00    +0.000 A 
ATOM     17  C   UNL     1      -1.806  13.081  23.220  0.00  0.00    +0.000 A 
ATOM     18  N   UNL     1      -2.949  13.601  22.737  0.00  0.00    +0.000 NA
ATOM     19  C   UNL     1      -3.291  13.220  21.493  0.00  0.00    +0.000 A 
ATOM     20  C   UNL     1      -2.535  12.354  20.709  0.00  0.00    +0.000 A 
ENDBRANCH  12  15
ENDBRANCH   4   7
BRANCH   1  22
ATOM     21  C   UNL     1       2.480   2.744  21.426  0.00  0.00    +0.000 C 
ATOM     22  O   UNL     1       3.147   3.233  20.267  0.00  0.00    +0.000 OA
ENDBRANCH   1  22
BRANCH   6  23
ATOM     23  O   UNL     1       3.832   4.019  17.553  0.00  0.00    +0.000 OA
BRANCH  23  24
ATOM     24  C   UNL     1       5.020   4.526  16.932  0.00  0.00    +0.000 C 
BRANCH  24  25
ATOM     25  C   UNL     1       6.161   4.621  17.960  0.00  0.00    +0.000 C 
BRANCH  25  26
ATOM     26  C   UNL     1       6.845   5.976  17.998  0.00  0.00    +0.000 A 
ATOM     27  C   UNL     1       6.416   6.973  17.105  0.00  0.00    +0.000 A 
ATOM     28  C   UNL     1       7.004   8.241  17.108  0.00  0.00    +0.000 A 
ATOM     29  C   UNL     1       8.026   8.526  18.008  0.00  0.00    +0.000 A 
ATOM     30 CL   UNL     1       8.738  10.094  18.021  0.00  0.00    +0.000 Cl
ATOM     31  C   UNL     1       8.476   7.553  18.895  0.00  0.00    +0.000 A 
ATOM     32  C   UNL     1       7.889   6.284  18.889  0.00  0.00    +0.000 A 
ATOM     33 CL   UNL     1       8.515   5.118  20.000  0.00  0.00    +0.000 Cl
ENDBRANCH  25  26
ENDBRANCH  24  25
ENDBRANCH  23  24
ENDBRANCH   6  23
TORSDOF 7
ENDMDL
MODEL 7
REMARK VINA RESULT:      -7.3      2.789      4.508
REMARK  Name = 
REMARK  8 active torsions:
REMARK  status: ('A' for Active; 'I' for Inactive)
REMARK    1  A    between atoms: C_1  and  O_2
REMARK    2  A    between atoms: O_2  and  C_3
REMARK    3  A    between atoms: C_6  and  C_7
REMARK    4  A    between atoms: N_12  and  C_13
REMARK    5  A    between atoms: C_22  and  O_23
REMARK    6  A    between atoms: O_23  and  C_24
REMARK    7  A    between atoms: C_24  and  C_25
REMARK    8  A    between atoms: C_25  and  C_26
REMARK                            x       y       z     vdW  Elec       q    Type
REMARK                         _______ _______ _______ _____ _____    ______ ____
ROOT
ATOM      1  C   UNL     1       2.588   3.943  18.903  0.00  0.00    +0.000 A 
ATOM      2  C   UNL     1       1.522   4.468  18.156  0.00  0.00    +0.000 A 
ATOM      3  C   UNL     1       1.435   5.834  17.887  0.00  0.00    +0.000 A 
ATOM      4  C   UNL     1       2.428   6.698  18.341  0.00  0.00    +0.000 A 
ATOM      5  C   UNL     1       3.486   6.191  19.105  0.00  0.00    +0.000 A 
ATOM      6  C   UNL     1       3.603   4.813  19.352  0.00  0.00    +0.000 A 
ENDROOT
BRANCH   4   7
ATOM      7  C   UNL     1       2.255   8.144  18.056  0.00  0.00    +0.000 C 
ATOM      8  O   UNL     1       2.734   8.574  17.007  0.00  0.00    +0.000 OA
ATOM      9  N   UNL     1       1.562   8.953  18.942  0.00  0.00    +0.000 N 
ATOM     10  C   UNL     1       1.274  10.336  18.544  0.00  0.00    +0.000 C 
ATOM     11  C   UNL     1      -0.153  10.749  18.951  0.00  0.00    +0.000 C 
ATOM     12  N   UNL     1      -0.357  10.470  20.386  0.00  0.00    +0.000 N 
ATOM     13  C   UNL     1      -0.085   9.076  20.785  0.00  0.00    +0.000 C 
ATOM     14  C   UNL     1       1.348   8.696  20.377  0.00  0.00    +0.000 C 
BRANCH  12  15
ATOM     15  C   UNL     1      -1.054  11.330  21.209  0.00  0.00    +0.000 A 
ATOM     16  C   UNL     1      -1.663  12.497  20.742  0.00  0.00    +0.000 A 
ATOM     17  C   UNL     1      -2.298  13.350  21.636  0.00  0.00    +0.000 A 
ATOM     18  N   UNL     1      -2.377  13.129  22.961  0.00  0.00    +0.000 NA
ATOM     19  C   UNL     1      -1.784  12.007  23.408  0.00  0.00    +0.000 A 
ATOM     20  C   UNL     1      -1.131  11.092  22.587  0.00  0.00    +0.000 A 
ENDBRANCH  12  15
ENDBRANCH   4   7
BRANCH   1  22
ATOM     21  C   UNL     1       1.530   1.790  19.043  0.00  0.00    +0.000 C 
ATOM     22  O   UNL     1       2.668   2.622  19.243  0.00  0.00    +0.000 OA
ENDBRANCH   1  22
BRANCH   6  23
ATOM     23  O   UNL     1       4.726   4.494  20.084  0.00  0.00    +0.000 OA
BRANCH  23  24
ATOM     24  C   UNL     1       5.779   3.792  19.411  0.00  0.00    +0.000 C 
BRANCH  24  25
ATOM     25  C   UNL     1       5.994   4.372  18.003  0.00  0.00    +0.000 C 
BRANCH  25  26
ATOM     26  C   UNL     1       6.676   5.729  17.993  0.00  0.00    +0.000 A 
ATOM     27  C   UNL     1       7.688   5.981  18.936  0.00  0.00    +0.000 A 
ATOM     28  C   UNL     1       8.356   7.208  18.961  0.00  0.00    +0.000 A 
ATOM     29  C   UNL     1       8.022   8.196  18.039  0.00  0.00    +0.000 A 
ATOM     30 CL   UNL     1       8.857   9.701  18.061  0.00  0.00    +0.000 Cl
ATOM     31  C   UNL     1       7.017   7.974  17.102  0.00  0.00    +0.000 A 
ATOM     32  C   UNL     1       6.347   6.747  17.080  0.00  0.00    +0.000 A 
ATOM     33 CL   UNL     1       5.094   6.551  15.906  0.00  0.00    +0.000 Cl
ENDBRANCH  25  26
ENDBRANCH  24  25
ENDBRANCH  23  24
ENDBRANCH   6  23
TORSDOF 7
ENDMDL
MODEL 8
REMARK VINA RESULT:      -7.3      4.986      8.992
REMARK  Name = 
REMARK  8 active torsions:
REMARK  status: ('A' for Active; 'I' for Inactive)
REMARK    1  A    between atoms: C_1  and  O_2
REMARK    2  A    between atoms: O_2  and  C_3
REMARK    3  A    between atoms: C_6  and  C_7
REMARK    4  A    between atoms: N_12  and  C_13
REMARK    5  A    between atoms: C_22  and  O_23
REMARK    6  A    between atoms: O_23  and  C_24
REMARK    7  A    between atoms: C_24  and  C_25
REMARK    8  A    between atoms: C_25  and  C_26
REMARK                            x       y       z     vdW  Elec       q    Type
REMARK                         _______ _______ _______ _____ _____    ______ ____
ROOT
ATOM      1  C   UNL     1      -1.413  10.629  18.288  0.00  0.00    +0.000 A 
ATOM      2  C   UNL     1      -1.981  11.743  18.923  0.00  0.00    +0.000 A 
ATOM      3  C   UNL     1      -1.207  12.598  19.706  0.00  0.00    +0.000 A 
ATOM      4  C   UNL     1       0.159  12.366  19.851  0.00  0.00    +0.000 A 
ATOM      5  C   UNL     1       0.734  11.245  19.241  0.00  0.00    +0.000 A 
ATOM      6  C   UNL     1      -0.027  10.398  18.420  0.00  0.00    +0.000 A 
ENDROOT
BRANCH   4   7
ATOM      7  C   UNL     1       0.918  13.288  20.732  0.00  0.00    +0.000 C 
ATOM      8  O   UNL     1       0.538  13.397  21.898  0.00  0.00    +0.000 OA
ATOM      9  N   UNL     1       2.018  13.974  20.242  0.00  0.00    +0.000 N 
ATOM     10  C   UNL     1       2.835  14.746  21.187  0.00  0.00    +0.000 C 
ATOM     11  C   UNL     1       4.338  14.580  20.892  0.00  0.00    +0.000 C 
ATOM     12  N   UNL     1       4.597  14.880  19.471  0.00  0.00    +0.000 N 
ATOM     13  C   UNL     1       3.790  14.092  18.519  0.00  0.00    +0.000 C 
ATOM     14  C   UNL     1       2.296  14.286  18.830  0.00  0.00    +0.000 C 
BRANCH  12  15
ATOM     15  C   UNL     1       5.715  15.576  19.060  0.00  0.00    +0.000 A 
ATOM     16  C   UNL     1       6.681  15.026  18.214  0.00  0.00    +0.000 A 
ATOM     17  C   UNL     1       7.812  15.763  17.887  0.00  0.00    +0.000 A 
ATOM     18  N   UNL     1       8.057  17.007  18.337  0.00  0.00    +0.000 NA
ATOM     19  C   UNL     1       7.127  17.531  19.156  0.00  0.00    +0.000 A 
ATOM     20  C   UNL     1       5.961  16.872  19.533  0.00  0.00    +0.000 A 
ENDBRANCH  12  15
ENDBRANCH   4   7
BRANCH   1  22
ATOM     21  C   UNL     1      -3.348  10.181  16.935  0.00  0.00    +0.000 C 
ATOM     22  O   UNL     1      -2.154   9.733  17.569  0.00  0.00    +0.000 OA
ENDBRANCH   1  22
BRANCH   6  23
ATOM     23  O   UNL     1       0.715   9.374  17.872  0.00  0.00    +0.000 OA
BRANCH  23  24
ATOM     24  C   UNL     1       2.040   9.170  18.379  0.00  0.00    +0.000 C 
BRANCH  24  25
ATOM     25  C   UNL     1       2.664   7.913  17.750  0.00  0.00    +0.000 C 
BRANCH  25  26
ATOM     26  C   UNL     1       2.656   6.698  18.662  0.00  0.00    +0.000 A 
ATOM     27  C   UNL     1       1.951   6.773  19.876  0.00  0.00    +0.000 A 
ATOM     28  C   UNL     1       1.902   5.679  20.745  0.00  0.00    +0.000 A 
ATOM     29  C   UNL     1       2.555   4.498  20.407  0.00  0.00    +0.000 A 
ATOM     30 CL   UNL     1       2.479   3.147  21.471  0.00  0.00    +0.000 Cl
ATOM     31  C   UNL     1       3.268   4.402  19.216  0.00  0.00    +0.000 A 
ATOM     32  C   UNL     1       3.318   5.498  18.349  0.00  0.00    +0.000 A 
ATOM     33 CL   UNL     1       4.243   5.317  16.899  0.00  0.00    +0.000 Cl
ENDBRANCH  25  26
ENDBRANCH  24  25
ENDBRANCH  23  24
ENDBRANCH   6  23
TORSDOF 7
ENDMDL
MODEL 9
REMARK VINA RESULT:      -7.2      3.820      5.756
REMARK  Name = 
REMARK  8 active torsions:
REMARK  status: ('A' for Active; 'I' for Inactive)
REMARK    1  A    between atoms: C_1  and  O_2
REMARK    2  A    between atoms: O_2  and  C_3
REMARK    3  A    between atoms: C_6  and  C_7
REMARK    4  A    between atoms: N_12  and  C_13
REMARK    5  A    between atoms: C_22  and  O_23
REMARK    6  A    between atoms: O_23  and  C_24
REMARK    7  A    between atoms: C_24  and  C_25
REMARK    8  A    between atoms: C_25  and  C_26
REMARK                            x       y       z     vdW  Elec       q    Type
REMARK                         _______ _______ _______ _____ _____    ______ ____
ROOT
ATOM      1  C   UNL     1       3.130   4.039  20.037  0.00  0.00    +0.000 A 
ATOM      2  C   UNL     1       1.825   4.555  20.016  0.00  0.00    +0.000 A 
ATOM      3  C   UNL     1       1.557   5.814  19.479  0.00  0.00    +0.000 A 
ATOM      4  C   UNL     1       2.589   6.572  18.932  0.00  0.00    +0.000 A 
ATOM      5  C   UNL     1       3.899   6.078  18.966  0.00  0.00    +0.000 A 
ATOM      6  C   UNL     1       4.175   4.797  19.470  0.00  0.00    +0.000 A 
ENDROOT
BRANCH   4   7
ATOM      7  C   UNL     1       2.244   7.919  18.414  0.00  0.00    +0.000 C 
ATOM      8  O   UNL     1       2.558   8.175  17.252  0.00  0.00    +0.000 OA
ATOM      9  N   UNL     1       1.578   8.828  19.220  0.00  0.00    +0.000 N 
ATOM     10  C   UNL     1       1.112  10.083  18.619  0.00  0.00    +0.000 C 
ATOM     11  C   UNL     1      -0.294  10.458  19.124  0.00  0.00    +0.000 C 
ATOM     12  N   UNL     1      -0.307  10.443  20.600  0.00  0.00    +0.000 N 
ATOM     13  C   UNL     1       0.143   9.176  21.207  0.00  0.00    +0.000 C 
ATOM     14  C   UNL     1       1.552   8.835  20.693  0.00  0.00    +0.000 C 
BRANCH  12  15
ATOM     15  C   UNL     1      -0.990  11.390  21.336  0.00  0.00    +0.000 A 
ATOM     16  C   UNL     1      -1.395  11.175  22.656  0.00  0.00    +0.000 A 
ATOM     17  C   UNL     1      -2.130  12.149  23.319  0.00  0.00    +0.000 A 
ATOM     18  N   UNL     1      -2.494  13.323  22.771  0.00  0.00    +0.000 NA
ATOM     19  C   UNL     1      -2.107  13.524  21.498  0.00  0.00    +0.000 A 
ATOM     20  C   UNL     1      -1.363  12.610  20.757  0.00  0.00    +0.000 A 
ENDBRANCH  12  15
ENDBRANCH   4   7
BRANCH   1  22
ATOM     21  C   UNL     1       2.560   2.305  21.601  0.00  0.00    +0.000 C 
ATOM     22  O   UNL     1       3.438   2.840  20.616  0.00  0.00    +0.000 OA
ENDBRANCH   1  22
BRANCH   6  23
ATOM     23  O   UNL     1       5.510   4.465  19.385  0.00  0.00    +0.000 OA
BRANCH  23  24
ATOM     24  C   UNL     1       6.462   5.537  19.380  0.00  0.00    +0.000 C 
BRANCH  24  25
ATOM     25  C   UNL     1       7.474   5.347  18.237  0.00  0.00    +0.000 C 
BRANCH  25  26
ATOM     26  C   UNL     1       6.833   5.086  16.885  0.00  0.00    +0.000 A 
ATOM     27  C   UNL     1       7.034   3.836  16.275  0.00  0.00    +0.000 A 
ATOM     28  C   UNL     1       6.456   3.541  15.037  0.00  0.00    +0.000 A 
ATOM     29  C   UNL     1       5.668   4.493  14.397  0.00  0.00    +0.000 A 
ATOM     30 CL   UNL     1       4.944   4.122  12.880  0.00  0.00    +0.000 Cl
ATOM     31  C   UNL     1       5.463   5.742  14.976  0.00  0.00    +0.000 A 
ATOM     32  C   UNL     1       6.044   6.037  16.213  0.00  0.00    +0.000 A 
ATOM     33 CL   UNL     1       5.767   7.616  16.860  0.00  0.00    +0.000 Cl
ENDBRANCH  25  26
ENDBRANCH  24  25
ENDBRANCH  23  24
ENDBRANCH   6  23
TORSDOF 7
ENDMDL
