MODEL 1
REMARK VINA RESULT:      -6.7      0.000      0.000
REMARK  Name = 
REMARK  5 active torsions:
REMARK  status: ('A' for Active; 'I' for Inactive)
REMARK    1  A    between atoms: O_1  and  C_2
REMARK    2  A    between atoms: C_2  and  C_3
REMARK    3  A    between atoms: C_3  and  N_4
REMARK    4  A    between atoms: C_5  and  C_6
REMARK    5  A    between atoms: N_16  and  C_17
REMARK                            x       y       z     vdW  Elec       q    Type
REMARK                         _______ _______ _______ _____ _____    ______ ____
ROOT
ATOM      1  N   UNL     1       2.363   6.910  19.898  0.00  0.00    +0.000 N 
ATOM      2  C   UNL     1       1.826   8.189  19.718  0.00  0.00    +0.000 A 
ATOM      3  C   UNL     1       2.145   8.788  18.559  0.00  0.00    +0.000 A 
ATOM      4  S   UNL     1       3.097   7.746  17.558  0.00  0.00    +0.000 S 
ATOM      5  C   UNL     1       3.226   6.517  18.870  0.00  0.00    +0.000 A 
ATOM      6  N   UNL     1       3.996   5.469  18.865  0.00  0.00    +0.000 NA
ENDROOT
BRANCH   2   7
ATOM      7  C   UNL     1       0.948   8.857  20.673  0.00  0.00    +0.000 A 
ATOM      8  C   UNL     1      -0.025   9.743  20.190  0.00  0.00    +0.000 A 
ATOM      9  C   UNL     1      -0.819  10.466  21.078  0.00  0.00    +0.000 A 
ATOM     10  C   UNL     1      -0.634  10.306  22.445  0.00  0.00    +0.000 A 
ATOM     11  F   UNL     1      -1.391  11.009  23.298  0.00  0.00    +0.000 F 
ATOM     12  C   UNL     1       0.331   9.437  22.943  0.00  0.00    +0.000 A 
ATOM     13  C   UNL     1       1.129   8.710  22.054  0.00  0.00    +0.000 A 
ENDBRANCH   2   7
BRANCH   6  14
ATOM     14  C   UNL     1       4.860   5.149  17.800  0.00  0.00    +0.000 A 
ATOM     15  C   UNL     1       6.192   5.584  17.722  0.00  0.00    +0.000 A 
ATOM     16  C   UNL     1       6.980   5.314  16.602  0.00  0.00    +0.000 A 
ATOM     17  C   UNL     1       6.470   4.512  15.594  0.00  0.00    +0.000 A 
ATOM     18  F   UNL     1       7.224   4.244  14.521  0.00  0.00    +0.000 F 
ATOM     19  C   UNL     1       5.194   3.971  15.693  0.00  0.00    +0.000 A 
ATOM     20  C   UNL     1       4.387   4.297  16.792  0.00  0.00    +0.000 A 
ENDBRANCH   6  14
BRANCH   1  21
ATOM     21  C   UNL     1       1.938   5.959  20.923  0.00  0.00    +0.000 C 
BRANCH  21  22
ATOM     22  C   UNL     1       1.175   4.773  20.342  0.00  0.00    +0.000 C 
BRANCH  22  23
ATOM     23  O   UNL     1       1.995   3.605  20.399  0.00  0.00    +0.000 OA
ATOM     24  H   UNL     1       2.860   3.842  20.023  0.00  0.00    +0.000 HD
ENDBRANCH  22  23
ENDBRANCH  21  22
ENDBRANCH   1  21
TORSDOF 5
ENDMDL
MODEL 2
REMARK VINA RESULT:      -6.7      0.199      1.020
REMARK  Name = 
REMARK  5 active torsions:
REMARK  status: ('A' for Active; 'I' for Inactive)
REMARK    1  A    between atoms: O_1  and  C_2
REMARK    2  A    between atoms: C_2  and  C_3
REMARK    3  A    between atoms: C_3  and  N_4
REMARK    4  A    between atoms: C_5  and  C_6
REMARK    5  A    between atoms: N_16  and  C_17
REMARK                            x       y       z     vdW  Elec       q    Type
REMARK                         _______ _______ _______ _____ _____    ______ ____
ROOT
ATOM      1  N   UNL     1       2.315   7.002  19.900  0.00  0.00    +0.000 N 
ATOM      2  C   UNL     1       1.750   8.273  19.747  0.00  0.00    +0.000 A 
ATOM      3  C   UNL     1       2.031   8.891  18.589  0.00  0.00    +0.000 A 
ATOM      4  S   UNL     1       2.980   7.879  17.554  0.00  0.00    +0.000 S 
ATOM      5  C   UNL     1       3.161   6.638  18.848  0.00  0.00    +0.000 A 
ATOM      6  N   UNL     1       3.951   5.605  18.813  0.00  0.00    +0.000 NA
ENDROOT
BRANCH   2   7
ATOM      7  C   UNL     1       0.880   8.912  20.730  0.00  0.00    +0.000 A 
ATOM      8  C   UNL     1      -0.114   9.792  20.280  0.00  0.00    +0.000 A 
ATOM      9  C   UNL     1      -0.900  10.490  21.194  0.00  0.00    +0.000 A 
ATOM     10  C   UNL     1      -0.687  10.310  22.555  0.00  0.00    +0.000 A 
ATOM     11  F   UNL     1      -1.437  10.989  23.434  0.00  0.00    +0.000 F 
ATOM     12  C   UNL     1       0.300   9.447  23.020  0.00  0.00    +0.000 A 
ATOM     13  C   UNL     1       1.091   8.746  22.105  0.00  0.00    +0.000 A 
ENDBRANCH   2   7
BRANCH   6  14
ATOM     14  C   UNL     1       4.797   5.314  17.726  0.00  0.00    +0.000 A 
ATOM     15  C   UNL     1       4.444   4.452  16.676  0.00  0.00    +0.000 A 
ATOM     16  C   UNL     1       5.353   4.127  15.667  0.00  0.00    +0.000 A 
ATOM     17  C   UNL     1       6.591   4.749  15.646  0.00  0.00    +0.000 A 
ATOM     18  F   UNL     1       7.463   4.445  14.676  0.00  0.00    +0.000 F 
ATOM     19  C   UNL     1       6.928   5.692  16.607  0.00  0.00    +0.000 A 
ATOM     20  C   UNL     1       6.035   5.969  17.651  0.00  0.00    +0.000 A 
ENDBRANCH   6  14
BRANCH   1  21
ATOM     21  C   UNL     1       1.931   6.031  20.923  0.00  0.00    +0.000 C 
BRANCH  21  22
ATOM     22  C   UNL     1       1.130   4.866  20.353  0.00  0.00    +0.000 C 
BRANCH  22  23
ATOM     23  O   UNL     1       1.963   3.708  20.273  0.00  0.00    +0.000 OA
ATOM     24  H   UNL     1       2.805   3.987  19.875  0.00  0.00    +0.000 HD
ENDBRANCH  22  23
ENDBRANCH  21  22
ENDBRANCH   1  21
TORSDOF 5
ENDMDL
MODEL 3
REMARK VINA RESULT:      -6.6      2.510      3.388
REMARK  Name = 
REMARK  5 active torsions:
REMARK  status: ('A' for Active; 'I' for Inactive)
REMARK    1  A    between atoms: O_1  and  C_2
REMARK    2  A    between atoms: C_2  and  C_3
REMARK    3  A    between atoms: C_3  and  N_4
REMARK    4  A    between atoms: C_5  and  C_6
REMARK    5  A    between atoms: N_16  and  C_17
REMARK                            x       y       z     vdW  Elec       q    Type
REMARK                         _______ _______ _______ _____ _____    ______ ____
ROOT
ATOM      1  N   UNL     1       1.107   8.979  20.174  0.00  0.00    +0.000 N 
ATOM      2  C   UNL     1       1.021  10.190  19.477  0.00  0.00    +0.000 A 
ATOM      3  C   UNL     1       1.524  10.174  18.233  0.00  0.00    +0.000 A 
ATOM      4  S   UNL     1       2.087   8.593  17.806  0.00  0.00    +0.000 S 
ATOM      5  C   UNL     1       1.798   7.982  19.477  0.00  0.00    +0.000 A 
ATOM      6  N   UNL     1       2.181   6.833  19.949  0.00  0.00    +0.000 NA
ENDROOT
BRANCH   2   7
ATOM      7  C   UNL     1       0.405  11.403  20.006  0.00  0.00    +0.000 A 
ATOM      8  C   UNL     1       1.210  12.322  20.694  0.00  0.00    +0.000 A 
ATOM      9  C   UNL     1       0.639  13.445  21.290  0.00  0.00    +0.000 A 
ATOM     10  C   UNL     1      -0.733  13.643  21.202  0.00  0.00    +0.000 A 
ATOM     11  F   UNL     1      -1.282  14.717  21.784  0.00  0.00    +0.000 F 
ATOM     12  C   UNL     1      -1.547  12.738  20.529  0.00  0.00    +0.000 A 
ATOM     13  C   UNL     1      -0.978  11.610  19.931  0.00  0.00    +0.000 A 
ENDBRANCH   2   7
BRANCH   6  14
ATOM     14  C   UNL     1       2.897   5.886  19.193  0.00  0.00    +0.000 A 
ATOM     15  C   UNL     1       4.290   5.724  19.268  0.00  0.00    +0.000 A 
ATOM     16  C   UNL     1       4.963   4.832  18.431  0.00  0.00    +0.000 A 
ATOM     17  C   UNL     1       4.230   4.015  17.584  0.00  0.00    +0.000 A 
ATOM     18  F   UNL     1       4.871   3.153  16.785  0.00  0.00    +0.000 F 
ATOM     19  C   UNL     1       2.843   4.071  17.568  0.00  0.00    +0.000 A 
ATOM     20  C   UNL     1       2.177   5.012  18.366  0.00  0.00    +0.000 A 
ENDBRANCH   6  14
BRANCH   1  21
ATOM     21  C   UNL     1       0.387   8.669  21.407  0.00  0.00    +0.000 C 
BRANCH  21  22
ATOM     22  C   UNL     1       1.112   9.170  22.651  0.00  0.00    +0.000 C 
BRANCH  22  23
ATOM     23  O   UNL     1       0.210   9.933  23.454  0.00  0.00    +0.000 OA
ATOM     24  H   UNL     1       0.735  10.350  24.159  0.00  0.00    +0.000 HD
ENDBRANCH  22  23
ENDBRANCH  21  22
ENDBRANCH   1  21
TORSDOF 5
ENDMDL
MODEL 4
REMARK VINA RESULT:      -6.5      0.189      1.027
REMARK  Name = 
REMARK  5 active torsions:
REMARK  status: ('A' for Active; 'I' for Inactive)
REMARK    1  A    between atoms: O_1  and  C_2
REMARK    2  A    between atoms: C_2  and  C_3
REMARK    3  A    between atoms: C_3  and  N_4
REMARK    4  A    between atoms: C_5  and  C_6
REMARK    5  A    between atoms: N_16  and  C_17
REMARK                            x       y       z     vdW  Elec       q    Type
REMARK                         _______ _______ _______ _____ _____    ______ ____
ROOT
ATOM      1  N   UNL     1       2.330   6.954  19.936  0.00  0.00    +0.000 N 
ATOM      2  C   UNL     1       1.853   8.253  19.726  0.00  0.00    +0.000 A 
ATOM      3  C   UNL     1       2.207   8.814  18.559  0.00  0.00    +0.000 A 
ATOM      4  S   UNL     1       3.117   7.710  17.585  0.00  0.00    +0.000 S 
ATOM      5  C   UNL     1       3.180   6.502  18.921  0.00  0.00    +0.000 A 
ATOM      6  N   UNL     1       3.902   5.420  18.942  0.00  0.00    +0.000 NA
ENDROOT
BRANCH   2   7
ATOM      7  C   UNL     1       1.000   8.979  20.662  0.00  0.00    +0.000 A 
ATOM      8  C   UNL     1       1.206   8.803  22.038  0.00  0.00    +0.000 A 
ATOM      9  C   UNL     1       0.352   9.408  22.958  0.00  0.00    +0.000 A 
ATOM     10  C   UNL     1      -0.708  10.181  22.501  0.00  0.00    +0.000 A 
ATOM     11  F   UNL     1      -1.534  10.754  23.386  0.00  0.00    +0.000 F 
ATOM     12  C   UNL     1      -0.932  10.360  21.140  0.00  0.00    +0.000 A 
ATOM     13  C   UNL     1      -0.077   9.754  20.214  0.00  0.00    +0.000 A 
ENDBRANCH   2   7
BRANCH   6  14
ATOM     14  C   UNL     1       4.757   5.041  17.890  0.00  0.00    +0.000 A 
ATOM     15  C   UNL     1       6.138   5.293  17.881  0.00  0.00    +0.000 A 
ATOM     16  C   UNL     1       6.927   4.976  16.774  0.00  0.00    +0.000 A 
ATOM     17  C   UNL     1       6.355   4.303  15.707  0.00  0.00    +0.000 A 
ATOM     18  F   UNL     1       7.109   3.990  14.645  0.00  0.00    +0.000 F 
ATOM     19  C   UNL     1       5.015   3.938  15.733  0.00  0.00    +0.000 A 
ATOM     20  C   UNL     1       4.215   4.313  16.820  0.00  0.00    +0.000 A 
ENDBRANCH   6  14
BRANCH   1  21
ATOM     21  C   UNL     1       1.854   6.043  20.975  0.00  0.00    +0.000 C 
BRANCH  21  22
ATOM     22  C   UNL     1       1.137   4.826  20.403  0.00  0.00    +0.000 C 
BRANCH  22  23
ATOM     23  O   UNL     1       1.931   3.658  20.622  0.00  0.00    +0.000 OA
ATOM     24  H   UNL     1       1.345   2.888  20.516  0.00  0.00    +0.000 HD
ENDBRANCH  22  23
ENDBRANCH  21  22
ENDBRANCH   1  21
TORSDOF 5
ENDMDL
MODEL 5
REMARK VINA RESULT:      -6.5      2.418      3.268
REMARK  Name = 
REMARK  5 active torsions:
REMARK  status: ('A' for Active; 'I' for Inactive)
REMARK    1  A    between atoms: O_1  and  C_2
REMARK    2  A    between atoms: C_2  and  C_3
REMARK    3  A    between atoms: C_3  and  N_4
REMARK    4  A    between atoms: C_5  and  C_6
REMARK    5  A    between atoms: N_16  and  C_17
REMARK                            x       y       z     vdW  Elec       q    Type
REMARK                         _______ _______ _______ _____ _____    ______ ____
ROOT
ATOM      1  N   UNL     1       1.060   8.948  20.209  0.00  0.00    +0.000 N 
ATOM      2  C   UNL     1       1.025  10.178  19.544  0.00  0.00    +0.000 A 
ATOM      3  C   UNL     1       1.585  10.188  18.324  0.00  0.00    +0.000 A 
ATOM      4  S   UNL     1       2.142   8.610  17.879  0.00  0.00    +0.000 S 
ATOM      5  C   UNL     1       1.768   7.959  19.516  0.00  0.00    +0.000 A 
ATOM      6  N   UNL     1       2.111   6.791  19.973  0.00  0.00    +0.000 NA
ENDROOT
BRANCH   2   7
ATOM      7  C   UNL     1       0.404  11.386  20.078  0.00  0.00    +0.000 A 
ATOM      8  C   UNL     1      -0.960  11.604  19.842  0.00  0.00    +0.000 A 
ATOM      9  C   UNL     1      -1.564  12.789  20.258  0.00  0.00    +0.000 A 
ATOM     10  C   UNL     1      -0.801  13.755  20.902  0.00  0.00    +0.000 A 
ATOM     11  F   UNL     1      -1.380  14.898  21.292  0.00  0.00    +0.000 F 
ATOM     12  C   UNL     1       0.556  13.559  21.138  0.00  0.00    +0.000 A 
ATOM     13  C   UNL     1       1.164  12.371  20.722  0.00  0.00    +0.000 A 
ENDBRANCH   2   7
BRANCH   6  14
ATOM     14  C   UNL     1       2.847   5.854  19.224  0.00  0.00    +0.000 A 
ATOM     15  C   UNL     1       4.233   5.669  19.354  0.00  0.00    +0.000 A 
ATOM     16  C   UNL     1       4.930   4.789  18.524  0.00  0.00    +0.000 A 
ATOM     17  C   UNL     1       4.224   4.006  17.626  0.00  0.00    +0.000 A 
ATOM     18  F   UNL     1       4.887   3.155  16.832  0.00  0.00    +0.000 F 
ATOM     19  C   UNL     1       2.839   4.082  17.551  0.00  0.00    +0.000 A 
ATOM     20  C   UNL     1       2.152   5.011  18.344  0.00  0.00    +0.000 A 
ENDBRANCH   6  14
BRANCH   1  21
ATOM     21  C   UNL     1       0.280   8.615  21.399  0.00  0.00    +0.000 C 
BRANCH  21  22
ATOM     22  C   UNL     1       0.788   9.323  22.650  0.00  0.00    +0.000 C 
BRANCH  22  23
ATOM     23  O   UNL     1       2.211   9.217  22.713  0.00  0.00    +0.000 OA
ATOM     24  H   UNL     1       2.494   9.630  23.547  0.00  0.00    +0.000 HD
ENDBRANCH  22  23
ENDBRANCH  21  22
ENDBRANCH   1  21
TORSDOF 5
ENDMDL
MODEL 6
REMARK VINA RESULT:      -6.4      2.592      3.524
REMARK  Name = 
REMARK  5 active torsions:
REMARK  status: ('A' for Active; 'I' for Inactive)
REMARK    1  A    between atoms: O_1  and  C_2
REMARK    2  A    between atoms: C_2  and  C_3
REMARK    3  A    between atoms: C_3  and  N_4
REMARK    4  A    between atoms: C_5  and  C_6
REMARK    5  A    between atoms: N_16  and  C_17
REMARK                            x       y       z     vdW  Elec       q    Type
REMARK                         _______ _______ _______ _____ _____    ______ ____
ROOT
ATOM      1  N   UNL     1       1.098   8.999  20.212  0.00  0.00    +0.000 N 
ATOM      2  C   UNL     1       1.039  10.231  19.552  0.00  0.00    +0.000 A 
ATOM      3  C   UNL     1       1.519  10.235  18.298  0.00  0.00    +0.000 A 
ATOM      4  S   UNL     1       2.019   8.649  17.816  0.00  0.00    +0.000 S 
ATOM      5  C   UNL     1       1.741   8.000  19.474  0.00  0.00    +0.000 A 
ATOM      6  N   UNL     1       2.094   6.826  19.905  0.00  0.00    +0.000 NA
ENDROOT
BRANCH   2   7
ATOM      7  C   UNL     1       0.475  11.449  20.127  0.00  0.00    +0.000 A 
ATOM      8  C   UNL     1      -0.892  11.705  19.955  0.00  0.00    +0.000 A 
ATOM      9  C   UNL     1      -1.445  12.900  20.411  0.00  0.00    +0.000 A 
ATOM     10  C   UNL     1      -0.629  13.837  21.032  0.00  0.00    +0.000 A 
ATOM     11  F   UNL     1      -1.159  14.990  21.461  0.00  0.00    +0.000 F 
ATOM     12  C   UNL     1       0.732  13.603  21.205  0.00  0.00    +0.000 A 
ATOM     13  C   UNL     1       1.289  12.405  20.748  0.00  0.00    +0.000 A 
ENDBRANCH   2   7
BRANCH   6  14
ATOM     14  C   UNL     1       2.764   5.878  19.108  0.00  0.00    +0.000 A 
ATOM     15  C   UNL     1       2.118   5.052  18.175  0.00  0.00    +0.000 A 
ATOM     16  C   UNL     1       2.815   4.065  17.474  0.00  0.00    +0.000 A 
ATOM     17  C   UNL     1       4.189   3.971  17.625  0.00  0.00    +0.000 A 
ATOM     18  F   UNL     1       4.863   3.032  16.950  0.00  0.00    +0.000 F 
ATOM     19  C   UNL     1       4.874   4.849  18.456  0.00  0.00    +0.000 A 
ATOM     20  C   UNL     1       4.161   5.796  19.203  0.00  0.00    +0.000 A 
ENDBRANCH   6  14
BRANCH   1  21
ATOM     21  C   UNL     1       0.391   8.676  21.450  0.00  0.00    +0.000 C 
BRANCH  21  22
ATOM     22  C   UNL     1       1.124   9.176  22.690  0.00  0.00    +0.000 C 
BRANCH  22  23
ATOM     23  O   UNL     1       0.234   9.960  23.487  0.00  0.00    +0.000 OA
ATOM     24  H   UNL     1       0.551  10.879  23.452  0.00  0.00    +0.000 HD
ENDBRANCH  22  23
ENDBRANCH  21  22
ENDBRANCH   1  21
TORSDOF 5
ENDMDL
MODEL 7
REMARK VINA RESULT:      -6.4      0.227      1.438
REMARK  Name = 
REMARK  5 active torsions:
REMARK  status: ('A' for Active; 'I' for Inactive)
REMARK    1  A    between atoms: O_1  and  C_2
REMARK    2  A    between atoms: C_2  and  C_3
REMARK    3  A    between atoms: C_3  and  N_4
REMARK    4  A    between atoms: C_5  and  C_6
REMARK    5  A    between atoms: N_16  and  C_17
REMARK                            x       y       z     vdW  Elec       q    Type
REMARK                         _______ _______ _______ _____ _____    ______ ____
ROOT
ATOM      1  N   UNL     1       2.310   7.110  19.889  0.00  0.00    +0.000 N 
ATOM      2  C   UNL     1       1.777   8.391  19.706  0.00  0.00    +0.000 A 
ATOM      3  C   UNL     1       2.068   8.972  18.531  0.00  0.00    +0.000 A 
ATOM      4  S   UNL     1       2.985   7.909  17.518  0.00  0.00    +0.000 S 
ATOM      5  C   UNL     1       3.141   6.697  18.843  0.00  0.00    +0.000 A 
ATOM      6  N   UNL     1       3.904   5.644  18.831  0.00  0.00    +0.000 NA
ENDROOT
BRANCH   2   7
ATOM      7  C   UNL     1       0.930   9.078  20.676  0.00  0.00    +0.000 A 
ATOM      8  C   UNL     1       1.155   8.859  22.042  0.00  0.00    +0.000 A 
ATOM      9  C   UNL     1       0.308   9.426  22.993  0.00  0.00    +0.000 A 
ATOM     10  C   UNL     1      -0.764  10.204  22.576  0.00  0.00    +0.000 A 
ATOM     11  F   UNL     1      -1.583  10.740  23.490  0.00  0.00    +0.000 F 
ATOM     12  C   UNL     1      -1.007  10.426  21.224  0.00  0.00    +0.000 A 
ATOM     13  C   UNL     1      -0.159   9.858  20.268  0.00  0.00    +0.000 A 
ENDBRANCH   2   7
BRANCH   6  14
ATOM     14  C   UNL     1       4.736   5.304  17.747  0.00  0.00    +0.000 A 
ATOM     15  C   UNL     1       4.365   4.405  16.735  0.00  0.00    +0.000 A 
ATOM     16  C   UNL     1       5.261   4.032  15.731  0.00  0.00    +0.000 A 
ATOM     17  C   UNL     1       6.504   4.642  15.673  0.00  0.00    +0.000 A 
ATOM     18  F   UNL     1       7.364   4.293  14.708  0.00  0.00    +0.000 F 
ATOM     19  C   UNL     1       6.859   5.619  16.594  0.00  0.00    +0.000 A 
ATOM     20  C   UNL     1       5.979   5.944  17.635  0.00  0.00    +0.000 A 
ENDBRANCH   6  14
BRANCH   1  21
ATOM     21  C   UNL     1       1.907   6.176  20.938  0.00  0.00    +0.000 C 
BRANCH  21  22
ATOM     22  C   UNL     1       1.176   4.957  20.388  0.00  0.00    +0.000 C 
BRANCH  22  23
ATOM     23  O   UNL     1       2.021   3.809  20.490  0.00  0.00    +0.000 OA
ATOM     24  H   UNL     1       2.817   4.080  20.978  0.00  0.00    +0.000 HD
ENDBRANCH  22  23
ENDBRANCH  21  22
ENDBRANCH   1  21
TORSDOF 5
ENDMDL
MODEL 8
REMARK VINA RESULT:      -6.4      2.562      3.576
REMARK  Name = 
REMARK  5 active torsions:
REMARK  status: ('A' for Active; 'I' for Inactive)
REMARK    1  A    between atoms: O_1  and  C_2
REMARK    2  A    between atoms: C_2  and  C_3
REMARK    3  A    between atoms: C_3  and  N_4
REMARK    4  A    between atoms: C_5  and  C_6
REMARK    5  A    between atoms: N_16  and  C_17
REMARK                            x       y       z     vdW  Elec       q    Type
REMARK                         _______ _______ _______ _____ _____    ______ ____
ROOT
ATOM      1  N   UNL     1       1.107   9.044  20.184  0.00  0.00    +0.000 N 
ATOM      2  C   UNL     1       1.048  10.265  19.504  0.00  0.00    +0.000 A 
ATOM      3  C   UNL     1       1.517  10.246  18.246  0.00  0.00    +0.000 A 
ATOM      4  S   UNL     1       2.008   8.651  17.786  0.00  0.00    +0.000 S 
ATOM      5  C   UNL     1       1.741   8.031  19.457  0.00  0.00    +0.000 A 
ATOM      6  N   UNL     1       2.093   6.862  19.905  0.00  0.00    +0.000 NA
ENDROOT
BRANCH   2   7
ATOM      7  C   UNL     1       0.493  11.494  20.063  0.00  0.00    +0.000 A 
ATOM      8  C   UNL     1       1.361  12.411  20.671  0.00  0.00    +0.000 A 
ATOM      9  C   UNL     1       0.855  13.549  21.295  0.00  0.00    +0.000 A 
ATOM     10  C   UNL     1      -0.517  13.765  21.315  0.00  0.00    +0.000 A 
ATOM     11  F   UNL     1      -1.003  14.855  21.924  0.00  0.00    +0.000 F 
ATOM     12  C   UNL     1      -1.394  12.863  20.722  0.00  0.00    +0.000 A 
ATOM     13  C   UNL     1      -0.890  11.720  20.096  0.00  0.00    +0.000 A 
ENDBRANCH   2   7
BRANCH   6  14
ATOM     14  C   UNL     1       2.753   5.899  19.119  0.00  0.00    +0.000 A 
ATOM     15  C   UNL     1       2.093   5.040  18.227  0.00  0.00    +0.000 A 
ATOM     16  C   UNL     1       2.783   4.041  17.537  0.00  0.00    +0.000 A 
ATOM     17  C   UNL     1       4.161   3.965  17.656  0.00  0.00    +0.000 A 
ATOM     18  F   UNL     1       4.828   3.013  16.991  0.00  0.00    +0.000 F 
ATOM     19  C   UNL     1       4.857   4.873  18.444  0.00  0.00    +0.000 A 
ATOM     20  C   UNL     1       4.153   5.834  19.181  0.00  0.00    +0.000 A 
ENDBRANCH   6  14
BRANCH   1  21
ATOM     21  C   UNL     1       0.409   8.745  21.433  0.00  0.00    +0.000 C 
BRANCH  21  22
ATOM     22  C   UNL     1       1.190   9.193  22.663  0.00  0.00    +0.000 C 
BRANCH  22  23
ATOM     23  O   UNL     1       0.299   9.809  23.595  0.00  0.00    +0.000 OA
ATOM     24  H   UNL     1       0.495   9.431  24.470  0.00  0.00    +0.000 HD
ENDBRANCH  22  23
ENDBRANCH  21  22
ENDBRANCH   1  21
TORSDOF 5
ENDMDL
MODEL 9
REMARK VINA RESULT:      -6.4      3.144      4.186
REMARK  Name = 
REMARK  5 active torsions:
REMARK  status: ('A' for Active; 'I' for Inactive)
REMARK    1  A    between atoms: O_1  and  C_2
REMARK    2  A    between atoms: C_2  and  C_3
REMARK    3  A    between atoms: C_3  and  N_4
REMARK    4  A    between atoms: C_5  and  C_6
REMARK    5  A    between atoms: N_16  and  C_17
REMARK                            x       y       z     vdW  Elec       q    Type
REMARK                         _______ _______ _______ _____ _____    ______ ____
ROOT
ATOM      1  N   UNL     1       1.116   8.925  19.947  0.00  0.00    +0.000 N 
ATOM      2  C   UNL     1       1.302   9.871  18.934  0.00  0.00    +0.000 A 
ATOM      3  C   UNL     1       1.930   9.422  17.836  0.00  0.00    +0.000 A 
ATOM      4  S   UNL     1       2.276   7.730  17.962  0.00  0.00    +0.000 S 
ATOM      5  C   UNL     1       1.712   7.689  19.673  0.00  0.00    +0.000 A 
ATOM      6  N   UNL     1       1.852   6.697  20.502  0.00  0.00    +0.000 NA
ENDROOT
BRANCH   2   7
ATOM      7  C   UNL     1       0.834  11.252  18.999  0.00  0.00    +0.000 A 
ATOM      8  C   UNL     1      -0.473  11.542  18.581  0.00  0.00    +0.000 A 
ATOM      9  C   UNL     1      -0.921  12.861  18.544  0.00  0.00    +0.000 A 
ATOM     10  C   UNL     1      -0.062  13.886  18.919  0.00  0.00    +0.000 A 
ATOM     11  F   UNL     1      -0.491  15.154  18.874  0.00  0.00    +0.000 F 
ATOM     12  C   UNL     1       1.240  13.617  19.330  0.00  0.00    +0.000 A 
ATOM     13  C   UNL     1       1.693  12.295  19.368  0.00  0.00    +0.000 A 
ENDBRANCH   2   7
BRANCH   6  14
ATOM     14  C   UNL     1       2.487   5.488  20.161  0.00  0.00    +0.000 A 
ATOM     15  C   UNL     1       3.817   5.405  19.719  0.00  0.00    +0.000 A 
ATOM     16  C   UNL     1       4.371   4.192  19.308  0.00  0.00    +0.000 A 
ATOM     17  C   UNL     1       3.628   3.030  19.438  0.00  0.00    +0.000 A 
ATOM     18  F   UNL     1       4.158   1.863  19.052  0.00  0.00    +0.000 F 
ATOM     19  C   UNL     1       2.348   3.062  19.978  0.00  0.00    +0.000 A 
ATOM     20  C   UNL     1       1.775   4.291  20.332  0.00  0.00    +0.000 A 
ENDBRANCH   6  14
BRANCH   1  21
ATOM     21  C   UNL     1       0.224   9.088  21.094  0.00  0.00    +0.000 C 
BRANCH  21  22
ATOM     22  C   UNL     1       0.975   9.433  22.375  0.00  0.00    +0.000 C 
BRANCH  22  23
ATOM     23  O   UNL     1       0.123  10.190  23.237  0.00  0.00    +0.000 OA
ATOM     24  H   UNL     1       0.577  10.266  24.095  0.00  0.00    +0.000 HD
ENDBRANCH  22  23
ENDBRANCH  21  22
ENDBRANCH   1  21
TORSDOF 5
ENDMDL
