MODEL 1
REMARK VINA RESULT:     -10.2      0.000      0.000
REMARK  Name = 
REMARK  6 active torsions:
REMARK  status: ('A' for Active; 'I' for Inactive)
REMARK    1  A    between atoms: C_2  and  C_11
REMARK    2  A    between atoms: N_3  and  C_4
REMARK    3  A    between atoms: C_15  and  N_16
REMARK    4  A    between atoms: C_21  and  N_22
REMARK    5  A    between atoms: N_22  and  C_23
REMARK    6  A    between atoms: C_27  and  C_28
REMARK                            x       y       z     vdW  Elec       q    Type
REMARK                         _______ _______ _______ _____ _____    ______ ____
ROOT
ATOM      1  N   UNL     1       4.939   3.370  18.542  0.00  0.00    +0.000 N 
ATOM      2  C   UNL     1       3.846   3.549  19.393  0.00  0.00    +0.000 A 
ATOM      3  N   UNL     1       3.373   2.473  20.032  0.00  0.00    +0.000 NA
ATOM      4  C   UNL     1       2.357   2.687  20.892  0.00  0.00    +0.000 A 
ATOM      5  C   UNL     1       1.826   3.928  21.161  0.00  0.00    +0.000 A 
ATOM      6  C   UNL     1       2.397   4.987  20.494  0.00  0.00    +0.000 A 
ATOM      7  N   UNL     1       3.370   4.780  19.602  0.00  0.00    +0.000 NA
ATOM      8  H   UNL     1       5.385   2.487  18.728  0.00  0.00    +0.000 HD
ENDROOT
BRANCH   1  13
ATOM      9  C   UNL     1       7.040   6.253  17.414  0.00  0.00    +0.000 A 
ATOM     10  C   UNL     1       7.059   6.050  16.036  0.00  0.00    +0.000 A 
ATOM     11  C   UNL     1       6.334   4.984  15.496  0.00  0.00    +0.000 A 
ATOM     12  C   UNL     1       5.617   4.117  16.331  0.00  0.00    +0.000 A 
ATOM     13  C   UNL     1       5.597   4.296  17.719  0.00  0.00    +0.000 A 
ATOM     14  C   UNL     1       6.307   5.386  18.239  0.00  0.00    +0.000 A 
BRANCH   9  16
ATOM     15  O   UNL     1       8.474   6.994  19.092  0.00  0.00    +0.000 OA
ATOM     16  C   UNL     1       7.849   7.304  18.083  0.00  0.00    +0.000 C 
ATOM     17  N   UNL     1       7.767   8.574  17.537  0.00  0.00    +0.000 N 
ATOM     18  H   UNL     1       7.064   8.725  16.826  0.00  0.00    +0.000 HD
BRANCH  17  19
ATOM     19  C   UNL     1       8.409   9.722  18.053  0.00  0.00    +0.000 A 
ATOM     20  C   UNL     1       9.256   9.691  19.166  0.00  0.00    +0.000 A 
ATOM     21  C   UNL     1       9.801  10.868  19.684  0.00  0.00    +0.000 A 
ATOM     22  C   UNL     1       9.510  12.086  19.081  0.00  0.00    +0.000 A 
ATOM     23 CL   UNL     1      10.137  13.541  19.749  0.00  0.00    +0.000 Cl
ATOM     24  C   UNL     1       8.705  12.130  17.945  0.00  0.00    +0.000 A 
ATOM     25  C   UNL     1       8.163  10.948  17.426  0.00  0.00    +0.000 A 
ENDBRANCH  17  19
ENDBRANCH   9  16
ENDBRANCH   1  13
BRANCH   6  26
ATOM     26  N   UNL     1       2.009   6.302  20.823  0.00  0.00    +0.000 N 
ATOM     27  H   UNL     1       1.299   6.315  21.545  0.00  0.00    +0.000 HD
BRANCH  26  28
ATOM     28  C   UNL     1       1.963   7.438  19.979  0.00  0.00    +0.000 A 
ATOM     29  C   UNL     1       2.483   7.348  18.681  0.00  0.00    +0.000 A 
ATOM     30  C   UNL     1       2.335   8.397  17.767  0.00  0.00    +0.000 A 
ATOM     31  C   UNL     1       1.652   9.557  18.132  0.00  0.00    +0.000 A 
ATOM     32  C   UNL     1       1.113   9.677  19.416  0.00  0.00    +0.000 A 
ATOM     33  C   UNL     1       1.268   8.610  20.317  0.00  0.00    +0.000 A 
BRANCH  32  34
ATOM     34  C   UNL     1       0.352  10.904  19.840  0.00  0.00    +0.000 C 
ATOM     35  F   UNL     1       0.859  11.500  20.956  0.00  0.00    +0.000 F 
ATOM     36  F   UNL     1       0.353  11.877  18.881  0.00  0.00    +0.000 F 
ATOM     37  F   UNL     1      -0.962  10.669  20.120  0.00  0.00    +0.000 F 
ENDBRANCH  32  34
ENDBRANCH  26  28
ENDBRANCH   6  26
TORSDOF 6
ENDMDL
MODEL 2
REMARK VINA RESULT:     -10.2      0.479      1.175
REMARK  Name = 
REMARK  6 active torsions:
REMARK  status: ('A' for Active; 'I' for Inactive)
REMARK    1  A    between atoms: C_2  and  C_11
REMARK    2  A    between atoms: N_3  and  C_4
REMARK    3  A    between atoms: C_15  and  N_16
REMARK    4  A    between atoms: C_21  and  N_22
REMARK    5  A    between atoms: N_22  and  C_23
REMARK    6  A    between atoms: C_27  and  C_28
REMARK                            x       y       z     vdW  Elec       q    Type
REMARK                         _______ _______ _______ _____ _____    ______ ____
ROOT
ATOM      1  N   UNL     1       4.579   3.265  18.099  0.00  0.00    +0.000 N 
ATOM      2  C   UNL     1       3.543   3.540  18.995  0.00  0.00    +0.000 A 
ATOM      3  N   UNL     1       2.914   2.501  19.556  0.00  0.00    +0.000 NA
ATOM      4  C   UNL     1       1.961   2.796  20.461  0.00  0.00    +0.000 A 
ATOM      5  C   UNL     1       1.640   4.077  20.849  0.00  0.00    +0.000 A 
ATOM      6  C   UNL     1       2.362   5.086  20.256  0.00  0.00    +0.000 A 
ATOM      7  N   UNL     1       3.274   4.807  19.321  0.00  0.00    +0.000 NA
ATOM      8  H   UNL     1       4.881   2.309  18.196  0.00  0.00    +0.000 HD
ENDROOT
BRANCH   1  13
ATOM      9  C   UNL     1       6.913   6.033  17.157  0.00  0.00    +0.000 A 
ATOM     10  C   UNL     1       7.076   5.796  15.793  0.00  0.00    +0.000 A 
ATOM     11  C   UNL     1       6.370   4.748  15.196  0.00  0.00    +0.000 A 
ATOM     12  C   UNL     1       5.529   3.931  15.963  0.00  0.00    +0.000 A 
ATOM     13  C   UNL     1       5.363   4.144  17.337  0.00  0.00    +0.000 A 
ATOM     14  C   UNL     1       6.057   5.216  17.911  0.00  0.00    +0.000 A 
BRANCH   9  16
ATOM     15  O   UNL     1       8.288   6.723  18.904  0.00  0.00    +0.000 OA
ATOM     16  C   UNL     1       7.688   7.066  17.891  0.00  0.00    +0.000 C 
ATOM     17  N   UNL     1       7.603   8.356  17.395  0.00  0.00    +0.000 N 
ATOM     18  H   UNL     1       6.918   8.527  16.670  0.00  0.00    +0.000 HD
BRANCH  17  19
ATOM     19  C   UNL     1       8.213   9.491  17.976  0.00  0.00    +0.000 A 
ATOM     20  C   UNL     1       8.134  10.772  17.419  0.00  0.00    +0.000 A 
ATOM     21  C   UNL     1       8.823  11.844  17.990  0.00  0.00    +0.000 A 
ATOM     22  C   UNL     1       9.588  11.642  19.133  0.00  0.00    +0.000 A 
ATOM     23 CL   UNL     1      10.479  12.949  19.806  0.00  0.00    +0.000 Cl
ATOM     24  C   UNL     1       9.641  10.383  19.725  0.00  0.00    +0.000 A 
ATOM     25  C   UNL     1       8.946   9.310  19.153  0.00  0.00    +0.000 A 
ENDBRANCH  17  19
ENDBRANCH   9  16
ENDBRANCH   1  13
BRANCH   6  26
ATOM     26  N   UNL     1       2.195   6.413  20.706  0.00  0.00    +0.000 N 
ATOM     27  H   UNL     1       1.749   6.448  21.613  0.00  0.00    +0.000 HD
BRANCH  26  28
ATOM     28  C   UNL     1       1.974   7.578  19.932  0.00  0.00    +0.000 A 
ATOM     29  C   UNL     1       2.443   7.623  18.612  0.00  0.00    +0.000 A 
ATOM     30  C   UNL     1       2.128   8.693  17.768  0.00  0.00    +0.000 A 
ATOM     31  C   UNL     1       1.327   9.738  18.225  0.00  0.00    +0.000 A 
ATOM     32  C   UNL     1       0.835   9.722  19.534  0.00  0.00    +0.000 A 
ATOM     33  C   UNL     1       1.158   8.635  20.365  0.00  0.00    +0.000 A 
BRANCH  32  34
ATOM     34  C   UNL     1      -0.050  10.821  20.058  0.00  0.00    +0.000 C 
ATOM     35  F   UNL     1      -1.350  10.707  19.662  0.00  0.00    +0.000 F 
ATOM     36  F   UNL     1      -0.091  10.853  21.423  0.00  0.00    +0.000 F 
ATOM     37  F   UNL     1       0.337  12.071  19.674  0.00  0.00    +0.000 F 
ENDBRANCH  32  34
ENDBRANCH  26  28
ENDBRANCH   6  26
TORSDOF 6
ENDMDL
MODEL 3
REMARK VINA RESULT:      -9.7      4.244      7.783
REMARK  Name = 
REMARK  6 active torsions:
REMARK  status: ('A' for Active; 'I' for Inactive)
REMARK    1  A    between atoms: C_2  and  C_11
REMARK    2  A    between atoms: N_3  and  C_4
REMARK    3  A    between atoms: C_15  and  N_16
REMARK    4  A    between atoms: C_21  and  N_22
REMARK    5  A    between atoms: N_22  and  C_23
REMARK    6  A    between atoms: C_27  and  C_28
REMARK                            x       y       z     vdW  Elec       q    Type
REMARK                         _______ _______ _______ _____ _____    ______ ____
ROOT
ATOM      1  N   UNL     1       1.830   6.115  20.636  0.00  0.00    +0.000 N 
ATOM      2  C   UNL     1       2.500   4.896  20.505  0.00  0.00    +0.000 A 
ATOM      3  N   UNL     1       2.351   3.997  21.485  0.00  0.00    +0.000 NA
ATOM      4  C   UNL     1       2.960   2.809  21.303  0.00  0.00    +0.000 A 
ATOM      5  C   UNL     1       3.674   2.475  20.174  0.00  0.00    +0.000 A 
ATOM      6  C   UNL     1       3.743   3.440  19.197  0.00  0.00    +0.000 A 
ATOM      7  N   UNL     1       3.186   4.640  19.388  0.00  0.00    +0.000 NA
ATOM      8  H   UNL     1       1.114   6.046  21.340  0.00  0.00    +0.000 HD
ENDROOT
BRANCH   1  13
ATOM      9  C   UNL     1       1.327   9.595  19.357  0.00  0.00    +0.000 A 
ATOM     10  C   UNL     1       2.047   9.551  18.165  0.00  0.00    +0.000 A 
ATOM     11  C   UNL     1       2.650   8.351  17.779  0.00  0.00    +0.000 A 
ATOM     12  C   UNL     1       2.553   7.213  18.592  0.00  0.00    +0.000 A 
ATOM     13  C   UNL     1       1.846   7.242  19.801  0.00  0.00    +0.000 A 
ATOM     14  C   UNL     1       1.226   8.446  20.156  0.00  0.00    +0.000 A 
BRANCH   9  16
ATOM     15  O   UNL     1       1.357  11.890  19.747  0.00  0.00    +0.000 OA
ATOM     16  C   UNL     1       0.729  10.847  19.889  0.00  0.00    +0.000 C 
ATOM     17  N   UNL     1      -0.470  10.707  20.567  0.00  0.00    +0.000 N 
ATOM     18  H   UNL     1      -0.775   9.765  20.776  0.00  0.00    +0.000 HD
BRANCH  17  19
ATOM     19  C   UNL     1      -1.173  11.758  21.197  0.00  0.00    +0.000 A 
ATOM     20  C   UNL     1      -2.079  12.585  20.524  0.00  0.00    +0.000 A 
ATOM     21  C   UNL     1      -2.687  13.661  21.175  0.00  0.00    +0.000 A 
ATOM     22  C   UNL     1      -2.400  13.908  22.512  0.00  0.00    +0.000 A 
ATOM     23 CL   UNL     1      -3.106  15.264  23.301  0.00  0.00    +0.000 Cl
ATOM     24  C   UNL     1      -1.535  13.068  23.210  0.00  0.00    +0.000 A 
ATOM     25  C   UNL     1      -0.931  11.988  22.556  0.00  0.00    +0.000 A 
ENDBRANCH  17  19
ENDBRANCH   9  16
ENDBRANCH   1  13
BRANCH   6  26
ATOM     26  N   UNL     1       4.329   3.125  17.953  0.00  0.00    +0.000 N 
ATOM     27  H   UNL     1       4.429   2.125  17.828  0.00  0.00    +0.000 HD
BRANCH  26  28
ATOM     28  C   UNL     1       5.280   3.874  17.218  0.00  0.00    +0.000 A 
ATOM     29  C   UNL     1       5.517   3.550  15.876  0.00  0.00    +0.000 A 
ATOM     30  C   UNL     1       6.341   4.347  15.073  0.00  0.00    +0.000 A 
ATOM     31  C   UNL     1       6.938   5.492  15.597  0.00  0.00    +0.000 A 
ATOM     32  C   UNL     1       6.716   5.850  16.930  0.00  0.00    +0.000 A 
ATOM     33  C   UNL     1       5.881   5.040  17.718  0.00  0.00    +0.000 A 
BRANCH  32  34
ATOM     34  C   UNL     1       7.326   7.091  17.526  0.00  0.00    +0.000 C 
ATOM     35  F   UNL     1       6.413   8.063  17.810  0.00  0.00    +0.000 F 
ATOM     36  F   UNL     1       7.967   6.843  18.707  0.00  0.00    +0.000 F 
ATOM     37  F   UNL     1       8.254   7.688  16.725  0.00  0.00    +0.000 F 
ENDBRANCH  32  34
ENDBRANCH  26  28
ENDBRANCH   6  26
TORSDOF 6
ENDMDL
MODEL 4
REMARK VINA RESULT:      -9.6      1.151      1.904
REMARK  Name = 
REMARK  6 active torsions:
REMARK  status: ('A' for Active; 'I' for Inactive)
REMARK    1  A    between atoms: C_2  and  C_11
REMARK    2  A    between atoms: N_3  and  C_4
REMARK    3  A    between atoms: C_15  and  N_16
REMARK    4  A    between atoms: C_21  and  N_22
REMARK    5  A    between atoms: N_22  and  C_23
REMARK    6  A    between atoms: C_27  and  C_28
REMARK                            x       y       z     vdW  Elec       q    Type
REMARK                         _______ _______ _______ _____ _____    ______ ____
ROOT
ATOM      1  N   UNL     1       4.047   3.809  17.954  0.00  0.00    +0.000 N 
ATOM      2  C   UNL     1       3.065   4.303  18.816  0.00  0.00    +0.000 A 
ATOM      3  N   UNL     1       2.192   3.429  19.331  0.00  0.00    +0.000 NA
ATOM      4  C   UNL     1       1.295   3.924  20.205  0.00  0.00    +0.000 A 
ATOM      5  C   UNL     1       1.260   5.240  20.609  0.00  0.00    +0.000 A 
ATOM      6  C   UNL     1       2.217   6.064  20.065  0.00  0.00    +0.000 A 
ATOM      7  N   UNL     1       3.080   5.594  19.159  0.00  0.00    +0.000 NA
ATOM      8  H   UNL     1       4.118   2.809  18.042  0.00  0.00    +0.000 HD
ENDROOT
BRANCH   1  13
ATOM      9  C   UNL     1       6.848   6.146  17.124  0.00  0.00    +0.000 A 
ATOM     10  C   UNL     1       7.162   5.741  15.828  0.00  0.00    +0.000 A 
ATOM     11  C   UNL     1       6.408   4.727  15.231  0.00  0.00    +0.000 A 
ATOM     12  C   UNL     1       5.364   4.111  15.934  0.00  0.00    +0.000 A 
ATOM     13  C   UNL     1       5.042   4.495  17.242  0.00  0.00    +0.000 A 
ATOM     14  C   UNL     1       5.792   5.530  17.812  0.00  0.00    +0.000 A 
BRANCH   9  16
ATOM     15  O   UNL     1       8.226   6.787  18.888  0.00  0.00    +0.000 OA
ATOM     16  C   UNL     1       7.650   7.151  17.868  0.00  0.00    +0.000 C 
ATOM     17  N   UNL     1       7.617   8.443  17.372  0.00  0.00    +0.000 N 
ATOM     18  H   UNL     1       6.948   8.639  16.639  0.00  0.00    +0.000 HD
BRANCH  17  19
ATOM     19  C   UNL     1       8.260   9.555  17.961  0.00  0.00    +0.000 A 
ATOM     20  C   UNL     1       8.207  10.845  17.421  0.00  0.00    +0.000 A 
ATOM     21  C   UNL     1       8.927  11.893  17.998  0.00  0.00    +0.000 A 
ATOM     22  C   UNL     1       9.697  11.658  19.131  0.00  0.00    +0.000 A 
ATOM     23 CL   UNL     1      10.627  12.935  19.812  0.00  0.00    +0.000 Cl
ATOM     24  C   UNL     1       9.726  10.390  19.708  0.00  0.00    +0.000 A 
ATOM     25  C   UNL     1       9.000   9.343  19.129  0.00  0.00    +0.000 A 
ENDBRANCH  17  19
ENDBRANCH   9  16
ENDBRANCH   1  13
BRANCH   6  26
ATOM     26  N   UNL     1       2.340   7.387  20.537  0.00  0.00    +0.000 N 
ATOM     27  H   UNL     1       3.113   7.485  21.183  0.00  0.00    +0.000 HD
BRANCH  26  28
ATOM     28  C   UNL     1       1.313   8.339  20.751  0.00  0.00    +0.000 A 
ATOM     29  C   UNL     1       0.926   8.645  22.063  0.00  0.00    +0.000 A 
ATOM     30  C   UNL     1       0.017   9.675  22.329  0.00  0.00    +0.000 A 
ATOM     31  C   UNL     1      -0.515  10.429  21.285  0.00  0.00    +0.000 A 
ATOM     32  C   UNL     1      -0.144  10.158  19.964  0.00  0.00    +0.000 A 
ATOM     33  C   UNL     1       0.773   9.122  19.719  0.00  0.00    +0.000 A 
BRANCH  32  34
ATOM     34  C   UNL     1      -0.682  10.964  18.812  0.00  0.00    +0.000 C 
ATOM     35  F   UNL     1       0.215  11.858  18.309  0.00  0.00    +0.000 F 
ATOM     36  F   UNL     1      -1.044  10.182  17.751  0.00  0.00    +0.000 F 
ATOM     37  F   UNL     1      -1.789  11.696  19.121  0.00  0.00    +0.000 F 
ENDBRANCH  32  34
ENDBRANCH  26  28
ENDBRANCH   6  26
TORSDOF 6
ENDMDL
MODEL 5
REMARK VINA RESULT:      -9.5      5.418      8.423
REMARK  Name = 
REMARK  6 active torsions:
REMARK  status: ('A' for Active; 'I' for Inactive)
REMARK    1  A    between atoms: C_2  and  C_11
REMARK    2  A    between atoms: N_3  and  C_4
REMARK    3  A    between atoms: C_15  and  N_16
REMARK    4  A    between atoms: C_21  and  N_22
REMARK    5  A    between atoms: N_22  and  C_23
REMARK    6  A    between atoms: C_27  and  C_28
REMARK                            x       y       z     vdW  Elec       q    Type
REMARK                         _______ _______ _______ _____ _____    ______ ____
ROOT
ATOM      1  N   UNL     1       1.862   6.252  20.680  0.00  0.00    +0.000 N 
ATOM      2  C   UNL     1       2.454   5.003  20.473  0.00  0.00    +0.000 A 
ATOM      3  N   UNL     1       2.385   4.110  21.467  0.00  0.00    +0.000 NA
ATOM      4  C   UNL     1       2.911   2.895  21.217  0.00  0.00    +0.000 A 
ATOM      5  C   UNL     1       3.463   2.530  20.010  0.00  0.00    +0.000 A 
ATOM      6  C   UNL     1       3.457   3.492  19.027  0.00  0.00    +0.000 A 
ATOM      7  N   UNL     1       2.983   4.716  19.281  0.00  0.00    +0.000 NA
ATOM      8  H   UNL     1       1.236   6.215  21.467  0.00  0.00    +0.000 HD
ENDROOT
BRANCH   1  13
ATOM      9  C   UNL     1       1.227   9.712  19.409  0.00  0.00    +0.000 A 
ATOM     10  C   UNL     1       1.925   9.690  18.204  0.00  0.00    +0.000 A 
ATOM     11  C   UNL     1       2.559   8.509  17.808  0.00  0.00    +0.000 A 
ATOM     12  C   UNL     1       2.513   7.370  18.623  0.00  0.00    +0.000 A 
ATOM     13  C   UNL     1       1.828   7.378  19.844  0.00  0.00    +0.000 A 
ATOM     14  C   UNL     1       1.176   8.561  20.210  0.00  0.00    +0.000 A 
BRANCH   9  16
ATOM     15  O   UNL     1       1.176  12.012  19.771  0.00  0.00    +0.000 OA
ATOM     16  C   UNL     1       0.598  10.945  19.951  0.00  0.00    +0.000 C 
ATOM     17  N   UNL     1      -0.564  10.765  20.681  0.00  0.00    +0.000 N 
ATOM     18  H   UNL     1      -0.820   9.814  20.913  0.00  0.00    +0.000 HD
BRANCH  17  19
ATOM     19  C   UNL     1      -1.284  11.794  21.328  0.00  0.00    +0.000 A 
ATOM     20  C   UNL     1      -2.081  12.719  20.643  0.00  0.00    +0.000 A 
ATOM     21  C   UNL     1      -2.707  13.766  21.322  0.00  0.00    +0.000 A 
ATOM     22  C   UNL     1      -2.549  13.887  22.698  0.00  0.00    +0.000 A 
ATOM     23 CL   UNL     1      -3.276  15.206  23.528  0.00  0.00    +0.000 Cl
ATOM     24  C   UNL     1      -1.797  12.949  23.402  0.00  0.00    +0.000 A 
ATOM     25  C   UNL     1      -1.174  11.898  22.718  0.00  0.00    +0.000 A 
ENDBRANCH  17  19
ENDBRANCH   9  16
ENDBRANCH   1  13
BRANCH   6  26
ATOM     26  N   UNL     1       3.870   3.152  17.723  0.00  0.00    +0.000 N 
ATOM     27  H   UNL     1       3.749   2.164  17.537  0.00  0.00    +0.000 HD
BRANCH  26  28
ATOM     28  C   UNL     1       4.899   3.741  16.948  0.00  0.00    +0.000 A 
ATOM     29  C   UNL     1       5.974   4.361  17.598  0.00  0.00    +0.000 A 
ATOM     30  C   UNL     1       7.079   4.834  16.880  0.00  0.00    +0.000 A 
ATOM     31  C   UNL     1       7.133   4.684  15.495  0.00  0.00    +0.000 A 
ATOM     32  C   UNL     1       6.081   4.062  14.816  0.00  0.00    +0.000 A 
ATOM     33  C   UNL     1       4.984   3.591  15.555  0.00  0.00    +0.000 A 
BRANCH  32  34
ATOM     34  C   UNL     1       6.114   3.864  13.324  0.00  0.00    +0.000 C 
ATOM     35  F   UNL     1       4.915   4.099  12.718  0.00  0.00    +0.000 F 
ATOM     36  F   UNL     1       7.000   4.700  12.705  0.00  0.00    +0.000 F 
ATOM     37  F   UNL     1       6.472   2.605  12.942  0.00  0.00    +0.000 F 
ENDBRANCH  32  34
ENDBRANCH  26  28
ENDBRANCH   6  26
TORSDOF 6
ENDMDL
MODEL 6
REMARK VINA RESULT:      -9.5      5.293      8.087
REMARK  Name = 
REMARK  6 active torsions:
REMARK  status: ('A' for Active; 'I' for Inactive)
REMARK    1  A    between atoms: C_2  and  C_11
REMARK    2  A    between atoms: N_3  and  C_4
REMARK    3  A    between atoms: C_15  and  N_16
REMARK    4  A    between atoms: C_21  and  N_22
REMARK    5  A    between atoms: N_22  and  C_23
REMARK    6  A    between atoms: C_27  and  C_28
REMARK                            x       y       z     vdW  Elec       q    Type
REMARK                         _______ _______ _______ _____ _____    ______ ____
ROOT
ATOM      1  N   UNL     1       1.686   5.215  20.779  0.00  0.00    +0.000 N 
ATOM      2  C   UNL     1       2.670   4.238  20.608  0.00  0.00    +0.000 A 
ATOM      3  N   UNL     1       2.504   3.072  21.245  0.00  0.00    +0.000 NA
ATOM      4  C   UNL     1       3.437   2.127  21.014  0.00  0.00    +0.000 A 
ATOM      5  C   UNL     1       4.497   2.288  20.151  0.00  0.00    +0.000 A 
ATOM      6  C   UNL     1       4.571   3.500  19.505  0.00  0.00    +0.000 A 
ATOM      7  N   UNL     1       3.680   4.461  19.764  0.00  0.00    +0.000 NA
ATOM      8  H   UNL     1       0.850   4.806  21.161  0.00  0.00    +0.000 HD
ENDROOT
BRANCH   1  13
ATOM      9  C   UNL     1       1.219   8.922  20.582  0.00  0.00    +0.000 A 
ATOM     10  C   UNL     1       1.687   9.185  19.296  0.00  0.00    +0.000 A 
ATOM     11  C   UNL     1       2.109   8.120  18.495  0.00  0.00    +0.000 A 
ATOM     12  C   UNL     1       2.082   6.808  18.986  0.00  0.00    +0.000 A 
ATOM     13  C   UNL     1       1.628   6.525  20.280  0.00  0.00    +0.000 A 
ATOM     14  C   UNL     1       1.185   7.602  21.057  0.00  0.00    +0.000 A 
BRANCH   9  16
ATOM     15  O   UNL     1       1.270   9.935  22.678  0.00  0.00    +0.000 OA
ATOM     16  C   UNL     1       0.835   9.997  21.533  0.00  0.00    +0.000 C 
ATOM     17  N   UNL     1      -0.049  10.948  21.051  0.00  0.00    +0.000 N 
ATOM     18  H   UNL     1      -0.475  10.767  20.152  0.00  0.00    +0.000 HD
BRANCH  17  19
ATOM     19  C   UNL     1      -0.583  12.016  21.806  0.00  0.00    +0.000 A 
ATOM     20  C   UNL     1      -0.002  13.288  21.850  0.00  0.00    +0.000 A 
ATOM     21  C   UNL     1      -0.524  14.286  22.676  0.00  0.00    +0.000 A 
ATOM     22  C   UNL     1      -1.643  14.018  23.456  0.00  0.00    +0.000 A 
ATOM     23 CL   UNL     1      -2.256  15.228  24.513  0.00  0.00    +0.000 Cl
ATOM     24  C   UNL     1      -2.261  12.771  23.390  0.00  0.00    +0.000 A 
ATOM     25  C   UNL     1      -1.737  11.775  22.559  0.00  0.00    +0.000 A 
ENDBRANCH  17  19
ENDBRANCH   9  16
ENDBRANCH   1  13
BRANCH   6  26
ATOM     26  N   UNL     1       5.541   3.689  18.498  0.00  0.00    +0.000 N 
ATOM     27  H   UNL     1       6.479   3.691  18.877  0.00  0.00    +0.000 HD
BRANCH  26  28
ATOM     28  C   UNL     1       5.424   4.432  17.298  0.00  0.00    +0.000 A 
ATOM     29  C   UNL     1       5.243   5.820  17.369  0.00  0.00    +0.000 A 
ATOM     30  C   UNL     1       5.261   6.612  16.215  0.00  0.00    +0.000 A 
ATOM     31  C   UNL     1       5.473   6.031  14.966  0.00  0.00    +0.000 A 
ATOM     32  C   UNL     1       5.666   4.650  14.860  0.00  0.00    +0.000 A 
ATOM     33  C   UNL     1       5.649   3.873  16.031  0.00  0.00    +0.000 A 
BRANCH  32  34
ATOM     34  C   UNL     1       5.918   3.988  13.532  0.00  0.00    +0.000 C 
ATOM     35  F   UNL     1       6.861   4.622  12.779  0.00  0.00    +0.000 F 
ATOM     36  F   UNL     1       6.366   2.704  13.664  0.00  0.00    +0.000 F 
ATOM     37  F   UNL     1       4.813   3.909  12.737  0.00  0.00    +0.000 F 
ENDBRANCH  32  34
ENDBRANCH  26  28
ENDBRANCH   6  26
TORSDOF 6
ENDMDL
MODEL 7
REMARK VINA RESULT:      -9.5      5.374      8.335
REMARK  Name = 
REMARK  6 active torsions:
REMARK  status: ('A' for Active; 'I' for Inactive)
REMARK    1  A    between atoms: C_2  and  C_11
REMARK    2  A    between atoms: N_3  and  C_4
REMARK    3  A    between atoms: C_15  and  N_16
REMARK    4  A    between atoms: C_21  and  N_22
REMARK    5  A    between atoms: N_22  and  C_23
REMARK    6  A    between atoms: C_27  and  C_28
REMARK                            x       y       z     vdW  Elec       q    Type
REMARK                         _______ _______ _______ _____ _____    ______ ____
ROOT
ATOM      1  N   UNL     1       1.835   6.187  20.671  0.00  0.00    +0.000 N 
ATOM      2  C   UNL     1       2.460   4.946  20.532  0.00  0.00    +0.000 A 
ATOM      3  N   UNL     1       2.350   4.078  21.545  0.00  0.00    +0.000 NA
ATOM      4  C   UNL     1       2.912   2.867  21.359  0.00  0.00    +0.000 A 
ATOM      5  C   UNL     1       3.540   2.482  20.197  0.00  0.00    +0.000 A 
ATOM      6  C   UNL     1       3.573   3.417  19.189  0.00  0.00    +0.000 A 
ATOM      7  N   UNL     1       3.063   4.638  19.381  0.00  0.00    +0.000 NA
ATOM      8  H   UNL     1       1.165   6.159  21.421  0.00  0.00    +0.000 HD
ENDROOT
BRANCH   1  13
ATOM      9  C   UNL     1       1.245   9.612  19.286  0.00  0.00    +0.000 A 
ATOM     10  C   UNL     1       1.981   9.556  18.104  0.00  0.00    +0.000 A 
ATOM     11  C   UNL     1       2.626   8.365  17.761  0.00  0.00    +0.000 A 
ATOM     12  C   UNL     1       2.552   7.248  18.605  0.00  0.00    +0.000 A 
ATOM     13  C   UNL     1       1.828   7.290  19.803  0.00  0.00    +0.000 A 
ATOM     14  C   UNL     1       1.167   8.483  20.115  0.00  0.00    +0.000 A 
BRANCH   9  16
ATOM     15  O   UNL     1       1.074  11.931  19.408  0.00  0.00    +0.000 OA
ATOM     16  C   UNL     1       0.601  10.860  19.773  0.00  0.00    +0.000 C 
ATOM     17  N   UNL     1      -0.446  10.696  20.664  0.00  0.00    +0.000 N 
ATOM     18  H   UNL     1      -0.602   9.764  21.025  0.00  0.00    +0.000 HD
BRANCH  17  19
ATOM     19  C   UNL     1      -1.152  11.748  21.288  0.00  0.00    +0.000 A 
ATOM     20  C   UNL     1      -0.909  12.159  22.604  0.00  0.00    +0.000 A 
ATOM     21  C   UNL     1      -1.692  13.150  23.200  0.00  0.00    +0.000 A 
ATOM     22  C   UNL     1      -2.717  13.747  22.476  0.00  0.00    +0.000 A 
ATOM     23 CL   UNL     1      -3.715  14.930  23.226  0.00  0.00    +0.000 Cl
ATOM     24  C   UNL     1      -2.943  13.382  21.151  0.00  0.00    +0.000 A 
ATOM     25  C   UNL     1      -2.155  12.391  20.555  0.00  0.00    +0.000 A 
ENDBRANCH  17  19
ENDBRANCH   9  16
ENDBRANCH   1  13
BRANCH   6  26
ATOM     26  N   UNL     1       4.067   3.050  17.920  0.00  0.00    +0.000 N 
ATOM     27  H   UNL     1       4.095   2.045  17.805  0.00  0.00    +0.000 HD
BRANCH  26  28
ATOM     28  C   UNL     1       5.022   3.728  17.123  0.00  0.00    +0.000 A 
ATOM     29  C   UNL     1       6.052   4.443  17.749  0.00  0.00    +0.000 A 
ATOM     30  C   UNL     1       7.093   5.011  17.007  0.00  0.00    +0.000 A 
ATOM     31  C   UNL     1       7.131   4.864  15.621  0.00  0.00    +0.000 A 
ATOM     32  C   UNL     1       6.124   4.149  14.965  0.00  0.00    +0.000 A 
ATOM     33  C   UNL     1       5.089   3.583  15.729  0.00  0.00    +0.000 A 
BRANCH  32  34
ATOM     34  C   UNL     1       6.141   3.952  13.473  0.00  0.00    +0.000 C 
ATOM     35  F   UNL     1       7.071   4.716  12.834  0.00  0.00    +0.000 F 
ATOM     36  F   UNL     1       6.429   2.664  13.119  0.00  0.00    +0.000 F 
ATOM     37  F   UNL     1       4.955   4.241  12.865  0.00  0.00    +0.000 F 
ENDBRANCH  32  34
ENDBRANCH  26  28
ENDBRANCH   6  26
TORSDOF 6
ENDMDL
MODEL 8
REMARK VINA RESULT:      -9.4      4.138      7.314
REMARK  Name = 
REMARK  6 active torsions:
REMARK  status: ('A' for Active; 'I' for Inactive)
REMARK    1  A    between atoms: C_2  and  C_11
REMARK    2  A    between atoms: N_3  and  C_4
REMARK    3  A    between atoms: C_15  and  N_16
REMARK    4  A    between atoms: C_21  and  N_22
REMARK    5  A    between atoms: N_22  and  C_23
REMARK    6  A    between atoms: C_27  and  C_28
REMARK                            x       y       z     vdW  Elec       q    Type
REMARK                         _______ _______ _______ _____ _____    ______ ____
ROOT
ATOM      1  N   UNL     1       1.576   5.864  20.484  0.00  0.00    +0.000 N 
ATOM      2  C   UNL     1       2.377   4.726  20.598  0.00  0.00    +0.000 A 
ATOM      3  N   UNL     1       2.012   3.795  21.487  0.00  0.00    +0.000 NA
ATOM      4  C   UNL     1       2.770   2.681  21.532  0.00  0.00    +0.000 A 
ATOM      5  C   UNL     1       3.846   2.449  20.705  0.00  0.00    +0.000 A 
ATOM      6  C   UNL     1       4.129   3.438  19.792  0.00  0.00    +0.000 A 
ATOM      7  N   UNL     1       3.415   4.567  19.772  0.00  0.00    +0.000 NA
ATOM      8  H   UNL     1       0.680   5.705  20.914  0.00  0.00    +0.000 HD
ENDROOT
BRANCH   1  13
ATOM      9  C   UNL     1       1.317   9.366  19.193  0.00  0.00    +0.000 A 
ATOM     10  C   UNL     1       2.243   9.339  18.152  0.00  0.00    +0.000 A 
ATOM     11  C   UNL     1       2.907   8.143  17.863  0.00  0.00    +0.000 A 
ATOM     12  C   UNL     1       2.662   6.993  18.626  0.00  0.00    +0.000 A 
ATOM     13  C   UNL     1       1.745   7.004  19.684  0.00  0.00    +0.000 A 
ATOM     14  C   UNL     1       1.070   8.204  19.940  0.00  0.00    +0.000 A 
BRANCH   9  16
ATOM     15  O   UNL     1       0.083  11.294  18.768  0.00  0.00    +0.000 OA
ATOM     16  C   UNL     1       0.631  10.611  19.626  0.00  0.00    +0.000 C 
ATOM     17  N   UNL     1       0.736  10.926  20.970  0.00  0.00    +0.000 N 
ATOM     18  H   UNL     1       1.380  10.377  21.524  0.00  0.00    +0.000 HD
BRANCH  17  19
ATOM     19  C   UNL     1       0.209  12.090  21.574  0.00  0.00    +0.000 A 
ATOM     20  C   UNL     1       0.726  13.371  21.349  0.00  0.00    +0.000 A 
ATOM     21  C   UNL     1       0.219  14.478  22.034  0.00  0.00    +0.000 A 
ATOM     22  C   UNL     1      -0.820  14.310  22.941  0.00  0.00    +0.000 A 
ATOM     23 CL   UNL     1      -1.409  15.662  23.825  0.00  0.00    +0.000 Cl
ATOM     24  C   UNL     1      -1.376  13.049  23.144  0.00  0.00    +0.000 A 
ATOM     25  C   UNL     1      -0.869  11.942  22.453  0.00  0.00    +0.000 A 
ENDBRANCH  17  19
ENDBRANCH   9  16
ENDBRANCH   1  13
BRANCH   6  26
ATOM     26  N   UNL     1       5.121   3.213  18.815  0.00  0.00    +0.000 N 
ATOM     27  H   UNL     1       5.836   2.576  19.145  0.00  0.00    +0.000 HD
BRANCH  26  28
ATOM     28  C   UNL     1       5.590   4.107  17.821  0.00  0.00    +0.000 A 
ATOM     29  C   UNL     1       5.134   3.966  16.504  0.00  0.00    +0.000 A 
ATOM     30  C   UNL     1       5.460   4.907  15.520  0.00  0.00    +0.000 A 
ATOM     31  C   UNL     1       6.242   6.015  15.839  0.00  0.00    +0.000 A 
ATOM     32  C   UNL     1       6.707   6.191  17.146  0.00  0.00    +0.000 A 
ATOM     33  C   UNL     1       6.365   5.238  18.120  0.00  0.00    +0.000 A 
BRANCH  32  34
ATOM     34  C   UNL     1       7.536   7.386  17.534  0.00  0.00    +0.000 C 
ATOM     35  F   UNL     1       6.796   8.502  17.789  0.00  0.00    +0.000 F 
ATOM     36  F   UNL     1       8.265   7.171  18.669  0.00  0.00    +0.000 F 
ATOM     37  F   UNL     1       8.441   7.761  16.585  0.00  0.00    +0.000 F 
ENDBRANCH  32  34
ENDBRANCH  26  28
ENDBRANCH   6  26
TORSDOF 6
ENDMDL
MODEL 9
REMARK VINA RESULT:      -9.4      4.241      7.701
REMARK  Name = 
REMARK  6 active torsions:
REMARK  status: ('A' for Active; 'I' for Inactive)
REMARK    1  A    between atoms: C_2  and  C_11
REMARK    2  A    between atoms: N_3  and  C_4
REMARK    3  A    between atoms: C_15  and  N_16
REMARK    4  A    between atoms: C_21  and  N_22
REMARK    5  A    between atoms: N_22  and  C_23
REMARK    6  A    between atoms: C_27  and  C_28
REMARK                            x       y       z     vdW  Elec       q    Type
REMARK                         _______ _______ _______ _____ _____    ______ ____
ROOT
ATOM      1  N   UNL     1       1.842   6.095  20.705  0.00  0.00    +0.000 N 
ATOM      2  C   UNL     1       2.515   4.884  20.526  0.00  0.00    +0.000 A 
ATOM      3  N   UNL     1       2.397   3.960  21.486  0.00  0.00    +0.000 NA
ATOM      4  C   UNL     1       3.008   2.780  21.259  0.00  0.00    +0.000 A 
ATOM      5  C   UNL     1       3.693   2.479  20.103  0.00  0.00    +0.000 A 
ATOM      6  C   UNL     1       3.732   3.469  19.149  0.00  0.00    +0.000 A 
ATOM      7  N   UNL     1       3.173   4.660  19.385  0.00  0.00    +0.000 NA
ATOM      8  H   UNL     1       1.144   6.004  21.425  0.00  0.00    +0.000 HD
ENDROOT
BRANCH   1  13
ATOM      9  C   UNL     1       1.310   9.609  19.537  0.00  0.00    +0.000 A 
ATOM     10  C   UNL     1       1.976   9.590  18.313  0.00  0.00    +0.000 A 
ATOM     11  C   UNL     1       2.552   8.396  17.871  0.00  0.00    +0.000 A 
ATOM     12  C   UNL     1       2.482   7.240  18.659  0.00  0.00    +0.000 A 
ATOM     13  C   UNL     1       1.830   7.242  19.898  0.00  0.00    +0.000 A 
ATOM     14  C   UNL     1       1.235   8.441  20.310  0.00  0.00    +0.000 A 
BRANCH   9  16
ATOM     15  O   UNL     1       1.167  11.212  21.219  0.00  0.00    +0.000 OA
ATOM     16  C   UNL     1       0.746  10.851  20.126  0.00  0.00    +0.000 C 
ATOM     17  N   UNL     1      -0.269  11.458  19.406  0.00  0.00    +0.000 N 
ATOM     18  H   UNL     1      -0.648  10.945  18.620  0.00  0.00    +0.000 HD
BRANCH  17  19
ATOM     19  C   UNL     1      -0.978  12.610  19.815  0.00  0.00    +0.000 A 
ATOM     20  C   UNL     1      -0.454  13.904  19.722  0.00  0.00    +0.000 A 
ATOM     21  C   UNL     1      -1.164  15.001  20.216  0.00  0.00    +0.000 A 
ATOM     22  C   UNL     1      -2.413  14.809  20.796  0.00  0.00    +0.000 A 
ATOM     23 CL   UNL     1      -3.265  16.151  21.453  0.00  0.00    +0.000 Cl
ATOM     24  C   UNL     1      -2.968  13.533  20.856  0.00  0.00    +0.000 A 
ATOM     25  C   UNL     1      -2.256  12.436  20.357  0.00  0.00    +0.000 A 
ENDBRANCH  17  19
ENDBRANCH   9  16
ENDBRANCH   1  13
BRANCH   6  26
ATOM     26  N   UNL     1       4.287   3.189  17.883  0.00  0.00    +0.000 N 
ATOM     27  H   UNL     1       4.340   2.193  17.709  0.00  0.00    +0.000 HD
BRANCH  26  28
ATOM     28  C   UNL     1       5.262   3.930  17.171  0.00  0.00    +0.000 A 
ATOM     29  C   UNL     1       5.522   3.608  15.833  0.00  0.00    +0.000 A 
ATOM     30  C   UNL     1       6.372   4.398  15.051  0.00  0.00    +0.000 A 
ATOM     31  C   UNL     1       6.971   5.534  15.591  0.00  0.00    +0.000 A 
ATOM     32  C   UNL     1       6.726   5.890  16.921  0.00  0.00    +0.000 A 
ATOM     33  C   UNL     1       5.866   5.086  17.688  0.00  0.00    +0.000 A 
BRANCH  32  34
ATOM     34  C   UNL     1       7.338   7.121  17.534  0.00  0.00    +0.000 C 
ATOM     35  F   UNL     1       6.431   8.104  17.800  0.00  0.00    +0.000 F 
ATOM     36  F   UNL     1       7.948   6.862  18.729  0.00  0.00    +0.000 F 
ATOM     37  F   UNL     1       8.291   7.709  16.757  0.00  0.00    +0.000 F 
ENDBRANCH  32  34
ENDBRANCH  26  28
ENDBRANCH   6  26
TORSDOF 6
ENDMDL
