MODEL 1
REMARK VINA RESULT:      -7.8      0.000      0.000
REMARK  Name = 
REMARK  5 active torsions:
REMARK  status: ('A' for Active; 'I' for Inactive)
REMARK    1  A    between atoms: C_1  and  C_2
REMARK    2  A    between atoms: C_6  and  N_7
REMARK    3  A    between atoms: C_10  and  C_11
REMARK    4  A    between atoms: C_17  and  C_18
REMARK    5  A    between atoms: C_23  and  C_24
REMARK                            x       y       z     vdW  Elec       q    Type
REMARK                         _______ _______ _______ _____ _____    ______ ____
ROOT
ATOM      1  N   UNL     1       2.282   7.499  18.979  0.00  0.00    +0.000 N 
ATOM      2  N   UNL     1       2.648   8.005  17.770  0.00  0.00    +0.000 NA
ATOM      3  C   UNL     1       2.030   9.187  17.690  0.00  0.00    +0.000 A 
ATOM      4  C   UNL     1       1.364   9.530  18.878  0.00  0.00    +0.000 A 
ATOM      5  C   UNL     1       1.542   8.418  19.701  0.00  0.00    +0.000 A 
ATOM      6  C   UNL     1       1.114   8.205  21.120  0.00  0.00    +0.000 C 
ENDROOT
BRANCH   4   7
ATOM      7  C   UNL     1       0.499  10.617  19.241  0.00  0.00    +0.000 C 
ATOM      8  O   UNL     1       1.014  11.551  19.853  0.00  0.00    +0.000 OA
ATOM      9  N   UNL     1      -0.890  10.695  18.994  0.00  0.00    +0.000 N 
ATOM     10  C   UNL     1      -1.425  11.951  19.528  0.00  0.00    +0.000 C 
ATOM     11  C   UNL     1      -2.894  11.917  19.825  0.00  0.00    +0.000 C 
ATOM     12  N   UNL     1      -3.573  11.538  18.625  0.00  0.00    +0.000 N 
ATOM     13  C   UNL     1      -4.728  12.059  18.133  0.00  0.00    +0.000 A 
ATOM     14  C   UNL     1      -5.516  13.096  18.855  0.00  0.00    +0.000 C 
ATOM     15  N   UNL     1      -4.930  11.516  16.948  0.00  0.00    +0.000 NA
ATOM     16  N   UNL     1      -3.863  10.661  16.669  0.00  0.00    +0.000 NA
ATOM     17  C   UNL     1      -3.027  10.700  17.688  0.00  0.00    +0.000 A 
ATOM     18  C   UNL     1      -1.661  10.046  17.882  0.00  0.00    +0.000 C 
ENDBRANCH   4   7
BRANCH   1  24
ATOM     19  C   UNL     1       1.238   3.101  20.886  0.00  0.00    +0.000 C 
ATOM     20  C   UNL     1       2.255   4.049  20.325  0.00  0.00    +0.000 A 
ATOM     21  C   UNL     1       3.542   3.611  19.991  0.00  0.00    +0.000 A 
ATOM     22  C   UNL     1       4.456   4.493  19.435  0.00  0.00    +0.000 A 
ATOM     23  C   UNL     1       4.080   5.814  19.153  0.00  0.00    +0.000 A 
ATOM     24  C   UNL     1       2.776   6.246  19.428  0.00  0.00    +0.000 A 
ATOM     25  C   UNL     1       1.888   5.377  20.070  0.00  0.00    +0.000 A 
ENDBRANCH   1  24
TORSDOF 2
ENDMDL
MODEL 2
REMARK VINA RESULT:      -7.7      3.258      4.563
REMARK  Name = 
REMARK  5 active torsions:
REMARK  status: ('A' for Active; 'I' for Inactive)
REMARK    1  A    between atoms: C_1  and  C_2
REMARK    2  A    between atoms: C_6  and  N_7
REMARK    3  A    between atoms: C_10  and  C_11
REMARK    4  A    between atoms: C_17  and  C_18
REMARK    5  A    between atoms: C_23  and  C_24
REMARK                            x       y       z     vdW  Elec       q    Type
REMARK                         _______ _______ _______ _____ _____    ______ ____
ROOT
ATOM      1  N   UNL     1       4.037   6.006  18.647  0.00  0.00    +0.000 N 
ATOM      2  N   UNL     1       3.280   5.423  19.617  0.00  0.00    +0.000 NA
ATOM      3  C   UNL     1       2.287   6.288  19.845  0.00  0.00    +0.000 A 
ATOM      4  C   UNL     1       2.301   7.374  18.955  0.00  0.00    +0.000 A 
ATOM      5  C   UNL     1       3.447   7.169  18.186  0.00  0.00    +0.000 A 
ATOM      6  C   UNL     1       3.968   7.959  17.026  0.00  0.00    +0.000 C 
ENDROOT
BRANCH   4   7
ATOM      7  C   UNL     1       1.527   8.580  18.865  0.00  0.00    +0.000 C 
ATOM      8  O   UNL     1       1.179   8.928  17.737  0.00  0.00    +0.000 OA
ATOM      9  N   UNL     1       1.161   9.419  19.940  0.00  0.00    +0.000 N 
ATOM     10  C   UNL     1       0.387  10.561  19.446  0.00  0.00    +0.000 C 
ATOM     11  C   UNL     1       0.415  11.760  20.345  0.00  0.00    +0.000 C 
ATOM     12  N   UNL     1      -0.043  11.348  21.636  0.00  0.00    +0.000 N 
ATOM     13  C   UNL     1      -0.881  12.023  22.466  0.00  0.00    +0.000 A 
ATOM     14  C   UNL     1      -1.400  13.384  22.154  0.00  0.00    +0.000 C 
ATOM     15  N   UNL     1      -1.143  11.231  23.488  0.00  0.00    +0.000 NA
ATOM     16  N   UNL     1      -0.486  10.018  23.283  0.00  0.00    +0.000 NA
ATOM     17  C   UNL     1       0.163  10.089  22.137  0.00  0.00    +0.000 A 
ATOM     18  C   UNL     1       0.962   9.034  21.377  0.00  0.00    +0.000 C 
ENDBRANCH   4   7
BRANCH   1  24
ATOM     19  C   UNL     1       6.128   3.820  14.786  0.00  0.00    +0.000 C 
ATOM     20  C   UNL     1       6.239   4.316  16.196  0.00  0.00    +0.000 A 
ATOM     21  C   UNL     1       7.480   4.399  16.836  0.00  0.00    +0.000 A 
ATOM     22  C   UNL     1       7.567   4.898  18.127  0.00  0.00    +0.000 A 
ATOM     23  C   UNL     1       6.421   5.376  18.777  0.00  0.00    +0.000 A 
ATOM     24  C   UNL     1       5.183   5.353  18.122  0.00  0.00    +0.000 A 
ATOM     25  C   UNL     1       5.088   4.767  16.857  0.00  0.00    +0.000 A 
ENDBRANCH   1  24
TORSDOF 2
ENDMDL
MODEL 3
REMARK VINA RESULT:      -7.6      3.205      4.083
REMARK  Name = 
REMARK  5 active torsions:
REMARK  status: ('A' for Active; 'I' for Inactive)
REMARK    1  A    between atoms: C_1  and  C_2
REMARK    2  A    between atoms: C_6  and  N_7
REMARK    3  A    between atoms: C_10  and  C_11
REMARK    4  A    between atoms: C_17  and  C_18
REMARK    5  A    between atoms: C_23  and  C_24
REMARK                            x       y       z     vdW  Elec       q    Type
REMARK                         _______ _______ _______ _____ _____    ______ ____
ROOT
ATOM      1  N   UNL     1       2.306   7.774  18.354  0.00  0.00    +0.000 N 
ATOM      2  N   UNL     1       2.138   8.848  17.534  0.00  0.00    +0.000 NA
ATOM      3  C   UNL     1       1.360   9.688  18.222  0.00  0.00    +0.000 A 
ATOM      4  C   UNL     1       1.114   9.248  19.532  0.00  0.00    +0.000 A 
ATOM      5  C   UNL     1       1.739   8.002  19.595  0.00  0.00    +0.000 A 
ATOM      6  C   UNL     1       1.880   7.065  20.755  0.00  0.00    +0.000 C 
ENDROOT
BRANCH   4   7
ATOM      7  C   UNL     1       0.279   9.736  20.593  0.00  0.00    +0.000 C 
ATOM      8  O   UNL     1      -0.344   8.893  21.238  0.00  0.00    +0.000 OA
ATOM      9  N   UNL     1       0.077  11.090  20.940  0.00  0.00    +0.000 N 
ATOM     10  C   UNL     1      -0.856  11.188  22.066  0.00  0.00    +0.000 C 
ATOM     11  C   UNL     1      -1.561  12.506  22.169  0.00  0.00    +0.000 C 
ATOM     12  N   UNL     1      -0.566  13.530  22.237  0.00  0.00    +0.000 N 
ATOM     13  C   UNL     1      -0.568  14.629  23.037  0.00  0.00    +0.000 A 
ATOM     14  C   UNL     1      -1.703  14.964  23.941  0.00  0.00    +0.000 C 
ATOM     15  N   UNL     1       0.593  15.234  22.875  0.00  0.00    +0.000 NA
ATOM     16  N   UNL     1       1.358  14.484  21.982  0.00  0.00    +0.000 NA
ATOM     17  C   UNL     1       0.653  13.432  21.617  0.00  0.00    +0.000 A 
ATOM     18  C   UNL     1       1.024  12.238  20.741  0.00  0.00    +0.000 C 
ENDBRANCH   4   7
BRANCH   1  24
ATOM     19  C   UNL     1       2.543   2.960  17.443  0.00  0.00    +0.000 C 
ATOM     20  C   UNL     1       3.219   4.298  17.462  0.00  0.00    +0.000 A 
ATOM     21  C   UNL     1       4.463   4.487  16.849  0.00  0.00    +0.000 A 
ATOM     22  C   UNL     1       5.053   5.742  16.843  0.00  0.00    +0.000 A 
ATOM     23  C   UNL     1       4.383   6.840  17.400  0.00  0.00    +0.000 A 
ATOM     24  C   UNL     1       3.111   6.673  17.963  0.00  0.00    +0.000 A 
ATOM     25  C   UNL     1       2.562   5.390  18.046  0.00  0.00    +0.000 A 
ENDBRANCH   1  24
TORSDOF 2
ENDMDL
MODEL 4
REMARK VINA RESULT:      -7.4      3.812      5.814
REMARK  Name = 
REMARK  5 active torsions:
REMARK  status: ('A' for Active; 'I' for Inactive)
REMARK    1  A    between atoms: C_1  and  C_2
REMARK    2  A    between atoms: C_6  and  N_7
REMARK    3  A    between atoms: C_10  and  C_11
REMARK    4  A    between atoms: C_17  and  C_18
REMARK    5  A    between atoms: C_23  and  C_24
REMARK                            x       y       z     vdW  Elec       q    Type
REMARK                         _______ _______ _______ _____ _____    ______ ____
ROOT
ATOM      1  N   UNL     1       4.452   4.450  16.579  0.00  0.00    +0.000 N 
ATOM      2  N   UNL     1       3.459   3.527  16.705  0.00  0.00    +0.000 NA
ATOM      3  C   UNL     1       2.723   3.953  17.736  0.00  0.00    +0.000 A 
ATOM      4  C   UNL     1       3.134   5.207  18.213  0.00  0.00    +0.000 A 
ATOM      5  C   UNL     1       4.259   5.511  17.446  0.00  0.00    +0.000 A 
ATOM      6  C   UNL     1       5.106   6.746  17.444  0.00  0.00    +0.000 C 
ENDROOT
BRANCH   4   7
ATOM      7  C   UNL     1       2.737   6.011  19.335  0.00  0.00    +0.000 C 
ATOM      8  O   UNL     1       2.977   5.556  20.453  0.00  0.00    +0.000 OA
ATOM      9  N   UNL     1       2.066   7.253  19.274  0.00  0.00    +0.000 N 
ATOM     10  C   UNL     1       1.818   7.757  20.628  0.00  0.00    +0.000 C 
ATOM     11  C   UNL     1       0.682   8.728  20.726  0.00  0.00    +0.000 C 
ATOM     12  N   UNL     1       0.946   9.801  19.818  0.00  0.00    +0.000 N 
ATOM     13  C   UNL     1       0.751  11.129  20.034  0.00  0.00    +0.000 A 
ATOM     14  C   UNL     1       0.136  11.660  21.283  0.00  0.00    +0.000 C 
ATOM     15  N   UNL     1       1.244  11.773  18.994  0.00  0.00    +0.000 NA
ATOM     16  N   UNL     1       1.794  10.836  18.119  0.00  0.00    +0.000 NA
ATOM     17  C   UNL     1       1.630   9.637  18.642  0.00  0.00    +0.000 A 
ATOM     18  C   UNL     1       2.114   8.268  18.170  0.00  0.00    +0.000 C 
ENDBRANCH   4   7
BRANCH   1  24
ATOM     19  C   UNL     1       5.424   3.223  11.930  0.00  0.00    +0.000 C 
ATOM     20  C   UNL     1       5.900   3.782  13.237  0.00  0.00    +0.000 A 
ATOM     21  C   UNL     1       7.138   4.427  13.338  0.00  0.00    +0.000 A 
ATOM     22  C   UNL     1       7.543   4.973  14.546  0.00  0.00    +0.000 A 
ATOM     23  C   UNL     1       6.693   4.932  15.660  0.00  0.00    +0.000 A 
ATOM     24  C   UNL     1       5.427   4.341  15.553  0.00  0.00    +0.000 A 
ATOM     25  C   UNL     1       5.062   3.714  14.358  0.00  0.00    +0.000 A 
ENDBRANCH   1  24
TORSDOF 2
ENDMDL
MODEL 5
REMARK VINA RESULT:      -7.4      3.216      4.356
REMARK  Name = 
REMARK  5 active torsions:
REMARK  status: ('A' for Active; 'I' for Inactive)
REMARK    1  A    between atoms: C_1  and  C_2
REMARK    2  A    between atoms: C_6  and  N_7
REMARK    3  A    between atoms: C_10  and  C_11
REMARK    4  A    between atoms: C_17  and  C_18
REMARK    5  A    between atoms: C_23  and  C_24
REMARK                            x       y       z     vdW  Elec       q    Type
REMARK                         _______ _______ _______ _____ _____    ______ ____
ROOT
ATOM      1  N   UNL     1       2.340   7.813  18.265  0.00  0.00    +0.000 N 
ATOM      2  N   UNL     1       2.137   8.897  17.467  0.00  0.00    +0.000 NA
ATOM      3  C   UNL     1       1.349   9.707  18.180  0.00  0.00    +0.000 A 
ATOM      4  C   UNL     1       1.131   9.237  19.485  0.00  0.00    +0.000 A 
ATOM      5  C   UNL     1       1.784   8.005  19.517  0.00  0.00    +0.000 A 
ATOM      6  C   UNL     1       1.962   7.051  20.658  0.00  0.00    +0.000 C 
ENDROOT
BRANCH   4   7
ATOM      7  C   UNL     1       0.298   9.687  20.565  0.00  0.00    +0.000 C 
ATOM      8  O   UNL     1      -0.291   8.818  21.207  0.00  0.00    +0.000 OA
ATOM      9  N   UNL     1       0.065  11.031  20.934  0.00  0.00    +0.000 N 
ATOM     10  C   UNL     1      -0.854  11.086  22.075  0.00  0.00    +0.000 C 
ATOM     11  C   UNL     1      -1.594  12.382  22.207  0.00  0.00    +0.000 C 
ATOM     12  N   UNL     1      -0.626  13.433  22.275  0.00  0.00    +0.000 N 
ATOM     13  C   UNL     1      -0.647  14.520  23.090  0.00  0.00    +0.000 A 
ATOM     14  C   UNL     1      -1.777  14.811  24.016  0.00  0.00    +0.000 C 
ATOM     15  N   UNL     1       0.494  15.160  22.920  0.00  0.00    +0.000 NA
ATOM     16  N   UNL     1       1.266  14.445  22.006  0.00  0.00    +0.000 NA
ATOM     17  C   UNL     1       0.585  13.378  21.636  0.00  0.00    +0.000 A 
ATOM     18  C   UNL     1       0.976  12.207  20.738  0.00  0.00    +0.000 C 
ENDBRANCH   4   7
BRANCH   1  24
ATOM     19  C   UNL     1       6.852   6.302  17.074  0.00  0.00    +0.000 C 
ATOM     20  C   UNL     1       5.408   5.975  17.303  0.00  0.00    +0.000 A 
ATOM     21  C   UNL     1       4.972   4.647  17.388  0.00  0.00    +0.000 A 
ATOM     22  C   UNL     1       3.639   4.365  17.640  0.00  0.00    +0.000 A 
ATOM     23  C   UNL     1       2.728   5.407  17.868  0.00  0.00    +0.000 A 
ATOM     24  C   UNL     1       3.165   6.738  17.844  0.00  0.00    +0.000 A 
ATOM     25  C   UNL     1       4.491   7.017  17.501  0.00  0.00    +0.000 A 
ENDBRANCH   1  24
TORSDOF 2
ENDMDL
MODEL 6
REMARK VINA RESULT:      -7.4      2.706      3.803
REMARK  Name = 
REMARK  5 active torsions:
REMARK  status: ('A' for Active; 'I' for Inactive)
REMARK    1  A    between atoms: C_1  and  C_2
REMARK    2  A    between atoms: C_6  and  N_7
REMARK    3  A    between atoms: C_10  and  C_11
REMARK    4  A    between atoms: C_17  and  C_18
REMARK    5  A    between atoms: C_23  and  C_24
REMARK                            x       y       z     vdW  Elec       q    Type
REMARK                         _______ _______ _______ _____ _____    ______ ____
ROOT
ATOM      1  N   UNL     1       2.293   7.237  19.069  0.00  0.00    +0.000 N 
ATOM      2  N   UNL     1       2.542   7.655  17.798  0.00  0.00    +0.000 NA
ATOM      3  C   UNL     1       1.968   8.859  17.713  0.00  0.00    +0.000 A 
ATOM      4  C   UNL     1       1.455   9.301  18.942  0.00  0.00    +0.000 A 
ATOM      5  C   UNL     1       1.677   8.231  19.809  0.00  0.00    +0.000 A 
ATOM      6  C   UNL     1       1.402   8.122  21.277  0.00  0.00    +0.000 C 
ENDROOT
BRANCH   4   7
ATOM      7  C   UNL     1       0.681  10.448  19.329  0.00  0.00    +0.000 C 
ATOM      8  O   UNL     1      -0.300  10.236  20.042  0.00  0.00    +0.000 OA
ATOM      9  N   UNL     1       0.918  11.784  18.939  0.00  0.00    +0.000 N 
ATOM     10  C   UNL     1      -0.096  12.666  19.524  0.00  0.00    +0.000 C 
ATOM     11  C   UNL     1      -0.295  13.953  18.783  0.00  0.00    +0.000 C 
ATOM     12  N   UNL     1       0.973  14.610  18.702  0.00  0.00    +0.000 N 
ATOM     13  C   UNL     1       1.225  15.935  18.868  0.00  0.00    +0.000 A 
ATOM     14  C   UNL     1       0.148  16.938  19.096  0.00  0.00    +0.000 C 
ATOM     15  N   UNL     1       2.535  16.092  18.839  0.00  0.00    +0.000 NA
ATOM     16  N   UNL     1       3.124  14.836  18.687  0.00  0.00    +0.000 NA
ATOM     17  C   UNL     1       2.163  13.935  18.629  0.00  0.00    +0.000 A 
ATOM     18  C   UNL     1       2.228  12.411  18.563  0.00  0.00    +0.000 C 
ENDBRANCH   4   7
BRANCH   1  24
ATOM     19  C   UNL     1       1.247   2.923  21.156  0.00  0.00    +0.000 C 
ATOM     20  C   UNL     1       2.258   3.833  20.526  0.00  0.00    +0.000 A 
ATOM     21  C   UNL     1       3.523   3.361  20.156  0.00  0.00    +0.000 A 
ATOM     22  C   UNL     1       4.430   4.208  19.538  0.00  0.00    +0.000 A 
ATOM     23  C   UNL     1       4.066   5.525  19.228  0.00  0.00    +0.000 A 
ATOM     24  C   UNL     1       2.782   5.990  19.539  0.00  0.00    +0.000 A 
ATOM     25  C   UNL     1       1.905   5.159  20.242  0.00  0.00    +0.000 A 
ENDBRANCH   1  24
TORSDOF 2
ENDMDL
MODEL 7
REMARK VINA RESULT:      -7.3      3.054      8.514
REMARK  Name = 
REMARK  5 active torsions:
REMARK  status: ('A' for Active; 'I' for Inactive)
REMARK    1  A    between atoms: C_1  and  C_2
REMARK    2  A    between atoms: C_6  and  N_7
REMARK    3  A    between atoms: C_10  and  C_11
REMARK    4  A    between atoms: C_17  and  C_18
REMARK    5  A    between atoms: C_23  and  C_24
REMARK                            x       y       z     vdW  Elec       q    Type
REMARK                         _______ _______ _______ _____ _____    ______ ____
ROOT
ATOM      1  N   UNL     1       0.889   9.876  20.154  0.00  0.00    +0.000 N 
ATOM      2  N   UNL     1       1.112   9.571  21.461  0.00  0.00    +0.000 NA
ATOM      3  C   UNL     1       1.606   8.330  21.445  0.00  0.00    +0.000 A 
ATOM      4  C   UNL     1       1.833   7.855  20.144  0.00  0.00    +0.000 A 
ATOM      5  C   UNL     1       1.359   8.877  19.321  0.00  0.00    +0.000 A 
ATOM      6  C   UNL     1       1.384   8.986  17.828  0.00  0.00    +0.000 C 
ENDROOT
BRANCH   4   7
ATOM      7  C   UNL     1       2.245   6.583  19.619  0.00  0.00    +0.000 C 
ATOM      8  O   UNL     1       1.613   5.598  20.001  0.00  0.00    +0.000 OA
ATOM      9  N   UNL     1       3.325   6.354  18.739  0.00  0.00    +0.000 N 
ATOM     10  C   UNL     1       3.439   4.923  18.443  0.00  0.00    +0.000 C 
ATOM     11  C   UNL     1       4.804   4.491  18.002  0.00  0.00    +0.000 C 
ATOM     12  N   UNL     1       5.166   5.281  16.867  0.00  0.00    +0.000 N 
ATOM     13  C   UNL     1       5.789   4.859  15.735  0.00  0.00    +0.000 A 
ATOM     14  C   UNL     1       6.267   3.460  15.553  0.00  0.00    +0.000 C 
ATOM     15  N   UNL     1       5.813   5.877  14.896  0.00  0.00    +0.000 NA
ATOM     16  N   UNL     1       5.161   6.954  15.496  0.00  0.00    +0.000 NA
ATOM     17  C   UNL     1       4.747   6.574  16.689  0.00  0.00    +0.000 A 
ATOM     18  C   UNL     1       3.904   7.304  17.731  0.00  0.00    +0.000 C 
ENDBRANCH   4   7
BRANCH   1  24
ATOM     19  C   UNL     1       1.903  14.480  18.799  0.00  0.00    +0.000 C 
ATOM     20  C   UNL     1       0.883  13.413  19.055  0.00  0.00    +0.000 A 
ATOM     21  C   UNL     1      -0.448  13.576  18.654  0.00  0.00    +0.000 A 
ATOM     22  C   UNL     1      -1.369  12.560  18.863  0.00  0.00    +0.000 A 
ATOM     23  C   UNL     1      -0.961  11.343  19.425  0.00  0.00    +0.000 A 
ATOM     24  C   UNL     1       0.382  11.147  19.775  0.00  0.00    +0.000 A 
ATOM     25  C   UNL     1       1.285  12.206  19.644  0.00  0.00    +0.000 A 
ENDBRANCH   1  24
TORSDOF 2
ENDMDL
MODEL 8
REMARK VINA RESULT:      -7.3      3.289      4.146
REMARK  Name = 
REMARK  5 active torsions:
REMARK  status: ('A' for Active; 'I' for Inactive)
REMARK    1  A    between atoms: C_1  and  C_2
REMARK    2  A    between atoms: C_6  and  N_7
REMARK    3  A    between atoms: C_10  and  C_11
REMARK    4  A    between atoms: C_17  and  C_18
REMARK    5  A    between atoms: C_23  and  C_24
REMARK                            x       y       z     vdW  Elec       q    Type
REMARK                         _______ _______ _______ _____ _____    ______ ____
ROOT
ATOM      1  N   UNL     1       3.522   5.478  17.987  0.00  0.00    +0.000 N 
ATOM      2  N   UNL     1       4.553   6.231  17.515  0.00  0.00    +0.000 NA
ATOM      3  C   UNL     1       4.099   7.487  17.535  0.00  0.00    +0.000 A 
ATOM      4  C   UNL     1       2.832   7.595  18.131  0.00  0.00    +0.000 A 
ATOM      5  C   UNL     1       2.477   6.277  18.416  0.00  0.00    +0.000 A 
ATOM      6  C   UNL     1       1.262   5.747  19.113  0.00  0.00    +0.000 C 
ENDROOT
BRANCH   4   7
ATOM      7  C   UNL     1       1.910   8.685  18.290  0.00  0.00    +0.000 C 
ATOM      8  O   UNL     1       1.425   9.151  17.260  0.00  0.00    +0.000 OA
ATOM      9  N   UNL     1       1.539   9.291  19.510  0.00  0.00    +0.000 N 
ATOM     10  C   UNL     1       0.589  10.379  19.262  0.00  0.00    +0.000 C 
ATOM     11  C   UNL     1       0.547  11.418  20.342  0.00  0.00    +0.000 C 
ATOM     12  N   UNL     1       0.258  10.754  21.575  0.00  0.00    +0.000 N 
ATOM     13  C   UNL     1      -0.581  11.174  22.558  0.00  0.00    +0.000 A 
ATOM     14  C   UNL     1      -1.290  12.484  22.509  0.00  0.00    +0.000 C 
ATOM     15  N   UNL     1      -0.653  10.207  23.452  0.00  0.00    +0.000 NA
ATOM     16  N   UNL     1       0.128   9.140  23.008  0.00  0.00    +0.000 NA
ATOM     17  C   UNL     1       0.661   9.474  21.849  0.00  0.00    +0.000 A 
ATOM     18  C   UNL     1       1.515   8.666  20.875  0.00  0.00    +0.000 C 
ENDBRANCH   4   7
BRANCH   1  24
ATOM     19  C   UNL     1       4.924   1.746  20.845  0.00  0.00    +0.000 C 
ATOM     20  C   UNL     1       4.296   2.221  19.569  0.00  0.00    +0.000 A 
ATOM     21  C   UNL     1       3.614   1.335  18.727  0.00  0.00    +0.000 A 
ATOM     22  C   UNL     1       3.005   1.800  17.572  0.00  0.00    +0.000 A 
ATOM     23  C   UNL     1       3.021   3.168  17.268  0.00  0.00    +0.000 A 
ATOM     24  C   UNL     1       3.650   4.072  18.135  0.00  0.00    +0.000 A 
ATOM     25  C   UNL     1       4.337   3.585  19.250  0.00  0.00    +0.000 A 
ENDBRANCH   1  24
TORSDOF 2
ENDMDL
MODEL 9
REMARK VINA RESULT:      -7.2      2.760      4.021
REMARK  Name = 
REMARK  5 active torsions:
REMARK  status: ('A' for Active; 'I' for Inactive)
REMARK    1  A    between atoms: C_1  and  C_2
REMARK    2  A    between atoms: C_6  and  N_7
REMARK    3  A    between atoms: C_10  and  C_11
REMARK    4  A    between atoms: C_17  and  C_18
REMARK    5  A    between atoms: C_23  and  C_24
REMARK                            x       y       z     vdW  Elec       q    Type
REMARK                         _______ _______ _______ _____ _____    ______ ____
ROOT
ATOM      1  N   UNL     1       2.183   7.602  19.069  0.00  0.00    +0.000 N 
ATOM      2  N   UNL     1       2.482   8.165  17.866  0.00  0.00    +0.000 NA
ATOM      3  C   UNL     1       1.802   9.314  17.846  0.00  0.00    +0.000 A 
ATOM      4  C   UNL     1       1.159   9.584  19.064  0.00  0.00    +0.000 A 
ATOM      5  C   UNL     1       1.421   8.457  19.844  0.00  0.00    +0.000 A 
ATOM      6  C   UNL     1       1.053   8.178  21.268  0.00  0.00    +0.000 C 
ENDROOT
BRANCH   4   7
ATOM      7  C   UNL     1       0.251  10.612  19.491  0.00  0.00    +0.000 C 
ATOM      8  O   UNL     1      -0.946  10.324  19.492  0.00  0.00    +0.000 OA
ATOM      9  N   UNL     1       0.599  11.926  19.872  0.00  0.00    +0.000 N 
ATOM     10  C   UNL     1      -0.606  12.682  20.226  0.00  0.00    +0.000 C 
ATOM     11  C   UNL     1      -0.456  14.169  20.111  0.00  0.00    +0.000 C 
ATOM     12  N   UNL     1       0.654  14.560  20.923  0.00  0.00    +0.000 N 
ATOM     13  C   UNL     1       0.736  15.646  21.737  0.00  0.00    +0.000 A 
ATOM     14  C   UNL     1      -0.348  16.662  21.837  0.00  0.00    +0.000 C 
ATOM     15  N   UNL     1       1.876  15.557  22.395  0.00  0.00    +0.000 NA
ATOM     16  N   UNL     1       2.510  14.374  22.017  0.00  0.00    +0.000 NA
ATOM     17  C   UNL     1       1.745  13.759  21.136  0.00  0.00    +0.000 A 
ATOM     18  C   UNL     1       1.895  12.397  20.465  0.00  0.00    +0.000 C 
ENDBRANCH   4   7
BRANCH   1  24
ATOM     19  C   UNL     1       1.498   3.230  21.185  0.00  0.00    +0.000 C 
ATOM     20  C   UNL     1       2.406   4.178  20.462  0.00  0.00    +0.000 A 
ATOM     21  C   UNL     1       3.634   3.749  19.946  0.00  0.00    +0.000 A 
ATOM     22  C   UNL     1       4.442   4.630  19.244  0.00  0.00    +0.000 A 
ATOM     23  C   UNL     1       4.010   5.941  18.999  0.00  0.00    +0.000 A 
ATOM     24  C   UNL     1       2.756   6.363  19.460  0.00  0.00    +0.000 A 
ATOM     25  C   UNL     1       1.987   5.497  20.242  0.00  0.00    +0.000 A 
ENDBRANCH   1  24
TORSDOF 2
ENDMDL
