MODEL 1
REMARK VINA RESULT:      -7.3      0.000      0.000
REMARK  Name = 
REMARK  13 active torsions:
REMARK  status: ('A' for Active; 'I' for Inactive)
REMARK    1  A    between atoms: C_1  and  C_2
REMARK    2  A    between atoms: C_2  and  O_3
REMARK    3  A    between atoms: O_3  and  C_4
REMARK    4  A    between atoms: C_4  and  C_6
REMARK    5  A    between atoms: C_12  and  C_14
REMARK    6  A    between atoms: C_14  and  C_24
REMARK    7  A    between atoms: C_15  and  C_16
REMARK    8  A    between atoms: C_19  and  O_20
REMARK    9  A    between atoms: O_20  and  C_21
REMARK   10  A    between atoms: C_27  and  O_28
REMARK   11  A    between atoms: O_28  and  C_29
REMARK   12  A    between atoms: C_30  and  O_31
REMARK   13  A    between atoms: O_31  and  C_32
REMARK                            x       y       z     vdW  Elec       q    Type
REMARK                         _______ _______ _______ _____ _____    ______ ____
ROOT
ATOM      1  C   UNL     1       2.278   7.877  18.511  0.00  0.00    +0.000 C 
ATOM      2  C   UNL     1       3.283   8.163  17.644  0.00  0.00    +0.000 C 
ENDROOT
BRANCH   1   9
ATOM      3  C   UNL     1      -0.424  10.241  20.089  0.00  0.00    +0.000 C 
ATOM      4  C   UNL     1       0.045  11.136  21.257  0.00  0.00    +0.000 C 
ATOM      5  C   UNL     1       0.294  10.337  22.532  0.00  0.00    +0.000 C 
ATOM      6  C   UNL     1       1.198   9.142  22.251  0.00  0.00    +0.000 C 
ATOM      7  C   UNL     1       0.601   8.288  21.133  0.00  0.00    +0.000 C 
ATOM      8  N   UNL     1       0.466   9.065  19.899  0.00  0.00    +0.000 N 
ATOM      9  C   UNL     1       1.279   9.002  18.770  0.00  0.00    +0.000 C 
ATOM     10  O   UNL     1       1.184   9.878  17.903  0.00  0.00    +0.000 OA
BRANCH   3  11
ATOM     11  C   UNL     1      -0.856  11.161  18.930  0.00  0.00    +0.000 C 
ATOM     12  O   UNL     1      -0.441  12.300  18.755  0.00  0.00    +0.000 OA
BRANCH  11  13
ATOM     13  O   UNL     1      -1.935  10.615  18.288  0.00  0.00    +0.000 OA
BRANCH  13  15
ATOM     14  C   UNL     1      -2.610  10.184  16.035  0.00  0.00    +0.000 C 
ATOM     15  C   UNL     1      -2.264  11.260  17.052  0.00  0.00    +0.000 C 
ENDBRANCH  13  15
ENDBRANCH  11  13
ENDBRANCH   3  11
ENDBRANCH   1   9
BRANCH   2  16
ATOM     16  C   UNL     1       4.359   7.251  17.203  0.00  0.00    +0.000 A 
ATOM     17  C   UNL     1       4.451   6.802  15.881  0.00  0.00    +0.000 A 
ATOM     18  C   UNL     1       5.478   5.929  15.502  0.00  0.00    +0.000 A 
ATOM     19  C   UNL     1       6.438   5.516  16.432  0.00  0.00    +0.000 A 
ATOM     20  C   UNL     1       6.339   5.953  17.753  0.00  0.00    +0.000 A 
ATOM     21  C   UNL     1       5.307   6.819  18.135  0.00  0.00    +0.000 A 
BRANCH  19  22
ATOM     22  O   UNL     1       7.395   4.664  15.953  0.00  0.00    +0.000 OA
ATOM     23  C   UNL     1       7.343   4.407  14.553  0.00  0.00    +0.000 C 
ENDBRANCH  19  22
ENDBRANCH   2  16
BRANCH   1  24
ATOM     24  C   UNL     1       2.172   6.488  18.986  0.00  0.00    +0.000 A 
ATOM     25  C   UNL     1       2.521   6.158  20.300  0.00  0.00    +0.000 A 
ATOM     26  C   UNL     1       2.513   4.825  20.704  0.00  0.00    +0.000 A 
ATOM     27  C   UNL     1       2.201   3.799  19.803  0.00  0.00    +0.000 A 
ATOM     28  C   UNL     1       1.881   4.114  18.469  0.00  0.00    +0.000 A 
ATOM     29  C   UNL     1       1.851   5.464  18.081  0.00  0.00    +0.000 A 
BRANCH  27  30
ATOM     30  O   UNL     1       2.319   2.557  20.373  0.00  0.00    +0.000 OA
ATOM     31  C   UNL     1       1.843   2.388  21.698  0.00  0.00    +0.000 C 
ENDBRANCH  27  30
BRANCH  28  32
ATOM     32  O   UNL     1       1.650   3.084  17.596  0.00  0.00    +0.000 OA
ATOM     33  C   UNL     1       2.730   2.215  17.280  0.00  0.00    +0.000 C 
ENDBRANCH  28  32
ENDBRANCH   1  24
TORSDOF 9
ENDMDL
MODEL 2
REMARK VINA RESULT:      -7.1      4.913      9.163
REMARK  Name = 
REMARK  13 active torsions:
REMARK  status: ('A' for Active; 'I' for Inactive)
REMARK    1  A    between atoms: C_1  and  C_2
REMARK    2  A    between atoms: C_2  and  O_3
REMARK    3  A    between atoms: O_3  and  C_4
REMARK    4  A    between atoms: C_4  and  C_6
REMARK    5  A    between atoms: C_12  and  C_14
REMARK    6  A    between atoms: C_14  and  C_24
REMARK    7  A    between atoms: C_15  and  C_16
REMARK    8  A    between atoms: C_19  and  O_20
REMARK    9  A    between atoms: O_20  and  C_21
REMARK   10  A    between atoms: C_27  and  O_28
REMARK   11  A    between atoms: O_28  and  C_29
REMARK   12  A    between atoms: C_30  and  O_31
REMARK   13  A    between atoms: O_31  and  C_32
REMARK                            x       y       z     vdW  Elec       q    Type
REMARK                         _______ _______ _______ _____ _____    ______ ____
ROOT
ATOM      1  C   UNL     1      -3.008  13.110  21.061  0.00  0.00    +0.000 C 
ATOM      2  C   UNL     1      -2.759  14.445  21.078  0.00  0.00    +0.000 C 
ENDROOT
BRANCH   1   9
ATOM      3  C   UNL     1      -6.783  12.127  20.654  0.00  0.00    +0.000 C 
ATOM      4  C   UNL     1      -7.068  10.728  20.066  0.00  0.00    +0.000 C 
ATOM      5  C   UNL     1      -6.741  10.649  18.578  0.00  0.00    +0.000 C 
ATOM      6  C   UNL     1      -5.335  11.172  18.307  0.00  0.00    +0.000 C 
ATOM      7  C   UNL     1      -5.189  12.588  18.864  0.00  0.00    +0.000 C 
ATOM      8  N   UNL     1      -5.417  12.605  20.310  0.00  0.00    +0.000 N 
ATOM      9  C   UNL     1      -4.456  12.698  21.315  0.00  0.00    +0.000 C 
ATOM     10  O   UNL     1      -4.777  12.467  22.486  0.00  0.00    +0.000 OA
BRANCH   3  11
ATOM     11  C   UNL     1      -7.348  12.164  22.087  0.00  0.00    +0.000 C 
ATOM     12  O   UNL     1      -7.558  11.175  22.778  0.00  0.00    +0.000 OA
BRANCH  11  13
ATOM     13  O   UNL     1      -7.806  13.424  22.368  0.00  0.00    +0.000 OA
BRANCH  13  15
ATOM     14  C   UNL     1      -6.838  15.019  23.864  0.00  0.00    +0.000 C 
ATOM     15  C   UNL     1      -7.714  13.781  23.753  0.00  0.00    +0.000 C 
ENDBRANCH  13  15
ENDBRANCH  11  13
ENDBRANCH   3  11
ENDBRANCH   1   9
BRANCH   2  16
ATOM     16  C   UNL     1      -1.460  15.107  20.837  0.00  0.00    +0.000 A 
ATOM     17  C   UNL     1      -0.558  15.362  21.875  0.00  0.00    +0.000 A 
ATOM     18  C   UNL     1       0.660  16.002  21.610  0.00  0.00    +0.000 A 
ATOM     19  C   UNL     1       1.000  16.368  20.304  0.00  0.00    +0.000 A 
ATOM     20  C   UNL     1       0.096  16.125  19.271  0.00  0.00    +0.000 A 
ATOM     21  C   UNL     1      -1.126  15.493  19.536  0.00  0.00    +0.000 A 
BRANCH  19  22
ATOM     22  O   UNL     1       2.213  16.985  20.162  0.00  0.00    +0.000 OA
ATOM     23  C   UNL     1       3.347  16.125  20.190  0.00  0.00    +0.000 C 
ENDBRANCH  19  22
ENDBRANCH   2  16
BRANCH   1  24
ATOM     24  C   UNL     1      -1.905  12.222  20.658  0.00  0.00    +0.000 A 
ATOM     25  C   UNL     1      -1.771  11.816  19.327  0.00  0.00    +0.000 A 
ATOM     26  C   UNL     1      -0.786  10.895  18.981  0.00  0.00    +0.000 A 
ATOM     27  C   UNL     1       0.052  10.334  19.954  0.00  0.00    +0.000 A 
ATOM     28  C   UNL     1      -0.094  10.709  21.302  0.00  0.00    +0.000 A 
ATOM     29  C   UNL     1      -1.064  11.669  21.636  0.00  0.00    +0.000 A 
BRANCH  27  30
ATOM     30  O   UNL     1       0.905   9.400  19.424  0.00  0.00    +0.000 OA
ATOM     31  C   UNL     1       1.403   9.623  18.115  0.00  0.00    +0.000 C 
ENDBRANCH  27  30
BRANCH  28  32
ATOM     32  O   UNL     1       0.692  10.089  22.237  0.00  0.00    +0.000 OA
ATOM     33  C   UNL     1       0.059   9.497  23.364  0.00  0.00    +0.000 C 
ENDBRANCH  28  32
ENDBRANCH   1  24
TORSDOF 9
ENDMDL
MODEL 3
REMARK VINA RESULT:      -7.1      4.049      7.467
REMARK  Name = 
REMARK  13 active torsions:
REMARK  status: ('A' for Active; 'I' for Inactive)
REMARK    1  A    between atoms: C_1  and  C_2
REMARK    2  A    between atoms: C_2  and  O_3
REMARK    3  A    between atoms: O_3  and  C_4
REMARK    4  A    between atoms: C_4  and  C_6
REMARK    5  A    between atoms: C_12  and  C_14
REMARK    6  A    between atoms: C_14  and  C_24
REMARK    7  A    between atoms: C_15  and  C_16
REMARK    8  A    between atoms: C_19  and  O_20
REMARK    9  A    between atoms: O_20  and  C_21
REMARK   10  A    between atoms: C_27  and  O_28
REMARK   11  A    between atoms: O_28  and  C_29
REMARK   12  A    between atoms: C_30  and  O_31
REMARK   13  A    between atoms: O_31  and  C_32
REMARK                            x       y       z     vdW  Elec       q    Type
REMARK                         _______ _______ _______ _____ _____    ______ ____
ROOT
ATOM      1  C   UNL     1      -1.087  11.883  20.089  0.00  0.00    +0.000 C 
ATOM      2  C   UNL     1      -1.029  10.533  19.958  0.00  0.00    +0.000 C 
ENDROOT
BRANCH   1   9
ATOM      3  C   UNL     1      -3.885  13.213  22.493  0.00  0.00    +0.000 C 
ATOM      4  C   UNL     1      -3.654  14.611  23.109  0.00  0.00    +0.000 C 
ATOM      5  C   UNL     1      -2.554  14.602  24.165  0.00  0.00    +0.000 C 
ATOM      6  C   UNL     1      -1.294  13.935  23.625  0.00  0.00    +0.000 C 
ATOM      7  C   UNL     1      -1.625  12.533  23.113  0.00  0.00    +0.000 C 
ATOM      8  N   UNL     1      -2.613  12.592  22.035  0.00  0.00    +0.000 N 
ATOM      9  C   UNL     1      -2.383  12.443  20.669  0.00  0.00    +0.000 C 
ATOM     10  O   UNL     1      -3.271  12.748  19.866  0.00  0.00    +0.000 OA
BRANCH   3  11
ATOM     11  C   UNL     1      -5.148  13.285  21.613  0.00  0.00    +0.000 C 
ATOM     12  O   UNL     1      -5.575  14.308  21.090  0.00  0.00    +0.000 OA
BRANCH  11  13
ATOM     13  O   UNL     1      -5.843  12.109  21.710  0.00  0.00    +0.000 OA
BRANCH  13  15
ATOM     14  C   UNL     1      -7.514  12.387  23.398  0.00  0.00    +0.000 C 
ATOM     15  C   UNL     1      -7.252  12.280  21.904  0.00  0.00    +0.000 C 
ENDBRANCH  13  15
ENDBRANCH  11  13
ENDBRANCH   3  11
ENDBRANCH   1   9
BRANCH   2  16
ATOM     16  C   UNL     1       0.111   9.739  19.453  0.00  0.00    +0.000 A 
ATOM     17  C   UNL     1       0.462   9.731  18.099  0.00  0.00    +0.000 A 
ATOM     18  C   UNL     1       1.542   8.958  17.655  0.00  0.00    +0.000 A 
ATOM     19  C   UNL     1       2.298   8.207  18.561  0.00  0.00    +0.000 A 
ATOM     20  C   UNL     1       1.939   8.204  19.909  0.00  0.00    +0.000 A 
ATOM     21  C   UNL     1       0.854   8.970  20.352  0.00  0.00    +0.000 A 
BRANCH  19  22
ATOM     22  O   UNL     1       3.328   7.490  18.018  0.00  0.00    +0.000 OA
ATOM     23  C   UNL     1       3.360   6.107  18.356  0.00  0.00    +0.000 C 
ENDBRANCH  19  22
ENDBRANCH   2  16
BRANCH   1  24
ATOM     24  C   UNL     1       0.142  12.642  19.804  0.00  0.00    +0.000 A 
ATOM     25  C   UNL     1       0.423  13.078  18.505  0.00  0.00    +0.000 A 
ATOM     26  C   UNL     1       1.637  13.703  18.232  0.00  0.00    +0.000 A 
ATOM     27  C   UNL     1       2.605  13.868  19.231  0.00  0.00    +0.000 A 
ATOM     28  C   UNL     1       2.349  13.404  20.535  0.00  0.00    +0.000 A 
ATOM     29  C   UNL     1       1.106  12.812  20.810  0.00  0.00    +0.000 A 
BRANCH  27  30
ATOM     30  O   UNL     1       3.754  14.440  18.748  0.00  0.00    +0.000 OA
ATOM     31  C   UNL     1       3.633  15.629  17.984  0.00  0.00    +0.000 C 
ENDBRANCH  27  30
BRANCH  28  32
ATOM     32  O   UNL     1       3.343  13.517  21.471  0.00  0.00    +0.000 OA
ATOM     33  C   UNL     1       3.588  14.796  22.041  0.00  0.00    +0.000 C 
ENDBRANCH  28  32
ENDBRANCH   1  24
TORSDOF 9
ENDMDL
MODEL 4
REMARK VINA RESULT:      -6.9      2.383      8.279
REMARK  Name = 
REMARK  13 active torsions:
REMARK  status: ('A' for Active; 'I' for Inactive)
REMARK    1  A    between atoms: C_1  and  C_2
REMARK    2  A    between atoms: C_2  and  O_3
REMARK    3  A    between atoms: O_3  and  C_4
REMARK    4  A    between atoms: C_4  and  C_6
REMARK    5  A    between atoms: C_12  and  C_14
REMARK    6  A    between atoms: C_14  and  C_24
REMARK    7  A    between atoms: C_15  and  C_16
REMARK    8  A    between atoms: C_19  and  O_20
REMARK    9  A    between atoms: O_20  and  C_21
REMARK   10  A    between atoms: C_27  and  O_28
REMARK   11  A    between atoms: O_28  and  C_29
REMARK   12  A    between atoms: C_30  and  O_31
REMARK   13  A    between atoms: O_31  and  C_32
REMARK                            x       y       z     vdW  Elec       q    Type
REMARK                         _______ _______ _______ _____ _____    ______ ____
ROOT
ATOM      1  C   UNL     1       1.049   8.927  18.381  0.00  0.00    +0.000 C 
ATOM      2  C   UNL     1       0.181   9.233  17.383  0.00  0.00    +0.000 C 
ENDROOT
BRANCH   1   9
ATOM      3  C   UNL     1       4.007   6.361  18.163  0.00  0.00    +0.000 C 
ATOM      4  C   UNL     1       3.644   4.932  17.703  0.00  0.00    +0.000 C 
ATOM      5  C   UNL     1       2.869   4.163  18.768  0.00  0.00    +0.000 C 
ATOM      6  C   UNL     1       1.687   4.983  19.272  0.00  0.00    +0.000 C 
ATOM      7  C   UNL     1       2.171   6.345  19.770  0.00  0.00    +0.000 C 
ATOM      8  N   UNL     1       2.824   7.091  18.693  0.00  0.00    +0.000 N 
ATOM      9  C   UNL     1       2.299   8.155  17.964  0.00  0.00    +0.000 C 
ATOM     10  O   UNL     1       2.873   8.530  16.936  0.00  0.00    +0.000 OA
BRANCH   3  11
ATOM     11  C   UNL     1       4.966   6.966  17.119  0.00  0.00    +0.000 C 
ATOM     12  O   UNL     1       4.940   6.712  15.920  0.00  0.00    +0.000 OA
BRANCH  11  13
ATOM     13  O   UNL     1       5.987   7.619  17.756  0.00  0.00    +0.000 OA
BRANCH  13  15
ATOM     14  C   UNL     1       7.663   6.153  18.630  0.00  0.00    +0.000 C 
ATOM     15  C   UNL     1       7.285   7.077  17.483  0.00  0.00    +0.000 C 
ENDBRANCH  13  15
ENDBRANCH  11  13
ENDBRANCH   3  11
ENDBRANCH   1   9
BRANCH   2  16
ATOM     16  C   UNL     1      -1.082   9.991  17.509  0.00  0.00    +0.000 A 
ATOM     17  C   UNL     1      -1.125  11.263  18.090  0.00  0.00    +0.000 A 
ATOM     18  C   UNL     1      -2.342  11.946  18.204  0.00  0.00    +0.000 A 
ATOM     19  C   UNL     1      -3.523  11.379  17.714  0.00  0.00    +0.000 A 
ATOM     20  C   UNL     1      -3.483  10.106  17.147  0.00  0.00    +0.000 A 
ATOM     21  C   UNL     1      -2.267   9.418  17.042  0.00  0.00    +0.000 A 
BRANCH  19  22
ATOM     22  O   UNL     1      -4.652  12.134  17.877  0.00  0.00    +0.000 OA
ATOM     23  C   UNL     1      -5.197  12.147  19.193  0.00  0.00    +0.000 C 
ENDBRANCH  19  22
ENDBRANCH   2  16
BRANCH   1  24
ATOM     24  C   UNL     1       0.775   9.493  19.712  0.00  0.00    +0.000 A 
ATOM     25  C   UNL     1      -0.050   8.815  20.615  0.00  0.00    +0.000 A 
ATOM     26  C   UNL     1      -0.382   9.410  21.829  0.00  0.00    +0.000 A 
ATOM     27  C   UNL     1       0.062  10.700  22.147  0.00  0.00    +0.000 A 
ATOM     28  C   UNL     1       0.865  11.408  21.232  0.00  0.00    +0.000 A 
ATOM     29  C   UNL     1       1.230  10.782  20.028  0.00  0.00    +0.000 A 
BRANCH  27  30
ATOM     30  O   UNL     1      -0.430  11.134  23.351  0.00  0.00    +0.000 OA
ATOM     31  C   UNL     1      -1.727  11.707  23.370  0.00  0.00    +0.000 C 
ENDBRANCH  27  30
BRANCH  28  32
ATOM     32  O   UNL     1       1.224  12.693  21.542  0.00  0.00    +0.000 OA
ATOM     33  C   UNL     1       2.012  13.415  20.605  0.00  0.00    +0.000 C 
ENDBRANCH  28  32
ENDBRANCH   1  24
TORSDOF 9
ENDMDL
MODEL 5
REMARK VINA RESULT:      -6.9      3.936      7.402
REMARK  Name = 
REMARK  13 active torsions:
REMARK  status: ('A' for Active; 'I' for Inactive)
REMARK    1  A    between atoms: C_1  and  C_2
REMARK    2  A    between atoms: C_2  and  O_3
REMARK    3  A    between atoms: O_3  and  C_4
REMARK    4  A    between atoms: C_4  and  C_6
REMARK    5  A    between atoms: C_12  and  C_14
REMARK    6  A    between atoms: C_14  and  C_24
REMARK    7  A    between atoms: C_15  and  C_16
REMARK    8  A    between atoms: C_19  and  O_20
REMARK    9  A    between atoms: O_20  and  C_21
REMARK   10  A    between atoms: C_27  and  O_28
REMARK   11  A    between atoms: O_28  and  C_29
REMARK   12  A    between atoms: C_30  and  O_31
REMARK   13  A    between atoms: O_31  and  C_32
REMARK                            x       y       z     vdW  Elec       q    Type
REMARK                         _______ _______ _______ _____ _____    ______ ____
ROOT
ATOM      1  C   UNL     1      -0.967  11.899  20.139  0.00  0.00    +0.000 C 
ATOM      2  C   UNL     1      -0.933  10.546  20.020  0.00  0.00    +0.000 C 
ENDROOT
BRANCH   1   9
ATOM      3  C   UNL     1      -3.699  13.367  22.540  0.00  0.00    +0.000 C 
ATOM      4  C   UNL     1      -3.464  14.806  23.048  0.00  0.00    +0.000 C 
ATOM      5  C   UNL     1      -2.329  14.882  24.064  0.00  0.00    +0.000 C 
ATOM      6  C   UNL     1      -1.080  14.191  23.528  0.00  0.00    +0.000 C 
ATOM      7  C   UNL     1      -1.411  12.753  23.127  0.00  0.00    +0.000 C 
ATOM      8  N   UNL     1      -2.436  12.727  22.082  0.00  0.00    +0.000 N 
ATOM      9  C   UNL     1      -2.250  12.485  20.723  0.00  0.00    +0.000 C 
ATOM     10  O   UNL     1      -3.168  12.725  19.932  0.00  0.00    +0.000 OA
BRANCH   3  11
ATOM     11  C   UNL     1      -4.991  13.364  21.700  0.00  0.00    +0.000 C 
ATOM     12  O   UNL     1      -5.486  14.358  21.181  0.00  0.00    +0.000 OA
BRANCH  11  13
ATOM     13  O   UNL     1      -5.623  12.157  21.834  0.00  0.00    +0.000 OA
BRANCH  13  15
ATOM     14  C   UNL     1      -7.828  11.613  21.083  0.00  0.00    +0.000 C 
ATOM     15  C   UNL     1      -6.370  11.760  20.677  0.00  0.00    +0.000 C 
ENDBRANCH  13  15
ENDBRANCH  11  13
ENDBRANCH   3  11
ENDBRANCH   1   9
BRANCH   2  16
ATOM     16  C   UNL     1       0.190   9.730  19.514  0.00  0.00    +0.000 A 
ATOM     17  C   UNL     1       0.985   8.958  20.368  0.00  0.00    +0.000 A 
ATOM     18  C   UNL     1       2.048   8.205  19.853  0.00  0.00    +0.000 A 
ATOM     19  C   UNL     1       2.312   8.195  18.480  0.00  0.00    +0.000 A 
ATOM     20  C   UNL     1       1.528   8.975  17.630  0.00  0.00    +0.000 A 
ATOM     21  C   UNL     1       0.470   9.735  18.145  0.00  0.00    +0.000 A 
BRANCH  19  22
ATOM     22  O   UNL     1       3.373   7.426  18.089  0.00  0.00    +0.000 OA
ATOM     23  C   UNL     1       3.124   6.025  18.019  0.00  0.00    +0.000 C 
ENDBRANCH  19  22
ENDBRANCH   2  16
BRANCH   1  24
ATOM     24  C   UNL     1       0.272  12.634  19.838  0.00  0.00    +0.000 A 
ATOM     25  C   UNL     1       0.588  12.985  18.521  0.00  0.00    +0.000 A 
ATOM     26  C   UNL     1       1.811  13.589  18.241  0.00  0.00    +0.000 A 
ATOM     27  C   UNL     1       2.754  13.815  19.252  0.00  0.00    +0.000 A 
ATOM     28  C   UNL     1       2.463  13.435  20.576  0.00  0.00    +0.000 A 
ATOM     29  C   UNL     1       1.210  12.865  20.856  0.00  0.00    +0.000 A 
BRANCH  27  30
ATOM     30  O   UNL     1       3.917  14.351  18.763  0.00  0.00    +0.000 OA
ATOM     31  C   UNL     1       3.834  15.571  18.044  0.00  0.00    +0.000 C 
ENDBRANCH  27  30
BRANCH  28  32
ATOM     32  O   UNL     1       3.433  13.605  21.528  0.00  0.00    +0.000 OA
ATOM     33  C   UNL     1       3.539  14.873  22.162  0.00  0.00    +0.000 C 
ENDBRANCH  28  32
ENDBRANCH   1  24
TORSDOF 9
ENDMDL
MODEL 6
REMARK VINA RESULT:      -6.9      0.777      1.218
REMARK  Name = 
REMARK  13 active torsions:
REMARK  status: ('A' for Active; 'I' for Inactive)
REMARK    1  A    between atoms: C_1  and  C_2
REMARK    2  A    between atoms: C_2  and  O_3
REMARK    3  A    between atoms: O_3  and  C_4
REMARK    4  A    between atoms: C_4  and  C_6
REMARK    5  A    between atoms: C_12  and  C_14
REMARK    6  A    between atoms: C_14  and  C_24
REMARK    7  A    between atoms: C_15  and  C_16
REMARK    8  A    between atoms: C_19  and  O_20
REMARK    9  A    between atoms: O_20  and  C_21
REMARK   10  A    between atoms: C_27  and  O_28
REMARK   11  A    between atoms: O_28  and  C_29
REMARK   12  A    between atoms: C_30  and  O_31
REMARK   13  A    between atoms: O_31  and  C_32
REMARK                            x       y       z     vdW  Elec       q    Type
REMARK                         _______ _______ _______ _____ _____    ______ ____
ROOT
ATOM      1  C   UNL     1       2.331   7.814  18.393  0.00  0.00    +0.000 C 
ATOM      2  C   UNL     1       3.437   8.045  17.639  0.00  0.00    +0.000 C 
ENDROOT
BRANCH   1   9
ATOM      3  C   UNL     1      -0.472  10.325  19.496  0.00  0.00    +0.000 C 
ATOM      4  C   UNL     1      -0.076  11.371  20.561  0.00  0.00    +0.000 C 
ATOM      5  C   UNL     1       0.106  10.749  21.941  0.00  0.00    +0.000 C 
ATOM      6  C   UNL     1       1.033   9.541  21.869  0.00  0.00    +0.000 C 
ATOM      7  C   UNL     1       0.506   8.540  20.842  0.00  0.00    +0.000 C 
ATOM      8  N   UNL     1       0.436   9.147  19.512  0.00  0.00    +0.000 N 
ATOM      9  C   UNL     1       1.311   8.948  18.446  0.00  0.00    +0.000 C 
ATOM     10  O   UNL     1       1.259   9.702  17.468  0.00  0.00    +0.000 OA
BRANCH   3  11
ATOM     11  C   UNL     1      -0.845  11.079  18.204  0.00  0.00    +0.000 C 
ATOM     12  O   UNL     1      -0.685  12.281  18.030  0.00  0.00    +0.000 OA
BRANCH  11  13
ATOM     13  O   UNL     1      -1.596  10.266  17.398  0.00  0.00    +0.000 OA
BRANCH  13  15
ATOM     14  C   UNL     1      -3.868  10.988  17.213  0.00  0.00    +0.000 C 
ATOM     15  C   UNL     1      -2.917  10.016  17.893  0.00  0.00    +0.000 C 
ENDBRANCH  13  15
ENDBRANCH  11  13
ENDBRANCH   3  11
ENDBRANCH   1   9
BRANCH   2  16
ATOM     16  C   UNL     1       4.557   7.111  17.400  0.00  0.00    +0.000 A 
ATOM     17  C   UNL     1       5.399   6.687  18.433  0.00  0.00    +0.000 A 
ATOM     18  C   UNL     1       6.458   5.809  18.166  0.00  0.00    +0.000 A 
ATOM     19  C   UNL     1       6.669   5.326  16.871  0.00  0.00    +0.000 A 
ATOM     20  C   UNL     1       5.838   5.759  15.838  0.00  0.00    +0.000 A 
ATOM     21  C   UNL     1       4.785   6.644  16.103  0.00  0.00    +0.000 A 
BRANCH  19  22
ATOM     22  O   UNL     1       7.730   4.476  16.725  0.00  0.00    +0.000 OA
ATOM     23  C   UNL     1       8.470   4.207  17.912  0.00  0.00    +0.000 C 
ENDBRANCH  19  22
ENDBRANCH   2  16
BRANCH   1  24
ATOM     24  C   UNL     1       2.163   6.461  18.947  0.00  0.00    +0.000 A 
ATOM     25  C   UNL     1       2.450   6.203  20.291  0.00  0.00    +0.000 A 
ATOM     26  C   UNL     1       2.385   4.899  20.775  0.00  0.00    +0.000 A 
ATOM     27  C   UNL     1       2.075   3.828  19.925  0.00  0.00    +0.000 A 
ATOM     28  C   UNL     1       1.817   4.069  18.563  0.00  0.00    +0.000 A 
ATOM     29  C   UNL     1       1.845   5.393  18.093  0.00  0.00    +0.000 A 
BRANCH  27  30
ATOM     30  O   UNL     1       2.131   2.621  20.574  0.00  0.00    +0.000 OA
ATOM     31  C   UNL     1       1.445   2.500  21.809  0.00  0.00    +0.000 C 
ENDBRANCH  27  30
BRANCH  28  32
ATOM     32  O   UNL     1       1.588   2.994  17.745  0.00  0.00    +0.000 OA
ATOM     33  C   UNL     1       2.700   2.206  17.343  0.00  0.00    +0.000 C 
ENDBRANCH  28  32
ENDBRANCH   1  24
TORSDOF 9
ENDMDL
MODEL 7
REMARK VINA RESULT:      -6.9      1.177      1.563
REMARK  Name = 
REMARK  13 active torsions:
REMARK  status: ('A' for Active; 'I' for Inactive)
REMARK    1  A    between atoms: C_1  and  C_2
REMARK    2  A    between atoms: C_2  and  O_3
REMARK    3  A    between atoms: O_3  and  C_4
REMARK    4  A    between atoms: C_4  and  C_6
REMARK    5  A    between atoms: C_12  and  C_14
REMARK    6  A    between atoms: C_14  and  C_24
REMARK    7  A    between atoms: C_15  and  C_16
REMARK    8  A    between atoms: C_19  and  O_20
REMARK    9  A    between atoms: O_20  and  C_21
REMARK   10  A    between atoms: C_27  and  O_28
REMARK   11  A    between atoms: O_28  and  C_29
REMARK   12  A    between atoms: C_30  and  O_31
REMARK   13  A    between atoms: O_31  and  C_32
REMARK                            x       y       z     vdW  Elec       q    Type
REMARK                         _______ _______ _______ _____ _____    ______ ____
ROOT
ATOM      1  C   UNL     1       2.686   7.738  18.287  0.00  0.00    +0.000 C 
ATOM      2  C   UNL     1       3.599   8.077  17.341  0.00  0.00    +0.000 C 
ENDROOT
BRANCH   1   9
ATOM      3  C   UNL     1      -0.076   9.902  20.039  0.00  0.00    +0.000 C 
ATOM      4  C   UNL     1       0.381  10.755  21.243  0.00  0.00    +0.000 C 
ATOM      5  C   UNL     1       0.691   9.904  22.469  0.00  0.00    +0.000 C 
ATOM      6  C   UNL     1       1.638   8.764  22.109  0.00  0.00    +0.000 C 
ATOM      7  C   UNL     1       1.052   7.944  20.960  0.00  0.00    +0.000 C 
ATOM      8  N   UNL     1       0.858   8.776  19.771  0.00  0.00    +0.000 N 
ATOM      9  C   UNL     1       1.647   8.805  18.624  0.00  0.00    +0.000 C 
ATOM     10  O   UNL     1       1.497   9.719  17.806  0.00  0.00    +0.000 OA
BRANCH   3  11
ATOM     11  C   UNL     1      -0.571  10.860  18.938  0.00  0.00    +0.000 C 
ATOM     12  O   UNL     1      -1.310  10.537  18.016  0.00  0.00    +0.000 OA
BRANCH  11  13
ATOM     13  O   UNL     1       0.127  12.036  19.005  0.00  0.00    +0.000 OA
BRANCH  13  15
ATOM     14  C   UNL     1      -0.222  14.402  19.037  0.00  0.00    +0.000 C 
ATOM     15  C   UNL     1      -0.475  13.112  18.273  0.00  0.00    +0.000 C 
ENDBRANCH  13  15
ENDBRANCH  11  13
ENDBRANCH   3  11
ENDBRANCH   1   9
BRANCH   2  16
ATOM     16  C   UNL     1       4.688   7.226  16.816  0.00  0.00    +0.000 A 
ATOM     17  C   UNL     1       4.522   6.438  15.672  0.00  0.00    +0.000 A 
ATOM     18  C   UNL     1       5.573   5.635  15.210  0.00  0.00    +0.000 A 
ATOM     19  C   UNL     1       6.806   5.631  15.870  0.00  0.00    +0.000 A 
ATOM     20  C   UNL     1       6.967   6.406  17.018  0.00  0.00    +0.000 A 
ATOM     21  C   UNL     1       5.914   7.202  17.486  0.00  0.00    +0.000 A 
BRANCH  19  22
ATOM     22  O   UNL     1       7.759   4.810  15.332  0.00  0.00    +0.000 OA
ATOM     23  C   UNL     1       7.538   4.414  13.982  0.00  0.00    +0.000 C 
ENDBRANCH  19  22
ENDBRANCH   2  16
BRANCH   1  24
ATOM     24  C   UNL     1       2.700   6.349  18.772  0.00  0.00    +0.000 A 
ATOM     25  C   UNL     1       3.630   5.941  19.734  0.00  0.00    +0.000 A 
ATOM     26  C   UNL     1       3.698   4.601  20.107  0.00  0.00    +0.000 A 
ATOM     27  C   UNL     1       2.876   3.641  19.502  0.00  0.00    +0.000 A 
ATOM     28  C   UNL     1       1.959   4.032  18.508  0.00  0.00    +0.000 A 
ATOM     29  C   UNL     1       1.869   5.392  18.169  0.00  0.00    +0.000 A 
BRANCH  27  30
ATOM     30  O   UNL     1       3.144   2.374  19.954  0.00  0.00    +0.000 OA
ATOM     31  C   UNL     1       4.495   2.038  20.223  0.00  0.00    +0.000 C 
ENDBRANCH  27  30
BRANCH  28  32
ATOM     32  O   UNL     1       1.221   3.059  17.888  0.00  0.00    +0.000 OA
ATOM     33  C   UNL     1       0.466   2.167  18.698  0.00  0.00    +0.000 C 
ENDBRANCH  28  32
ENDBRANCH   1  24
TORSDOF 9
ENDMDL
MODEL 8
REMARK VINA RESULT:      -6.9      4.960      8.918
REMARK  Name = 
REMARK  13 active torsions:
REMARK  status: ('A' for Active; 'I' for Inactive)
REMARK    1  A    between atoms: C_1  and  C_2
REMARK    2  A    between atoms: C_2  and  O_3
REMARK    3  A    between atoms: O_3  and  C_4
REMARK    4  A    between atoms: C_4  and  C_6
REMARK    5  A    between atoms: C_12  and  C_14
REMARK    6  A    between atoms: C_14  and  C_24
REMARK    7  A    between atoms: C_15  and  C_16
REMARK    8  A    between atoms: C_19  and  O_20
REMARK    9  A    between atoms: O_20  and  C_21
REMARK   10  A    between atoms: C_27  and  O_28
REMARK   11  A    between atoms: O_28  and  C_29
REMARK   12  A    between atoms: C_30  and  O_31
REMARK   13  A    between atoms: O_31  and  C_32
REMARK                            x       y       z     vdW  Elec       q    Type
REMARK                         _______ _______ _______ _____ _____    ______ ____
ROOT
ATOM      1  C   UNL     1      -3.024  12.926  21.668  0.00  0.00    +0.000 C 
ATOM      2  C   UNL     1      -2.636  14.228  21.644  0.00  0.00    +0.000 C 
ENDROOT
BRANCH   1   9
ATOM      3  C   UNL     1      -6.896  12.395  21.345  0.00  0.00    +0.000 C 
ATOM      4  C   UNL     1      -7.356  11.055  20.730  0.00  0.00    +0.000 C 
ATOM      5  C   UNL     1      -7.079  10.983  19.232  0.00  0.00    +0.000 C 
ATOM      6  C   UNL     1      -5.630  11.348  18.934  0.00  0.00    +0.000 C 
ATOM      7  C   UNL     1      -5.306  12.722  19.523  0.00  0.00    +0.000 C 
ATOM      8  N   UNL     1      -5.493  12.723  20.974  0.00  0.00    +0.000 N 
ATOM      9  C   UNL     1      -4.503  12.677  21.953  0.00  0.00    +0.000 C 
ATOM     10  O   UNL     1      -4.817  12.450  23.126  0.00  0.00    +0.000 OA
BRANCH   3  11
ATOM     11  C   UNL     1      -7.416  12.456  22.795  0.00  0.00    +0.000 C 
ATOM     12  O   UNL     1      -7.562  11.481  23.523  0.00  0.00    +0.000 OA
BRANCH  11  13
ATOM     13  O   UNL     1      -7.916  13.704  23.052  0.00  0.00    +0.000 OA
BRANCH  13  15
ATOM     14  C   UNL     1      -6.463  15.447  23.810  0.00  0.00    +0.000 C 
ATOM     15  C   UNL     1      -7.383  14.313  24.235  0.00  0.00    +0.000 C 
ENDBRANCH  13  15
ENDBRANCH  11  13
ENDBRANCH   3  11
ENDBRANCH   1   9
BRANCH   2  16
ATOM     16  C   UNL     1      -1.278  14.742  21.366  0.00  0.00    +0.000 A 
ATOM     17  C   UNL     1      -0.878  15.115  20.079  0.00  0.00    +0.000 A 
ATOM     18  C   UNL     1       0.421  15.587  19.853  0.00  0.00    +0.000 A 
ATOM     19  C   UNL     1       1.324  15.716  20.913  0.00  0.00    +0.000 A 
ATOM     20  C   UNL     1       0.930  15.332  22.194  0.00  0.00    +0.000 A 
ATOM     21  C   UNL     1      -0.366  14.851  22.420  0.00  0.00    +0.000 A 
BRANCH  19  22
ATOM     22  O   UNL     1       2.564  16.187  20.577  0.00  0.00    +0.000 OA
ATOM     23  C   UNL     1       3.522  15.196  20.220  0.00  0.00    +0.000 C 
ENDBRANCH  19  22
ENDBRANCH   2  16
BRANCH   1  24
ATOM     24  C   UNL     1      -2.027  11.917  21.274  0.00  0.00    +0.000 A 
ATOM     25  C   UNL     1      -1.172  11.355  22.227  0.00  0.00    +0.000 A 
ATOM     26  C   UNL     1      -0.167  10.479  21.824  0.00  0.00    +0.000 A 
ATOM     27  C   UNL     1       0.030  10.181  20.469  0.00  0.00    +0.000 A 
ATOM     28  C   UNL     1      -0.802  10.767  19.496  0.00  0.00    +0.000 A 
ATOM     29  C   UNL     1      -1.838  11.616  19.917  0.00  0.00    +0.000 A 
BRANCH  27  30
ATOM     30  O   UNL     1       1.110   9.359  20.273  0.00  0.00    +0.000 OA
ATOM     31  C   UNL     1       1.376   8.369  21.253  0.00  0.00    +0.000 C 
ENDBRANCH  27  30
BRANCH  28  32
ATOM     32  O   UNL     1      -0.537  10.511  18.177  0.00  0.00    +0.000 OA
ATOM     33  C   UNL     1      -1.598  10.036  17.358  0.00  0.00    +0.000 C 
ENDBRANCH  28  32
ENDBRANCH   1  24
TORSDOF 9
ENDMDL
MODEL 9
REMARK VINA RESULT:      -6.8      5.116      9.058
REMARK  Name = 
REMARK  13 active torsions:
REMARK  status: ('A' for Active; 'I' for Inactive)
REMARK    1  A    between atoms: C_1  and  C_2
REMARK    2  A    between atoms: C_2  and  O_3
REMARK    3  A    between atoms: O_3  and  C_4
REMARK    4  A    between atoms: C_4  and  C_6
REMARK    5  A    between atoms: C_12  and  C_14
REMARK    6  A    between atoms: C_14  and  C_24
REMARK    7  A    between atoms: C_15  and  C_16
REMARK    8  A    between atoms: C_19  and  O_20
REMARK    9  A    between atoms: O_20  and  C_21
REMARK   10  A    between atoms: C_27  and  O_28
REMARK   11  A    between atoms: O_28  and  C_29
REMARK   12  A    between atoms: C_30  and  O_31
REMARK   13  A    between atoms: O_31  and  C_32
REMARK                            x       y       z     vdW  Elec       q    Type
REMARK                         _______ _______ _______ _____ _____    ______ ____
ROOT
ATOM      1  C   UNL     1      -2.858  13.018  21.575  0.00  0.00    +0.000 C 
ATOM      2  C   UNL     1      -2.370  14.278  21.707  0.00  0.00    +0.000 C 
ENDROOT
BRANCH   1   9
ATOM      3  C   UNL     1      -6.752  12.778  21.979  0.00  0.00    +0.000 C 
ATOM      4  C   UNL     1      -7.452  11.634  21.213  0.00  0.00    +0.000 C 
ATOM      5  C   UNL     1      -7.482  11.880  19.709  0.00  0.00    +0.000 C 
ATOM      6  C   UNL     1      -6.090  12.225  19.191  0.00  0.00    +0.000 C 
ATOM      7  C   UNL     1      -5.525  13.415  19.967  0.00  0.00    +0.000 C 
ATOM      8  N   UNL     1      -5.424  13.105  21.394  0.00  0.00    +0.000 N 
ATOM      9  C   UNL     1      -4.270  12.790  22.109  0.00  0.00    +0.000 C 
ATOM     10  O   UNL     1      -4.370  12.327  23.250  0.00  0.00    +0.000 OA
BRANCH   3  11
ATOM     11  C   UNL     1      -6.970  12.544  23.487  0.00  0.00    +0.000 C 
ATOM     12  O   UNL     1      -7.301  11.474  23.984  0.00  0.00    +0.000 OA
BRANCH  11  13
ATOM     13  O   UNL     1      -6.983  13.747  24.141  0.00  0.00    +0.000 OA
BRANCH  13  15
ATOM     14  C   UNL     1      -6.798  16.044  23.502  0.00  0.00    +0.000 C 
ATOM     15  C   UNL     1      -7.655  14.790  23.425  0.00  0.00    +0.000 C 
ENDBRANCH  13  15
ENDBRANCH  11  13
ENDBRANCH   3  11
ENDBRANCH   1   9
BRANCH   2  16
ATOM     16  C   UNL     1      -1.052  14.769  21.253  0.00  0.00    +0.000 A 
ATOM     17  C   UNL     1      -0.853  15.263  19.959  0.00  0.00    +0.000 A 
ATOM     18  C   UNL     1       0.414  15.709  19.561  0.00  0.00    +0.000 A 
ATOM     19  C   UNL     1       1.487  15.691  20.457  0.00  0.00    +0.000 A 
ATOM     20  C   UNL     1       1.292  15.186  21.743  0.00  0.00    +0.000 A 
ATOM     21  C   UNL     1       0.028  14.732  22.139  0.00  0.00    +0.000 A 
BRANCH  19  22
ATOM     22  O   UNL     1       2.676  16.149  19.962  0.00  0.00    +0.000 OA
ATOM     23  C   UNL     1       2.732  16.310  18.548  0.00  0.00    +0.000 C 
ENDBRANCH  19  22
ENDBRANCH   2  16
BRANCH   1  24
ATOM     24  C   UNL     1      -2.049  12.057  20.808  0.00  0.00    +0.000 A 
ATOM     25  C   UNL     1      -0.957  11.415  21.401  0.00  0.00    +0.000 A 
ATOM     26  C   UNL     1      -0.141  10.588  20.634  0.00  0.00    +0.000 A 
ATOM     27  C   UNL     1      -0.369  10.419  19.262  0.00  0.00    +0.000 A 
ATOM     28  C   UNL     1      -1.444  11.086  18.645  0.00  0.00    +0.000 A 
ATOM     29  C   UNL     1      -2.287  11.885  19.435  0.00  0.00    +0.000 A 
BRANCH  27  30
ATOM     30  O   UNL     1       0.583   9.626  18.674  0.00  0.00    +0.000 OA
ATOM     31  C   UNL     1       1.762  10.251  18.194  0.00  0.00    +0.000 C 
ENDBRANCH  27  30
BRANCH  28  32
ATOM     32  O   UNL     1      -1.597  10.956  17.290  0.00  0.00    +0.000 OA
ATOM     33  C   UNL     1      -2.431   9.913  16.804  0.00  0.00    +0.000 C 
ENDBRANCH  28  32
ENDBRANCH   1  24
TORSDOF 9
ENDMDL
