MODEL 1
REMARK VINA RESULT:      -7.4      0.000      0.000
REMARK  Name = 
REMARK  8 active torsions:
REMARK  status: ('A' for Active; 'I' for Inactive)
REMARK    1  A    between atoms: C_1  and  C_2
REMARK    2  A    between atoms: C_2  and  N_3
REMARK    3  A    between atoms: C_2  and  C_11
REMARK    4  A    between atoms: N_3  and  C_4
REMARK    5  A    between atoms: N_7  and  C_8
REMARK    6  A    between atoms: N_19  and  C_20
REMARK    7  A    between atoms: C_20  and  C_21
REMARK    8  A    between atoms: C_20  and  C_22
REMARK                            x       y       z     vdW  Elec       q    Type
REMARK                         _______ _______ _______ _____ _____    ______ ____
ROOT
ATOM      1  C   UNL     1       3.000   5.707  18.852  0.00  0.00    +0.000 A 
ATOM      2  N   UNL     1       3.554   6.631  18.088  0.00  0.00    +0.000 NA
ATOM      3  C   UNL     1       4.301   5.969  17.162  0.00  0.00    +0.000 A 
ATOM      4  C   UNL     1       5.091   6.507  16.135  0.00  0.00    +0.000 A 
ATOM      5  C   UNL     1       5.792   5.632  15.299  0.00  0.00    +0.000 A 
ATOM      6  C   UNL     1       5.698   4.254  15.483  0.00  0.00    +0.000 A 
ATOM      7  C   UNL     1       4.907   3.704  16.501  0.00  0.00    +0.000 A 
ATOM      8  C   UNL     1       4.209   4.590  17.336  0.00  0.00    +0.000 A 
ATOM      9  N   UNL     1       3.350   4.431  18.412  0.00  0.00    +0.000 N 
ENDROOT
BRANCH   9  10
ATOM     10  C   UNL     1       2.894   3.164  18.988  0.00  0.00    +0.000 C 
ATOM     11  C   UNL     1       2.017   2.323  18.049  0.00  0.00    +0.000 C 
ATOM     12  C   UNL     1       4.057   2.338  19.544  0.00  0.00    +0.000 C 
ENDBRANCH   9  10
BRANCH   1  14
ATOM     13  C   UNL     1       2.138   4.909  21.073  0.00  0.00    +0.000 C 
ATOM     14  C   UNL     1       2.089   6.025  20.017  0.00  0.00    +0.000 C 
BRANCH  14  15
ATOM     15  N   UNL     1       2.321   7.360  20.597  0.00  0.00    +0.000 NA
ATOM     16  H   UNL     1       2.940   7.883  19.973  0.00  0.00    +0.000 HD
BRANCH  15  17
ATOM     17  C   UNL     1       1.125   8.190  20.805  0.00  0.00    +0.000 C 
ATOM     18  C   UNL     1       1.086   8.976  22.118  0.00  0.00    +0.000 C 
ATOM     19  C   UNL     1       0.303  10.221  21.779  0.00  0.00    +0.000 C 
ATOM     20  N   UNL     1       0.672  10.487  20.415  0.00  0.00    +0.000 N 
ATOM     21  C   UNL     1       0.149  11.626  19.706  0.00  0.00    +0.000 C 
ATOM     22  C   UNL     1       1.067   9.321  19.758  0.00  0.00    +0.000 C 
ATOM     23  O   UNL     1       1.259   9.192  18.556  0.00  0.00    +0.000 OA
ENDBRANCH  15  17
ENDBRANCH  14  15
ENDBRANCH   1  14
TORSDOF 4
ENDMDL
MODEL 2
REMARK VINA RESULT:      -7.3      1.484      1.687
REMARK  Name = 
REMARK  8 active torsions:
REMARK  status: ('A' for Active; 'I' for Inactive)
REMARK    1  A    between atoms: C_1  and  C_2
REMARK    2  A    between atoms: C_2  and  N_3
REMARK    3  A    between atoms: C_2  and  C_11
REMARK    4  A    between atoms: N_3  and  C_4
REMARK    5  A    between atoms: N_7  and  C_8
REMARK    6  A    between atoms: N_19  and  C_20
REMARK    7  A    between atoms: C_20  and  C_21
REMARK    8  A    between atoms: C_20  and  C_22
REMARK                            x       y       z     vdW  Elec       q    Type
REMARK                         _______ _______ _______ _____ _____    ______ ____
ROOT
ATOM      1  C   UNL     1       3.619   4.982  19.222  0.00  0.00    +0.000 A 
ATOM      2  N   UNL     1       4.813   5.503  19.436  0.00  0.00    +0.000 NA
ATOM      3  C   UNL     1       5.590   5.133  18.381  0.00  0.00    +0.000 A 
ATOM      4  C   UNL     1       6.942   5.428  18.151  0.00  0.00    +0.000 A 
ATOM      5  C   UNL     1       7.550   4.928  16.995  0.00  0.00    +0.000 A 
ATOM      6  C   UNL     1       6.821   4.160  16.090  0.00  0.00    +0.000 A 
ATOM      7  C   UNL     1       5.468   3.864  16.306  0.00  0.00    +0.000 A 
ATOM      8  C   UNL     1       4.866   4.368  17.469  0.00  0.00    +0.000 A 
ATOM      9  N   UNL     1       3.592   4.297  18.009  0.00  0.00    +0.000 N 
ENDROOT
BRANCH   9  10
ATOM     10  C   UNL     1       2.431   3.625  17.421  0.00  0.00    +0.000 C 
ATOM     11  C   UNL     1       2.197   2.198  17.938  0.00  0.00    +0.000 C 
ATOM     12  C   UNL     1       1.160   4.470  17.541  0.00  0.00    +0.000 C 
ENDBRANCH   9  10
BRANCH   1  14
ATOM     13  C   UNL     1       2.411   4.014  21.201  0.00  0.00    +0.000 C 
ATOM     14  C   UNL     1       2.452   5.154  20.171  0.00  0.00    +0.000 C 
BRANCH  14  15
ATOM     15  N   UNL     1       2.398   6.485  20.800  0.00  0.00    +0.000 NA
ATOM     16  H   UNL     1       3.263   6.985  20.580  0.00  0.00    +0.000 HD
BRANCH  15  17
ATOM     17  C   UNL     1       1.286   7.352  20.382  0.00  0.00    +0.000 C 
ATOM     18  C   UNL     1       0.734   8.286  21.462  0.00  0.00    +0.000 C 
ATOM     19  C   UNL     1       0.257   9.495  20.695  0.00  0.00    +0.000 C 
ATOM     20  N   UNL     1       1.196   9.595  19.611  0.00  0.00    +0.000 N 
ATOM     21  C   UNL     1       1.106  10.651  18.637  0.00  0.00    +0.000 C 
ATOM     22  C   UNL     1       1.760   8.354  19.310  0.00  0.00    +0.000 C 
ATOM     23  O   UNL     1       2.444   8.084  18.332  0.00  0.00    +0.000 OA
ENDBRANCH  15  17
ENDBRANCH  14  15
ENDBRANCH   1  14
TORSDOF 4
ENDMDL
MODEL 3
REMARK VINA RESULT:      -7.2      4.127      5.738
REMARK  Name = 
REMARK  8 active torsions:
REMARK  status: ('A' for Active; 'I' for Inactive)
REMARK    1  A    between atoms: C_1  and  C_2
REMARK    2  A    between atoms: C_2  and  N_3
REMARK    3  A    between atoms: C_2  and  C_11
REMARK    4  A    between atoms: N_3  and  C_4
REMARK    5  A    between atoms: N_7  and  C_8
REMARK    6  A    between atoms: N_19  and  C_20
REMARK    7  A    between atoms: C_20  and  C_21
REMARK    8  A    between atoms: C_20  and  C_22
REMARK                            x       y       z     vdW  Elec       q    Type
REMARK                         _______ _______ _______ _____ _____    ______ ____
ROOT
ATOM      1  C   UNL     1       5.214   4.249  16.014  0.00  0.00    +0.000 A 
ATOM      2  N   UNL     1       4.901   3.643  14.883  0.00  0.00    +0.000 NA
ATOM      3  C   UNL     1       5.845   4.012  13.974  0.00  0.00    +0.000 A 
ATOM      4  C   UNL     1       5.944   3.642  12.625  0.00  0.00    +0.000 A 
ATOM      5  C   UNL     1       7.000   4.155  11.863  0.00  0.00    +0.000 A 
ATOM      6  C   UNL     1       7.935   5.010  12.442  0.00  0.00    +0.000 A 
ATOM      7  C   UNL     1       7.850   5.381  13.791  0.00  0.00    +0.000 A 
ATOM      8  C   UNL     1       6.787   4.863  14.546  0.00  0.00    +0.000 A 
ATOM      9  N   UNL     1       6.385   4.991  15.866  0.00  0.00    +0.000 N 
ENDROOT
BRANCH   9  10
ATOM     10  C   UNL     1       7.057   5.762  16.914  0.00  0.00    +0.000 C 
ATOM     11  C   UNL     1       6.362   7.084  17.270  0.00  0.00    +0.000 C 
ATOM     12  C   UNL     1       7.317   4.921  18.166  0.00  0.00    +0.000 C 
ENDBRANCH   9  10
BRANCH   1  14
ATOM     13  C   UNL     1       3.592   5.382  17.562  0.00  0.00    +0.000 C 
ATOM     14  C   UNL     1       4.407   4.108  17.286  0.00  0.00    +0.000 C 
BRANCH  14  15
ATOM     15  N   UNL     1       3.579   2.890  17.325  0.00  0.00    +0.000 NA
ATOM     16  H   UNL     1       3.962   2.214  16.659  0.00  0.00    +0.000 HD
BRANCH  15  17
ATOM     17  C   UNL     1       3.497   2.207  18.625  0.00  0.00    +0.000 C 
ATOM     18  C   UNL     1       4.484   2.692  19.690  0.00  0.00    +0.000 C 
ATOM     19  C   UNL     1       3.753   2.479  20.994  0.00  0.00    +0.000 C 
ATOM     20  N   UNL     1       2.380   2.733  20.652  0.00  0.00    +0.000 N 
ATOM     21  C   UNL     1       1.336   2.654  21.640  0.00  0.00    +0.000 C 
ATOM     22  C   UNL     1       2.140   2.494  19.298  0.00  0.00    +0.000 C 
ATOM     23  O   UNL     1       1.046   2.442  18.751  0.00  0.00    +0.000 OA
ENDBRANCH  15  17
ENDBRANCH  14  15
ENDBRANCH   1  14
TORSDOF 4
ENDMDL
MODEL 4
REMARK VINA RESULT:      -7.1      1.685      3.472
REMARK  Name = 
REMARK  8 active torsions:
REMARK  status: ('A' for Active; 'I' for Inactive)
REMARK    1  A    between atoms: C_1  and  C_2
REMARK    2  A    between atoms: C_2  and  N_3
REMARK    3  A    between atoms: C_2  and  C_11
REMARK    4  A    between atoms: N_3  and  C_4
REMARK    5  A    between atoms: N_7  and  C_8
REMARK    6  A    between atoms: N_19  and  C_20
REMARK    7  A    between atoms: C_20  and  C_21
REMARK    8  A    between atoms: C_20  and  C_22
REMARK                            x       y       z     vdW  Elec       q    Type
REMARK                         _______ _______ _______ _____ _____    ______ ____
ROOT
ATOM      1  C   UNL     1       2.565   6.233  18.973  0.00  0.00    +0.000 A 
ATOM      2  N   UNL     1       1.654   5.356  19.355  0.00  0.00    +0.000 NA
ATOM      3  C   UNL     1       2.115   4.132  18.978  0.00  0.00    +0.000 A 
ATOM      4  C   UNL     1       1.503   2.881  19.149  0.00  0.00    +0.000 A 
ATOM      5  C   UNL     1       2.157   1.742  18.668  0.00  0.00    +0.000 A 
ATOM      6  C   UNL     1       3.395   1.853  18.039  0.00  0.00    +0.000 A 
ATOM      7  C   UNL     1       4.020   3.096  17.869  0.00  0.00    +0.000 A 
ATOM      8  C   UNL     1       3.356   4.234  18.353  0.00  0.00    +0.000 A 
ATOM      9  N   UNL     1       3.647   5.588  18.376  0.00  0.00    +0.000 N 
ENDROOT
BRANCH   9  10
ATOM     10  C   UNL     1       4.860   6.230  17.866  0.00  0.00    +0.000 C 
ATOM     11  C   UNL     1       6.162   5.707  18.489  0.00  0.00    +0.000 C 
ATOM     12  C   UNL     1       4.927   6.193  16.337  0.00  0.00    +0.000 C 
ENDBRANCH   9  10
BRANCH   1  14
ATOM     13  C   UNL     1       2.251   8.466  17.866  0.00  0.00    +0.000 C 
ATOM     14  C   UNL     1       2.434   7.723  19.199  0.00  0.00    +0.000 C 
BRANCH  14  15
ATOM     15  N   UNL     1       1.401   8.079  20.188  0.00  0.00    +0.000 NA
ATOM     16  H   UNL     1       1.736   7.815  21.118  0.00  0.00    +0.000 HD
BRANCH  15  17
ATOM     17  C   UNL     1       1.035   9.501  20.255  0.00  0.00    +0.000 C 
ATOM     18  C   UNL     1      -0.230   9.894  19.487  0.00  0.00    +0.000 C 
ATOM     19  C   UNL     1      -0.799  11.046  20.280  0.00  0.00    +0.000 C 
ATOM     20  N   UNL     1      -0.466  10.713  21.639  0.00  0.00    +0.000 N 
ATOM     21  C   UNL     1      -0.855  11.562  22.734  0.00  0.00    +0.000 C 
ATOM     22  C   UNL     1       0.661   9.892  21.700  0.00  0.00    +0.000 C 
ATOM     23  O   UNL     1       1.291   9.596  22.706  0.00  0.00    +0.000 OA
ENDBRANCH  15  17
ENDBRANCH  14  15
ENDBRANCH   1  14
TORSDOF 4
ENDMDL
MODEL 5
REMARK VINA RESULT:      -7.1      2.906      6.819
REMARK  Name = 
REMARK  8 active torsions:
REMARK  status: ('A' for Active; 'I' for Inactive)
REMARK    1  A    between atoms: C_1  and  C_2
REMARK    2  A    between atoms: C_2  and  N_3
REMARK    3  A    between atoms: C_2  and  C_11
REMARK    4  A    between atoms: N_3  and  C_4
REMARK    5  A    between atoms: N_7  and  C_8
REMARK    6  A    between atoms: N_19  and  C_20
REMARK    7  A    between atoms: C_20  and  C_21
REMARK    8  A    between atoms: C_20  and  C_22
REMARK                            x       y       z     vdW  Elec       q    Type
REMARK                         _______ _______ _______ _____ _____    ______ ____
ROOT
ATOM      1  C   UNL     1       4.806   5.326  19.018  0.00  0.00    +0.000 A 
ATOM      2  N   UNL     1       4.894   4.057  19.371  0.00  0.00    +0.000 NA
ATOM      3  C   UNL     1       3.673   3.707  19.860  0.00  0.00    +0.000 A 
ATOM      4  C   UNL     1       3.264   2.468  20.374  0.00  0.00    +0.000 A 
ATOM      5  C   UNL     1       1.951   2.334  20.839  0.00  0.00    +0.000 A 
ATOM      6  C   UNL     1       1.071   3.412  20.784  0.00  0.00    +0.000 A 
ATOM      7  C   UNL     1       1.466   4.653  20.267  0.00  0.00    +0.000 A 
ATOM      8  C   UNL     1       2.785   4.779  19.803  0.00  0.00    +0.000 A 
ATOM      9  N   UNL     1       3.518   5.810  19.238  0.00  0.00    +0.000 N 
ENDROOT
BRANCH   9  10
ATOM     10  C   UNL     1       3.036   7.158  18.930  0.00  0.00    +0.000 C 
ATOM     11  C   UNL     1       2.438   7.310  17.524  0.00  0.00    +0.000 C 
ATOM     12  C   UNL     1       2.073   7.679  19.999  0.00  0.00    +0.000 C 
ENDBRANCH   9  10
BRANCH   1  14
ATOM     13  C   UNL     1       7.302   5.608  18.981  0.00  0.00    +0.000 C 
ATOM     14  C   UNL     1       5.959   6.109  18.426  0.00  0.00    +0.000 C 
BRANCH  14  15
ATOM     15  N   UNL     1       5.941   6.159  16.954  0.00  0.00    +0.000 NA
ATOM     16  H   UNL     1       6.711   6.754  16.638  0.00  0.00    +0.000 HD
BRANCH  15  17
ATOM     17  C   UNL     1       6.088   4.869  16.263  0.00  0.00    +0.000 C 
ATOM     18  C   UNL     1       4.785   4.224  15.782  0.00  0.00    +0.000 C 
ATOM     19  C   UNL     1       5.187   3.461  14.543  0.00  0.00    +0.000 C 
ATOM     20  N   UNL     1       6.219   4.278  13.967  0.00  0.00    +0.000 N 
ATOM     21  C   UNL     1       6.868   3.908  12.737  0.00  0.00    +0.000 C 
ATOM     22  C   UNL     1       6.856   5.054  14.938  0.00  0.00    +0.000 C 
ATOM     23  O   UNL     1       7.883   5.703  14.792  0.00  0.00    +0.000 OA
ENDBRANCH  15  17
ENDBRANCH  14  15
ENDBRANCH   1  14
TORSDOF 4
ENDMDL
MODEL 6
REMARK VINA RESULT:      -7.0      2.455      7.248
REMARK  Name = 
REMARK  8 active torsions:
REMARK  status: ('A' for Active; 'I' for Inactive)
REMARK    1  A    between atoms: C_1  and  C_2
REMARK    2  A    between atoms: C_2  and  N_3
REMARK    3  A    between atoms: C_2  and  C_11
REMARK    4  A    between atoms: N_3  and  C_4
REMARK    5  A    between atoms: N_7  and  C_8
REMARK    6  A    between atoms: N_19  and  C_20
REMARK    7  A    between atoms: C_20  and  C_21
REMARK    8  A    between atoms: C_20  and  C_22
REMARK                            x       y       z     vdW  Elec       q    Type
REMARK                         _______ _______ _______ _____ _____    ______ ____
ROOT
ATOM      1  C   UNL     1       1.396   8.102  20.203  0.00  0.00    +0.000 A 
ATOM      2  N   UNL     1       1.121   7.970  21.488  0.00  0.00    +0.000 NA
ATOM      3  C   UNL     1       0.417   9.078  21.848  0.00  0.00    +0.000 A 
ATOM      4  C   UNL     1      -0.094   9.412  23.111  0.00  0.00    +0.000 A 
ATOM      5  C   UNL     1      -0.783  10.620  23.258  0.00  0.00    +0.000 A 
ATOM      6  C   UNL     1      -0.961  11.468  22.167  0.00  0.00    +0.000 A 
ATOM      7  C   UNL     1      -0.461  11.142  20.899  0.00  0.00    +0.000 A 
ATOM      8  C   UNL     1       0.230   9.928  20.761  0.00  0.00    +0.000 A 
ATOM      9  N   UNL     1       0.844   9.279  19.701  0.00  0.00    +0.000 N 
ENDROOT
BRANCH   9  10
ATOM     10  C   UNL     1       0.909   9.740  18.313  0.00  0.00    +0.000 C 
ATOM     11  C   UNL     1      -0.460   9.917  17.641  0.00  0.00    +0.000 C 
ATOM     12  C   UNL     1       1.761  11.004  18.169  0.00  0.00    +0.000 C 
ENDBRANCH   9  10
BRANCH   1  14
ATOM     13  C   UNL     1       2.926   7.745  18.242  0.00  0.00    +0.000 C 
ATOM     14  C   UNL     1       2.178   7.079  19.409  0.00  0.00    +0.000 C 
BRANCH  14  15
ATOM     15  N   UNL     1       3.061   6.240  20.238  0.00  0.00    +0.000 NA
ATOM     16  H   UNL     1       3.033   6.588  21.200  0.00  0.00    +0.000 HD
BRANCH  15  17
ATOM     17  C   UNL     1       2.726   4.809  20.294  0.00  0.00    +0.000 C 
ATOM     18  C   UNL     1       1.231   4.480  20.284  0.00  0.00    +0.000 C 
ATOM     19  C   UNL     1       1.153   3.143  19.587  0.00  0.00    +0.000 C 
ATOM     20  N   UNL     1       2.212   3.210  18.617  0.00  0.00    +0.000 N 
ATOM     21  C   UNL     1       2.468   2.120  17.712  0.00  0.00    +0.000 C 
ATOM     22  C   UNL     1       3.215   4.093  19.019  0.00  0.00    +0.000 C 
ATOM     23  O   UNL     1       4.318   4.224  18.504  0.00  0.00    +0.000 OA
ENDBRANCH  15  17
ENDBRANCH  14  15
ENDBRANCH   1  14
TORSDOF 4
ENDMDL
MODEL 7
REMARK VINA RESULT:      -6.9      3.897      5.571
REMARK  Name = 
REMARK  8 active torsions:
REMARK  status: ('A' for Active; 'I' for Inactive)
REMARK    1  A    between atoms: C_1  and  C_2
REMARK    2  A    between atoms: C_2  and  N_3
REMARK    3  A    between atoms: C_2  and  C_11
REMARK    4  A    between atoms: N_3  and  C_4
REMARK    5  A    between atoms: N_7  and  C_8
REMARK    6  A    between atoms: N_19  and  C_20
REMARK    7  A    between atoms: C_20  and  C_21
REMARK    8  A    between atoms: C_20  and  C_22
REMARK                            x       y       z     vdW  Elec       q    Type
REMARK                         _______ _______ _______ _____ _____    ______ ____
ROOT
ATOM      1  C   UNL     1       5.344   4.678  16.291  0.00  0.00    +0.000 A 
ATOM      2  N   UNL     1       4.887   4.011  15.247  0.00  0.00    +0.000 NA
ATOM      3  C   UNL     1       5.786   4.201  14.243  0.00  0.00    +0.000 A 
ATOM      4  C   UNL     1       5.743   3.708  12.931  0.00  0.00    +0.000 A 
ATOM      5  C   UNL     1       6.779   4.043  12.053  0.00  0.00    +0.000 A 
ATOM      6  C   UNL     1       7.834   4.846  12.481  0.00  0.00    +0.000 A 
ATOM      7  C   UNL     1       7.892   5.339  13.792  0.00  0.00    +0.000 A 
ATOM      8  C   UNL     1       6.847   4.999  14.666  0.00  0.00    +0.000 A 
ATOM      9  N   UNL     1       6.565   5.281  15.993  0.00  0.00    +0.000 N 
ENDROOT
BRANCH   9  10
ATOM     10  C   UNL     1       7.387   6.068  16.913  0.00  0.00    +0.000 C 
ATOM     11  C   UNL     1       6.837   7.470  17.212  0.00  0.00    +0.000 C 
ATOM     12  C   UNL     1       7.688   5.306  18.206  0.00  0.00    +0.000 C 
ENDBRANCH   9  10
BRANCH   1  14
ATOM     13  C   UNL     1       3.617   5.886  17.659  0.00  0.00    +0.000 C 
ATOM     14  C   UNL     1       4.631   4.731  17.625  0.00  0.00    +0.000 C 
BRANCH  14  15
ATOM     15  N   UNL     1       4.033   3.444  18.022  0.00  0.00    +0.000 NA
ATOM     16  H   UNL     1       4.618   3.022  18.747  0.00  0.00    +0.000 HD
BRANCH  15  17
ATOM     17  C   UNL     1       2.667   3.508  18.562  0.00  0.00    +0.000 C 
ATOM     18  C   UNL     1       1.768   2.314  18.229  0.00  0.00    +0.000 C 
ATOM     19  C   UNL     1       0.842   2.207  19.416  0.00  0.00    +0.000 C 
ATOM     20  N   UNL     1       1.667   2.614  20.521  0.00  0.00    +0.000 N 
ATOM     21  C   UNL     1       1.158   2.633  21.868  0.00  0.00    +0.000 C 
ATOM     22  C   UNL     1       2.695   3.460  20.104  0.00  0.00    +0.000 C 
ATOM     23  O   UNL     1       3.439   4.111  20.824  0.00  0.00    +0.000 OA
ENDBRANCH  15  17
ENDBRANCH  14  15
ENDBRANCH   1  14
TORSDOF 4
ENDMDL
MODEL 8
REMARK VINA RESULT:      -6.9      3.293      5.294
REMARK  Name = 
REMARK  8 active torsions:
REMARK  status: ('A' for Active; 'I' for Inactive)
REMARK    1  A    between atoms: C_1  and  C_2
REMARK    2  A    between atoms: C_2  and  N_3
REMARK    3  A    between atoms: C_2  and  C_11
REMARK    4  A    between atoms: N_3  and  C_4
REMARK    5  A    between atoms: N_7  and  C_8
REMARK    6  A    between atoms: N_19  and  C_20
REMARK    7  A    between atoms: C_20  and  C_21
REMARK    8  A    between atoms: C_20  and  C_22
REMARK                            x       y       z     vdW  Elec       q    Type
REMARK                         _______ _______ _______ _____ _____    ______ ____
ROOT
ATOM      1  C   UNL     1       5.203   5.575  16.952  0.00  0.00    +0.000 A 
ATOM      2  N   UNL     1       4.549   4.858  16.057  0.00  0.00    +0.000 NA
ATOM      3  C   UNL     1       5.415   4.638  15.031  0.00  0.00    +0.000 A 
ATOM      4  C   UNL     1       5.191   3.937  13.837  0.00  0.00    +0.000 A 
ATOM      5  C   UNL     1       6.230   3.845  12.906  0.00  0.00    +0.000 A 
ATOM      6  C   UNL     1       7.465   4.435  13.167  0.00  0.00    +0.000 A 
ATOM      7  C   UNL     1       7.704   5.133  14.360  0.00  0.00    +0.000 A 
ATOM      8  C   UNL     1       6.654   5.221  15.287  0.00  0.00    +0.000 A 
ATOM      9  N   UNL     1       6.514   5.802  16.538  0.00  0.00    +0.000 N 
ENDROOT
BRANCH   9  10
ATOM     10  C   UNL     1       7.545   6.523  17.287  0.00  0.00    +0.000 C 
ATOM     11  C   UNL     1       7.294   8.033  17.412  0.00  0.00    +0.000 C 
ATOM     12  C   UNL     1       7.804   5.891  18.657  0.00  0.00    +0.000 C 
ENDBRANCH   9  10
BRANCH   1  14
ATOM     13  C   UNL     1       3.264   6.778  18.004  0.00  0.00    +0.000 C 
ATOM     14  C   UNL     1       4.590   6.042  18.255  0.00  0.00    +0.000 C 
BRANCH  14  15
ATOM     15  N   UNL     1       4.460   4.973  19.260  0.00  0.00    +0.000 NA
ATOM     16  H   UNL     1       4.496   5.394  20.191  0.00  0.00    +0.000 HD
BRANCH  15  17
ATOM     17  C   UNL     1       3.226   4.177  19.199  0.00  0.00    +0.000 C 
ATOM     18  C   UNL     1       3.410   2.697  18.855  0.00  0.00    +0.000 C 
ATOM     19  C   UNL     1       2.280   2.006  19.581  0.00  0.00    +0.000 C 
ATOM     20  N   UNL     1       2.126   2.787  20.778  0.00  0.00    +0.000 N 
ATOM     21  C   UNL     1       1.146   2.444  21.774  0.00  0.00    +0.000 C 
ATOM     22  C   UNL     1       2.568   4.098  20.591  0.00  0.00    +0.000 C 
ATOM     23  O   UNL     1       2.398   5.038  21.355  0.00  0.00    +0.000 OA
ENDBRANCH  15  17
ENDBRANCH  14  15
ENDBRANCH   1  14
TORSDOF 4
ENDMDL
MODEL 9
REMARK VINA RESULT:      -6.9      1.839      2.277
REMARK  Name = 
REMARK  8 active torsions:
REMARK  status: ('A' for Active; 'I' for Inactive)
REMARK    1  A    between atoms: C_1  and  C_2
REMARK    2  A    between atoms: C_2  and  N_3
REMARK    3  A    between atoms: C_2  and  C_11
REMARK    4  A    between atoms: N_3  and  C_4
REMARK    5  A    between atoms: N_7  and  C_8
REMARK    6  A    between atoms: N_19  and  C_20
REMARK    7  A    between atoms: C_20  and  C_21
REMARK    8  A    between atoms: C_20  and  C_22
REMARK                            x       y       z     vdW  Elec       q    Type
REMARK                         _______ _______ _______ _____ _____    ______ ____
ROOT
ATOM      1  C   UNL     1       3.428   4.961  19.419  0.00  0.00    +0.000 A 
ATOM      2  N   UNL     1       4.519   5.535  19.894  0.00  0.00    +0.000 NA
ATOM      3  C   UNL     1       5.518   5.251  19.014  0.00  0.00    +0.000 A 
ATOM      4  C   UNL     1       6.868   5.626  19.081  0.00  0.00    +0.000 A 
ATOM      5  C   UNL     1       7.732   5.207  18.063  0.00  0.00    +0.000 A 
ATOM      6  C   UNL     1       7.254   4.439  17.004  0.00  0.00    +0.000 A 
ATOM      7  C   UNL     1       5.905   4.064  16.923  0.00  0.00    +0.000 A 
ATOM      8  C   UNL     1       5.046   4.487  17.949  0.00  0.00    +0.000 A 
ATOM      9  N   UNL     1       3.694   4.326  18.208  0.00  0.00    +0.000 N 
ENDROOT
BRANCH   9  10
ATOM     10  C   UNL     1       2.723   3.619  17.371  0.00  0.00    +0.000 C 
ATOM     11  C   UNL     1       2.580   2.125  17.694  0.00  0.00    +0.000 C 
ATOM     12  C   UNL     1       1.360   4.315  17.365  0.00  0.00    +0.000 C 
ENDBRANCH   9  10
BRANCH   1  14
ATOM     13  C   UNL     1       1.876   3.822  21.033  0.00  0.00    +0.000 C 
ATOM     14  C   UNL     1       2.082   5.032  20.107  0.00  0.00    +0.000 C 
BRANCH  14  15
ATOM     15  N   UNL     1       1.839   6.314  20.792  0.00  0.00    +0.000 NA
ATOM     16  H   UNL     1       2.377   6.326  21.662  0.00  0.00    +0.000 HD
BRANCH  15  17
ATOM     17  C   UNL     1       2.209   7.524  20.045  0.00  0.00    +0.000 C 
ATOM     18  C   UNL     1       1.889   7.501  18.548  0.00  0.00    +0.000 C 
ATOM     19  C   UNL     1       1.610   8.946  18.208  0.00  0.00    +0.000 C 
ATOM     20  N   UNL     1       0.988   9.455  19.400  0.00  0.00    +0.000 N 
ATOM     21  C   UNL     1       0.539  10.820  19.485  0.00  0.00    +0.000 C 
ATOM     22  C   UNL     1       1.376   8.729  20.527  0.00  0.00    +0.000 C 
ATOM     23  O   UNL     1       1.166   9.031  21.694  0.00  0.00    +0.000 OA
ENDBRANCH  15  17
ENDBRANCH  14  15
ENDBRANCH   1  14
TORSDOF 4
ENDMDL
