MODEL 1
REMARK VINA RESULT:      -6.4      0.000      0.000
REMARK  Name = 
REMARK  11 active torsions:
REMARK  status: ('A' for Active; 'I' for Inactive)
REMARK    1  A    between atoms: C_1  and  O_2
REMARK    2  A    between atoms: O_2  and  C_3
REMARK    3  A    between atoms: C_5  and  C_6
REMARK    4  A    between atoms: C_10  and  C_11
REMARK    5  A    between atoms: C_11  and  N_12
REMARK    6  A    between atoms: N_12  and  C_13
REMARK    7  A    between atoms: N_12  and  C_14
REMARK    8  A    between atoms: C_20  and  O_21
REMARK    9  A    between atoms: O_21  and  C_22
REMARK   10  A    between atoms: C_23  and  O_24
REMARK   11  A    between atoms: O_24  and  C_25
REMARK                            x       y       z     vdW  Elec       q    Type
REMARK                         _______ _______ _______ _____ _____    ______ ____
ROOT
ATOM      1  C   UNL     1       2.290   7.530  19.372  0.00  0.00    +0.000 A 
ATOM      2  N   UNL     1       2.053   7.022  20.630  0.00  0.00    +0.000 N 
ATOM      3  N   UNL     1       1.221   7.752  21.381  0.00  0.00    +0.000 NA
ATOM      4  C   UNL     1       0.919   8.783  20.593  0.00  0.00    +0.000 A 
ATOM      5  C   UNL     1       1.587   8.735  19.343  0.00  0.00    +0.000 A 
ATOM      6  H   UNL     1       2.392   6.150  21.019  0.00  0.00    +0.000 HD
ENDROOT
BRANCH   1   9
ATOM      7  C   UNL     1       5.002   6.477  16.982  0.00  0.00    +0.000 A 
ATOM      8  C   UNL     1       4.118   7.299  17.706  0.00  0.00    +0.000 A 
ATOM      9  C   UNL     1       2.977   6.780  18.312  0.00  0.00    +0.000 A 
ATOM     10  C   UNL     1       2.630   5.470  17.999  0.00  0.00    +0.000 A 
ATOM     11  C   UNL     1       3.469   4.629  17.247  0.00  0.00    +0.000 A 
ATOM     12  C   UNL     1       4.681   5.126  16.731  0.00  0.00    +0.000 A 
BRANCH   7  14
ATOM     13  C   UNL     1       7.268   6.998  17.447  0.00  0.00    +0.000 C 
ATOM     14  O   UNL     1       6.180   7.005  16.518  0.00  0.00    +0.000 OA
ENDBRANCH   7  14
BRANCH  11  15
ATOM     15  O   UNL     1       2.948   3.361  17.180  0.00  0.00    +0.000 OA
ATOM     16  C   UNL     1       2.458   2.736  18.355  0.00  0.00    +0.000 C 
ENDBRANCH  11  15
BRANCH  12  17
ATOM     17  O   UNL     1       5.429   4.243  16.000  0.00  0.00    +0.000 OA
ATOM     18  C   UNL     1       5.490   4.350  14.587  0.00  0.00    +0.000 C 
ENDBRANCH  12  17
ENDBRANCH   1   9
BRANCH   5  19
ATOM     19  C   UNL     1       1.441   9.718  18.220  0.00  0.00    +0.000 C 
BRANCH  19  20
ATOM     20  N   UNL     1       1.156  11.090  18.702  0.00  0.00    +0.000 NA
ATOM     21  C   UNL     1       2.218  12.007  18.248  0.00  0.00    +0.000 C 
BRANCH  20  22
ATOM     22  C   UNL     1      -0.174  11.530  18.178  0.00  0.00    +0.000 C 
ATOM     23  C   UNL     1      -0.491  13.003  18.418  0.00  0.00    +0.000 C 
ATOM     24  C   UNL     1      -1.011  12.996  19.834  0.00  0.00    +0.000 C 
ATOM     25  O   UNL     1      -1.803  11.809  19.946  0.00  0.00    +0.000 OA
ATOM     26  C   UNL     1      -1.376  10.900  18.918  0.00  0.00    +0.000 C 
ENDBRANCH  20  22
ENDBRANCH  19  20
ENDBRANCH   5  19
TORSDOF 7
ENDMDL
MODEL 2
REMARK VINA RESULT:      -6.4      2.928      5.157
REMARK  Name = 
REMARK  11 active torsions:
REMARK  status: ('A' for Active; 'I' for Inactive)
REMARK    1  A    between atoms: C_1  and  O_2
REMARK    2  A    between atoms: O_2  and  C_3
REMARK    3  A    between atoms: C_5  and  C_6
REMARK    4  A    between atoms: C_10  and  C_11
REMARK    5  A    between atoms: C_11  and  N_12
REMARK    6  A    between atoms: N_12  and  C_13
REMARK    7  A    between atoms: N_12  and  C_14
REMARK    8  A    between atoms: C_20  and  O_21
REMARK    9  A    between atoms: O_21  and  C_22
REMARK   10  A    between atoms: C_23  and  O_24
REMARK   11  A    between atoms: O_24  and  C_25
REMARK                            x       y       z     vdW  Elec       q    Type
REMARK                         _______ _______ _______ _____ _____    ______ ____
ROOT
ATOM      1  C   UNL     1       3.819   3.193  18.223  0.00  0.00    +0.000 A 
ATOM      2  N   UNL     1       3.847   1.843  18.489  0.00  0.00    +0.000 N 
ATOM      3  N   UNL     1       2.644   1.260  18.558  0.00  0.00    +0.000 NA
ATOM      4  C   UNL     1       1.801   2.270  18.347  0.00  0.00    +0.000 A 
ATOM      5  C   UNL     1       2.462   3.513  18.177  0.00  0.00    +0.000 A 
ATOM      6  H   UNL     1       4.662   1.248  18.586  0.00  0.00    +0.000 HD
ENDROOT
BRANCH   1   9
ATOM      7  C   UNL     1       6.163   5.366  16.233  0.00  0.00    +0.000 A 
ATOM      8  C   UNL     1       5.269   4.328  16.555  0.00  0.00    +0.000 A 
ATOM      9  C   UNL     1       5.014   3.975  17.877  0.00  0.00    +0.000 A 
ATOM     10  C   UNL     1       5.830   4.536  18.855  0.00  0.00    +0.000 A 
ATOM     11  C   UNL     1       6.761   5.549  18.566  0.00  0.00    +0.000 A 
ATOM     12  C   UNL     1       6.935   5.986  17.239  0.00  0.00    +0.000 A 
BRANCH   7  14
ATOM     13  C   UNL     1       6.902   4.828  14.044  0.00  0.00    +0.000 C 
ATOM     14  O   UNL     1       6.280   5.768  14.926  0.00  0.00    +0.000 OA
ENDBRANCH   7  14
BRANCH  11  15
ATOM     15  O   UNL     1       7.350   6.007  19.718  0.00  0.00    +0.000 OA
ATOM     16  C   UNL     1       8.471   5.326  20.257  0.00  0.00    +0.000 C 
ENDBRANCH  11  15
BRANCH  12  17
ATOM     17  O   UNL     1       7.870   6.966  17.046  0.00  0.00    +0.000 OA
ATOM     18  C   UNL     1       7.634   8.285  17.511  0.00  0.00    +0.000 C 
ENDBRANCH  12  17
ENDBRANCH   1   9
BRANCH   5  19
ATOM     19  C   UNL     1       1.810   4.832  17.889  0.00  0.00    +0.000 C 
BRANCH  19  20
ATOM     20  N   UNL     1       1.550   5.616  19.119  0.00  0.00    +0.000 NA
ATOM     21  C   UNL     1       1.525   4.716  20.287  0.00  0.00    +0.000 C 
BRANCH  20  22
ATOM     22  C   UNL     1       2.617   6.652  19.279  0.00  0.00    +0.000 C 
ATOM     23  C   UNL     1       2.133   7.969  19.879  0.00  0.00    +0.000 C 
ATOM     24  C   UNL     1       1.568   8.684  18.676  0.00  0.00    +0.000 C 
ATOM     25  O   UNL     1       2.461   8.387  17.598  0.00  0.00    +0.000 OA
ATOM     26  C   UNL     1       3.173   7.186  17.940  0.00  0.00    +0.000 C 
ENDBRANCH  20  22
ENDBRANCH  19  20
ENDBRANCH   5  19
TORSDOF 7
ENDMDL
MODEL 3
REMARK VINA RESULT:      -6.4      2.556      7.454
REMARK  Name = 
REMARK  11 active torsions:
REMARK  status: ('A' for Active; 'I' for Inactive)
REMARK    1  A    between atoms: C_1  and  O_2
REMARK    2  A    between atoms: O_2  and  C_3
REMARK    3  A    between atoms: C_5  and  C_6
REMARK    4  A    between atoms: C_10  and  C_11
REMARK    5  A    between atoms: C_11  and  N_12
REMARK    6  A    between atoms: N_12  and  C_13
REMARK    7  A    between atoms: N_12  and  C_14
REMARK    8  A    between atoms: C_20  and  O_21
REMARK    9  A    between atoms: O_21  and  C_22
REMARK   10  A    between atoms: C_23  and  O_24
REMARK   11  A    between atoms: O_24  and  C_25
REMARK                            x       y       z     vdW  Elec       q    Type
REMARK                         _______ _______ _______ _____ _____    ______ ____
ROOT
ATOM      1  C   UNL     1       2.065   5.683  20.168  0.00  0.00    +0.000 A 
ATOM      2  N   UNL     1       1.210   4.683  20.571  0.00  0.00    +0.000 N 
ATOM      3  N   UNL     1       1.773   3.474  20.681  0.00  0.00    +0.000 NA
ATOM      4  C   UNL     1       3.037   3.690  20.318  0.00  0.00    +0.000 A 
ATOM      5  C   UNL     1       3.280   5.035  19.941  0.00  0.00    +0.000 A 
ATOM      6  H   UNL     1       0.236   4.771  20.837  0.00  0.00    +0.000 HD
ENDROOT
BRANCH   1   9
ATOM      7  C   UNL     1       1.372   9.182  18.964  0.00  0.00    +0.000 A 
ATOM      8  C   UNL     1       2.008   7.937  19.126  0.00  0.00    +0.000 A 
ATOM      9  C   UNL     1       1.718   7.110  20.207  0.00  0.00    +0.000 A 
ATOM     10  C   UNL     1       0.943   7.648  21.230  0.00  0.00    +0.000 A 
ATOM     11  C   UNL     1       0.322   8.903  21.122  0.00  0.00    +0.000 A 
ATOM     12  C   UNL     1       0.525   9.691  19.972  0.00  0.00    +0.000 A 
BRANCH   7  14
ATOM     13  C   UNL     1       2.531  10.972  17.926  0.00  0.00    +0.000 C 
ATOM     14  O   UNL     1       1.588   9.901  17.816  0.00  0.00    +0.000 OA
ENDBRANCH   7  14
BRANCH  11  15
ATOM     15  O   UNL     1      -0.474   9.145  22.213  0.00  0.00    +0.000 OA
ATOM     16  C   UNL     1       0.108   9.584  23.429  0.00  0.00    +0.000 C 
ENDBRANCH  11  15
BRANCH  12  17
ATOM     17  O   UNL     1      -0.107  10.904  19.956  0.00  0.00    +0.000 OA
ATOM     18  C   UNL     1       0.466  12.022  20.614  0.00  0.00    +0.000 C 
ENDBRANCH  12  17
ENDBRANCH   1   9
BRANCH   5  19
ATOM     19  C   UNL     1       4.596   5.614  19.517  0.00  0.00    +0.000 C 
BRANCH  19  20
ATOM     20  N   UNL     1       5.031   5.121  18.188  0.00  0.00    +0.000 NA
ATOM     21  C   UNL     1       3.967   5.364  17.195  0.00  0.00    +0.000 C 
BRANCH  20  22
ATOM     22  C   UNL     1       6.289   5.824  17.789  0.00  0.00    +0.000 C 
ATOM     23  C   UNL     1       6.547   5.852  16.285  0.00  0.00    +0.000 C 
ATOM     24  C   UNL     1       7.179   4.504  16.040  0.00  0.00    +0.000 C 
ATOM     25  O   UNL     1       8.039   4.274  17.161  0.00  0.00    +0.000 OA
ATOM     26  C   UNL     1       7.578   5.102  18.243  0.00  0.00    +0.000 C 
ENDBRANCH  20  22
ENDBRANCH  19  20
ENDBRANCH   5  19
TORSDOF 7
ENDMDL
MODEL 4
REMARK VINA RESULT:      -6.3      2.011      2.664
REMARK  Name = 
REMARK  11 active torsions:
REMARK  status: ('A' for Active; 'I' for Inactive)
REMARK    1  A    between atoms: C_1  and  O_2
REMARK    2  A    between atoms: O_2  and  C_3
REMARK    3  A    between atoms: C_5  and  C_6
REMARK    4  A    between atoms: C_10  and  C_11
REMARK    5  A    between atoms: C_11  and  N_12
REMARK    6  A    between atoms: N_12  and  C_13
REMARK    7  A    between atoms: N_12  and  C_14
REMARK    8  A    between atoms: C_20  and  O_21
REMARK    9  A    between atoms: O_21  and  C_22
REMARK   10  A    between atoms: C_23  and  O_24
REMARK   11  A    between atoms: O_24  and  C_25
REMARK                            x       y       z     vdW  Elec       q    Type
REMARK                         _______ _______ _______ _____ _____    ______ ____
ROOT
ATOM      1  C   UNL     1       1.428   8.566  20.588  0.00  0.00    +0.000 A 
ATOM      2  N   UNL     1       1.501   8.788  21.944  0.00  0.00    +0.000 N 
ATOM      3  N   UNL     1       0.829   9.864  22.373  0.00  0.00    +0.000 NA
ATOM      4  C   UNL     1       0.316  10.372  21.253  0.00  0.00    +0.000 A 
ATOM      5  C   UNL     1       0.687   9.641  20.096  0.00  0.00    +0.000 A 
ATOM      6  H   UNL     1       1.954   8.210  22.643  0.00  0.00    +0.000 HD
ENDROOT
BRANCH   1   9
ATOM      7  C   UNL     1       3.334   6.290  18.272  0.00  0.00    +0.000 A 
ATOM      8  C   UNL     1       2.561   7.376  18.725  0.00  0.00    +0.000 A 
ATOM      9  C   UNL     1       1.890   7.329  19.944  0.00  0.00    +0.000 A 
ATOM     10  C   UNL     1       1.835   6.100  20.594  0.00  0.00    +0.000 A 
ATOM     11  C   UNL     1       2.563   4.983  20.151  0.00  0.00    +0.000 A 
ATOM     12  C   UNL     1       3.336   5.068  18.977  0.00  0.00    +0.000 A 
BRANCH   7  14
ATOM     13  C   UNL     1       5.463   6.758  17.337  0.00  0.00    +0.000 C 
ATOM     14  O   UNL     1       4.085   6.432  17.132  0.00  0.00    +0.000 OA
ENDBRANCH   7  14
BRANCH  11  15
ATOM     15  O   UNL     1       2.427   3.937  21.030  0.00  0.00    +0.000 OA
ATOM     16  C   UNL     1       1.283   3.101  20.961  0.00  0.00    +0.000 C 
ENDBRANCH  11  15
BRANCH  12  17
ATOM     17  O   UNL     1       4.002   3.929  18.613  0.00  0.00    +0.000 OA
ATOM     18  C   UNL     1       3.404   3.000  17.724  0.00  0.00    +0.000 C 
ENDBRANCH  12  17
ENDBRANCH   1   9
BRANCH   5  19
ATOM     19  C   UNL     1       0.252   9.926  18.690  0.00  0.00    +0.000 C 
BRANCH  19  20
ATOM     20  N   UNL     1      -1.030  10.668  18.631  0.00  0.00    +0.000 NA
ATOM     21  C   UNL     1      -0.763  12.112  18.488  0.00  0.00    +0.000 C 
BRANCH  20  22
ATOM     22  C   UNL     1      -1.836  10.167  17.476  0.00  0.00    +0.000 C 
ATOM     23  C   UNL     1      -2.469  11.265  16.625  0.00  0.00    +0.000 C 
ATOM     24  C   UNL     1      -3.719  11.597  17.402  0.00  0.00    +0.000 C 
ATOM     25  O   UNL     1      -4.216  10.344  17.882  0.00  0.00    +0.000 OA
ATOM     26  C   UNL     1      -3.120   9.413  17.891  0.00  0.00    +0.000 C 
ENDBRANCH  20  22
ENDBRANCH  19  20
ENDBRANCH   5  19
TORSDOF 7
ENDMDL
MODEL 5
REMARK VINA RESULT:      -6.3      2.485      7.274
REMARK  Name = 
REMARK  11 active torsions:
REMARK  status: ('A' for Active; 'I' for Inactive)
REMARK    1  A    between atoms: C_1  and  O_2
REMARK    2  A    between atoms: O_2  and  C_3
REMARK    3  A    between atoms: C_5  and  C_6
REMARK    4  A    between atoms: C_10  and  C_11
REMARK    5  A    between atoms: C_11  and  N_12
REMARK    6  A    between atoms: N_12  and  C_13
REMARK    7  A    between atoms: N_12  and  C_14
REMARK    8  A    between atoms: C_20  and  O_21
REMARK    9  A    between atoms: O_21  and  C_22
REMARK   10  A    between atoms: C_23  and  O_24
REMARK   11  A    between atoms: O_24  and  C_25
REMARK                            x       y       z     vdW  Elec       q    Type
REMARK                         _______ _______ _______ _____ _____    ______ ____
ROOT
ATOM      1  C   UNL     1       2.336   5.427  19.903  0.00  0.00    +0.000 A 
ATOM      2  N   UNL     1       1.535   4.433  20.418  0.00  0.00    +0.000 N 
ATOM      3  N   UNL     1       2.107   3.225  20.473  0.00  0.00    +0.000 NA
ATOM      4  C   UNL     1       3.319   3.434  19.959  0.00  0.00    +0.000 A 
ATOM      5  C   UNL     1       3.514   4.774  19.539  0.00  0.00    +0.000 A 
ATOM      6  H   UNL     1       0.600   4.526  20.797  0.00  0.00    +0.000 HD
ENDROOT
BRANCH   1   9
ATOM      7  C   UNL     1       1.675   8.953  18.762  0.00  0.00    +0.000 A 
ATOM      8  C   UNL     1       2.302   7.702  18.905  0.00  0.00    +0.000 A 
ATOM      9  C   UNL     1       1.997   6.855  19.967  0.00  0.00    +0.000 A 
ATOM     10  C   UNL     1       1.214   7.377  20.993  0.00  0.00    +0.000 A 
ATOM     11  C   UNL     1       0.601   8.638  20.902  0.00  0.00    +0.000 A 
ATOM     12  C   UNL     1       0.820   9.447  19.771  0.00  0.00    +0.000 A 
BRANCH   7  14
ATOM     13  C   UNL     1       2.486  10.984  17.844  0.00  0.00    +0.000 C 
ATOM     14  O   UNL     1       1.906   9.693  17.630  0.00  0.00    +0.000 OA
ENDBRANCH   7  14
BRANCH  11  15
ATOM     15  O   UNL     1      -0.205   8.863  21.991  0.00  0.00    +0.000 OA
ATOM     16  C   UNL     1       0.307   9.555  23.118  0.00  0.00    +0.000 C 
ENDBRANCH  11  15
BRANCH  12  17
ATOM     17  O   UNL     1       0.195  10.664  19.772  0.00  0.00    +0.000 OA
ATOM     18  C   UNL     1      -1.098  10.808  19.206  0.00  0.00    +0.000 C 
ENDBRANCH  12  17
ENDBRANCH   1   9
BRANCH   5  19
ATOM     19  C   UNL     1       4.770   5.346  18.953  0.00  0.00    +0.000 C 
BRANCH  19  20
ATOM     20  N   UNL     1       5.331   4.497  17.875  0.00  0.00    +0.000 NA
ATOM     21  C   UNL     1       4.755   4.896  16.577  0.00  0.00    +0.000 C 
BRANCH  20  22
ATOM     22  C   UNL     1       6.819   4.645  17.855  0.00  0.00    +0.000 C 
ATOM     23  C   UNL     1       7.340   5.882  18.582  0.00  0.00    +0.000 C 
ATOM     24  C   UNL     1       7.181   6.961  17.539  0.00  0.00    +0.000 C 
ATOM     25  O   UNL     1       7.544   6.351  16.297  0.00  0.00    +0.000 OA
ATOM     26  C   UNL     1       7.399   4.928  16.451  0.00  0.00    +0.000 C 
ENDBRANCH  20  22
ENDBRANCH  19  20
ENDBRANCH   5  19
TORSDOF 7
ENDMDL
MODEL 6
REMARK VINA RESULT:      -6.2      2.901      4.958
REMARK  Name = 
REMARK  11 active torsions:
REMARK  status: ('A' for Active; 'I' for Inactive)
REMARK    1  A    between atoms: C_1  and  O_2
REMARK    2  A    between atoms: O_2  and  C_3
REMARK    3  A    between atoms: C_5  and  C_6
REMARK    4  A    between atoms: C_10  and  C_11
REMARK    5  A    between atoms: C_11  and  N_12
REMARK    6  A    between atoms: N_12  and  C_13
REMARK    7  A    between atoms: N_12  and  C_14
REMARK    8  A    between atoms: C_20  and  O_21
REMARK    9  A    between atoms: O_21  and  C_22
REMARK   10  A    between atoms: C_23  and  O_24
REMARK   11  A    between atoms: O_24  and  C_25
REMARK                            x       y       z     vdW  Elec       q    Type
REMARK                         _______ _______ _______ _____ _____    ______ ____
ROOT
ATOM      1  C   UNL     1       4.058   3.428  17.371  0.00  0.00    +0.000 A 
ATOM      2  N   UNL     1       4.189   2.103  17.723  0.00  0.00    +0.000 N 
ATOM      3  N   UNL     1       3.141   1.592  18.379  0.00  0.00    +0.000 NA
ATOM      4  C   UNL     1       2.304   2.625  18.476  0.00  0.00    +0.000 A 
ATOM      5  C   UNL     1       2.831   3.814  17.911  0.00  0.00    +0.000 A 
ATOM      6  H   UNL     1       4.952   1.475  17.498  0.00  0.00    +0.000 HD
ENDROOT
BRANCH   1   9
ATOM      7  C   UNL     1       6.914   5.576  16.187  0.00  0.00    +0.000 A 
ATOM      8  C   UNL     1       5.781   5.156  16.909  0.00  0.00    +0.000 A 
ATOM      9  C   UNL     1       4.976   4.116  16.453  0.00  0.00    +0.000 A 
ATOM     10  C   UNL     1       5.204   3.652  15.161  0.00  0.00    +0.000 A 
ATOM     11  C   UNL     1       6.304   4.076  14.395  0.00  0.00    +0.000 A 
ATOM     12  C   UNL     1       7.185   5.047  14.907  0.00  0.00    +0.000 A 
BRANCH   7  14
ATOM     13  C   UNL     1       7.109   7.583  17.434  0.00  0.00    +0.000 C 
ATOM     14  O   UNL     1       7.753   6.511  16.740  0.00  0.00    +0.000 OA
ENDBRANCH   7  14
BRANCH  11  15
ATOM     15  O   UNL     1       6.362   3.383  13.211  0.00  0.00    +0.000 OA
ATOM     16  C   UNL     1       5.250   3.394  12.330  0.00  0.00    +0.000 C 
ENDBRANCH  11  15
BRANCH  12  17
ATOM     17  O   UNL     1       8.221   5.409  14.088  0.00  0.00    +0.000 OA
ATOM     18  C   UNL     1       7.983   5.724  12.726  0.00  0.00    +0.000 C 
ENDBRANCH  12  17
ENDBRANCH   1   9
BRANCH   5  19
ATOM     19  C   UNL     1       2.135   5.139  17.824  0.00  0.00    +0.000 C 
BRANCH  19  20
ATOM     20  N   UNL     1       1.996   5.794  19.147  0.00  0.00    +0.000 NA
ATOM     21  C   UNL     1       2.452   4.876  20.207  0.00  0.00    +0.000 C 
BRANCH  20  22
ATOM     22  C   UNL     1       2.804   7.052  19.161  0.00  0.00    +0.000 C 
ATOM     23  C   UNL     1       2.037   8.289  19.620  0.00  0.00    +0.000 C 
ATOM     24  C   UNL     1       1.327   8.716  18.359  0.00  0.00    +0.000 C 
ATOM     25  O   UNL     1       2.264   8.502  17.299  0.00  0.00    +0.000 OA
ATOM     26  C   UNL     1       3.227   7.537  17.756  0.00  0.00    +0.000 C 
ENDBRANCH  20  22
ENDBRANCH  19  20
ENDBRANCH   5  19
TORSDOF 7
ENDMDL
MODEL 7
REMARK VINA RESULT:      -6.2      2.341      4.119
REMARK  Name = 
REMARK  11 active torsions:
REMARK  status: ('A' for Active; 'I' for Inactive)
REMARK    1  A    between atoms: C_1  and  O_2
REMARK    2  A    between atoms: O_2  and  C_3
REMARK    3  A    between atoms: C_5  and  C_6
REMARK    4  A    between atoms: C_10  and  C_11
REMARK    5  A    between atoms: C_11  and  N_12
REMARK    6  A    between atoms: N_12  and  C_13
REMARK    7  A    between atoms: N_12  and  C_14
REMARK    8  A    between atoms: C_20  and  O_21
REMARK    9  A    between atoms: O_21  and  C_22
REMARK   10  A    between atoms: C_23  and  O_24
REMARK   11  A    between atoms: O_24  and  C_25
REMARK                            x       y       z     vdW  Elec       q    Type
REMARK                         _______ _______ _______ _____ _____    ______ ____
ROOT
ATOM      1  C   UNL     1       2.464   7.298  18.737  0.00  0.00    +0.000 A 
ATOM      2  N   UNL     1       2.629   7.770  17.455  0.00  0.00    +0.000 N 
ATOM      3  N   UNL     1       2.262   9.044  17.275  0.00  0.00    +0.000 NA
ATOM      4  C   UNL     1       1.824   9.411  18.479  0.00  0.00    +0.000 A 
ATOM      5  C   UNL     1       1.877   8.359  19.428  0.00  0.00    +0.000 A 
ATOM      6  H   UNL     1       3.036   7.284  16.664  0.00  0.00    +0.000 HD
ENDROOT
BRANCH   1   9
ATOM      7  C   UNL     1       2.590   3.690  19.803  0.00  0.00    +0.000 A 
ATOM      8  C   UNL     1       2.169   5.029  19.704  0.00  0.00    +0.000 A 
ATOM      9  C   UNL     1       3.012   6.019  19.206  0.00  0.00    +0.000 A 
ATOM     10  C   UNL     1       4.348   5.679  19.013  0.00  0.00    +0.000 A 
ATOM     11  C   UNL     1       4.814   4.359  19.139  0.00  0.00    +0.000 A 
ATOM     12  C   UNL     1       3.929   3.337  19.532  0.00  0.00    +0.000 A 
BRANCH   7  14
ATOM     13  C   UNL     1       1.406   2.645  21.573  0.00  0.00    +0.000 C 
ATOM     14  O   UNL     1       1.683   2.728  20.171  0.00  0.00    +0.000 OA
ENDBRANCH   7  14
BRANCH  11  15
ATOM     15  O   UNL     1       6.137   4.277  18.784  0.00  0.00    +0.000 OA
ATOM     16  C   UNL     1       6.536   4.609  17.464  0.00  0.00    +0.000 C 
ENDBRANCH  11  15
BRANCH  12  17
ATOM     17  O   UNL     1       4.470   2.084  19.642  0.00  0.00    +0.000 OA
ATOM     18  C   UNL     1       4.946   1.614  20.893  0.00  0.00    +0.000 C 
ENDBRANCH  12  17
ENDBRANCH   1   9
BRANCH   5  19
ATOM     19  C   UNL     1       1.494   8.450  20.874  0.00  0.00    +0.000 C 
BRANCH  19  20
ATOM     20  N   UNL     1       0.235   9.204  21.081  0.00  0.00    +0.000 NA
ATOM     21  C   UNL     1      -0.729   8.370  21.822  0.00  0.00    +0.000 C 
BRANCH  20  22
ATOM     22  C   UNL     1       0.532  10.459  21.839  0.00  0.00    +0.000 C 
ATOM     23  C   UNL     1      -0.655  11.024  22.614  0.00  0.00    +0.000 C 
ATOM     24  C   UNL     1      -1.397  11.797  21.552  0.00  0.00    +0.000 C 
ATOM     25  O   UNL     1      -0.385  12.418  20.752  0.00  0.00    +0.000 OA
ATOM     26  C   UNL     1       0.833  11.677  20.936  0.00  0.00    +0.000 C 
ENDBRANCH  20  22
ENDBRANCH  19  20
ENDBRANCH   5  19
TORSDOF 7
ENDMDL
MODEL 8
REMARK VINA RESULT:      -6.2      2.524      7.529
REMARK  Name = 
REMARK  11 active torsions:
REMARK  status: ('A' for Active; 'I' for Inactive)
REMARK    1  A    between atoms: C_1  and  O_2
REMARK    2  A    between atoms: O_2  and  C_3
REMARK    3  A    between atoms: C_5  and  C_6
REMARK    4  A    between atoms: C_10  and  C_11
REMARK    5  A    between atoms: C_11  and  N_12
REMARK    6  A    between atoms: N_12  and  C_13
REMARK    7  A    between atoms: N_12  and  C_14
REMARK    8  A    between atoms: C_20  and  O_21
REMARK    9  A    between atoms: O_21  and  C_22
REMARK   10  A    between atoms: C_23  and  O_24
REMARK   11  A    between atoms: O_24  and  C_25
REMARK                            x       y       z     vdW  Elec       q    Type
REMARK                         _______ _______ _______ _____ _____    ______ ____
ROOT
ATOM      1  C   UNL     1       2.187   6.002  20.126  0.00  0.00    +0.000 A 
ATOM      2  N   UNL     1       1.949   5.129  21.163  0.00  0.00    +0.000 N 
ATOM      3  N   UNL     1       2.467   3.906  20.996  0.00  0.00    +0.000 NA
ATOM      4  C   UNL     1       3.048   3.979  19.799  0.00  0.00    +0.000 A 
ATOM      5  C   UNL     1       2.873   5.242  19.178  0.00  0.00    +0.000 A 
ATOM      6  H   UNL     1       1.479   5.322  22.040  0.00  0.00    +0.000 HD
ENDROOT
BRANCH   1   9
ATOM      7  C   UNL     1       1.041   9.438  19.099  0.00  0.00    +0.000 A 
ATOM      8  C   UNL     1       1.665   8.178  19.047  0.00  0.00    +0.000 A 
ATOM      9  C   UNL     1       1.914   7.444  20.203  0.00  0.00    +0.000 A 
ATOM     10  C   UNL     1       1.722   8.089  21.421  0.00  0.00    +0.000 A 
ATOM     11  C   UNL     1       1.136   9.363  21.511  0.00  0.00    +0.000 A 
ATOM     12  C   UNL     1       0.778  10.057  20.340  0.00  0.00    +0.000 A 
BRANCH   7  14
ATOM     13  C   UNL     1      -0.705  10.072  17.623  0.00  0.00    +0.000 C 
ATOM     14  O   UNL     1       0.694  10.063  17.928  0.00  0.00    +0.000 OA
ENDBRANCH   7  14
BRANCH  11  15
ATOM     15  O   UNL     1       0.955   9.720  22.825  0.00  0.00    +0.000 OA
ATOM     16  C   UNL     1      -0.333   9.629  23.410  0.00  0.00    +0.000 C 
ENDBRANCH  11  15
BRANCH  12  17
ATOM     17  O   UNL     1       0.225  11.296  20.520  0.00  0.00    +0.000 OA
ATOM     18  C   UNL     1       1.047  12.452  20.544  0.00  0.00    +0.000 C 
ENDBRANCH  12  17
ENDBRANCH   1   9
BRANCH   5  19
ATOM     19  C   UNL     1       3.427   5.663  17.850  0.00  0.00    +0.000 C 
BRANCH  19  20
ATOM     20  N   UNL     1       4.706   4.985  17.529  0.00  0.00    +0.000 NA
ATOM     21  C   UNL     1       4.732   4.625  16.098  0.00  0.00    +0.000 C 
BRANCH  20  22
ATOM     22  C   UNL     1       5.844   5.896  17.861  0.00  0.00    +0.000 C 
ATOM     23  C   UNL     1       7.063   5.738  16.957  0.00  0.00    +0.000 C 
ATOM     24  C   UNL     1       7.776   4.562  17.577  0.00  0.00    +0.000 C 
ATOM     25  O   UNL     1       7.642   4.734  18.991  0.00  0.00    +0.000 OA
ATOM     26  C   UNL     1       6.510   5.591  19.221  0.00  0.00    +0.000 C 
ENDBRANCH  20  22
ENDBRANCH  19  20
ENDBRANCH   5  19
TORSDOF 7
ENDMDL
MODEL 9
REMARK VINA RESULT:      -6.2      2.489      7.505
REMARK  Name = 
REMARK  11 active torsions:
REMARK  status: ('A' for Active; 'I' for Inactive)
REMARK    1  A    between atoms: C_1  and  O_2
REMARK    2  A    between atoms: O_2  and  C_3
REMARK    3  A    between atoms: C_5  and  C_6
REMARK    4  A    between atoms: C_10  and  C_11
REMARK    5  A    between atoms: C_11  and  N_12
REMARK    6  A    between atoms: N_12  and  C_13
REMARK    7  A    between atoms: N_12  and  C_14
REMARK    8  A    between atoms: C_20  and  O_21
REMARK    9  A    between atoms: O_21  and  C_22
REMARK   10  A    between atoms: C_23  and  O_24
REMARK   11  A    between atoms: O_24  and  C_25
REMARK                            x       y       z     vdW  Elec       q    Type
REMARK                         _______ _______ _______ _____ _____    ______ ____
ROOT
ATOM      1  C   UNL     1       2.216   5.872  20.101  0.00  0.00    +0.000 A 
ATOM      2  N   UNL     1       1.463   4.933  20.768  0.00  0.00    +0.000 N 
ATOM      3  N   UNL     1       1.970   3.695  20.755  0.00  0.00    +0.000 NA
ATOM      4  C   UNL     1       3.085   3.827  20.037  0.00  0.00    +0.000 A 
ATOM      5  C   UNL     1       3.278   5.147  19.558  0.00  0.00    +0.000 A 
ATOM      6  H   UNL     1       0.613   5.085  21.299  0.00  0.00    +0.000 HD
ENDROOT
BRANCH   1   9
ATOM      7  C   UNL     1       1.120   9.332  19.101  0.00  0.00    +0.000 A 
ATOM      8  C   UNL     1       1.721   8.061  19.036  0.00  0.00    +0.000 A 
ATOM      9  C   UNL     1       1.970   7.318  20.186  0.00  0.00    +0.000 A 
ATOM     10  C   UNL     1       1.804   7.961  21.409  0.00  0.00    +0.000 A 
ATOM     11  C   UNL     1       1.242   9.245  21.511  0.00  0.00    +0.000 A 
ATOM     12  C   UNL     1       0.882   9.950  20.347  0.00  0.00    +0.000 A 
BRANCH   7  14
ATOM     13  C   UNL     1      -0.630  10.005  17.649  0.00  0.00    +0.000 C 
ATOM     14  O   UNL     1       0.771   9.968  17.936  0.00  0.00    +0.000 OA
ENDBRANCH   7  14
BRANCH  11  15
ATOM     15  O   UNL     1       1.082   9.600  22.828  0.00  0.00    +0.000 OA
ATOM     16  C   UNL     1      -0.207   9.560  23.419  0.00  0.00    +0.000 C 
ENDBRANCH  11  15
BRANCH  12  17
ATOM     17  O   UNL     1       0.354  11.198  20.539  0.00  0.00    +0.000 OA
ATOM     18  C   UNL     1       1.197  12.338  20.567  0.00  0.00    +0.000 C 
ENDBRANCH  12  17
ENDBRANCH   1   9
BRANCH   5  19
ATOM     19  C   UNL     1       4.444   5.637  18.753  0.00  0.00    +0.000 C 
BRANCH  19  20
ATOM     20  N   UNL     1       5.083   4.557  17.965  0.00  0.00    +0.000 NA
ATOM     21  C   UNL     1       4.659   4.651  16.555  0.00  0.00    +0.000 C 
BRANCH  20  22
ATOM     22  C   UNL     1       6.570   4.682  18.073  0.00  0.00    +0.000 C 
ATOM     23  C   UNL     1       7.052   6.026  18.610  0.00  0.00    +0.000 C 
ATOM     24  C   UNL     1       7.033   6.894  17.376  0.00  0.00    +0.000 C 
ATOM     25  O   UNL     1       7.499   6.058  16.312  0.00  0.00    +0.000 OA
ATOM     26  C   UNL     1       7.296   4.691  16.709  0.00  0.00    +0.000 C 
ENDBRANCH  20  22
ENDBRANCH  19  20
ENDBRANCH   5  19
TORSDOF 7
ENDMDL
