MODEL 1
REMARK VINA RESULT:      -9.0      0.000      0.000
REMARK  Name = 
REMARK  5 active torsions:
REMARK  status: ('A' for Active; 'I' for Inactive)
REMARK    1  A    between atoms: C_1  and  O_2
REMARK    2  A    between atoms: O_2  and  C_3
REMARK    3  A    between atoms: C_6  and  N_7
REMARK    4  A    between atoms: C_11  and  C_12
REMARK    5  A    between atoms: N_17  and  C_18
REMARK                            x       y       z     vdW  Elec       q    Type
REMARK                         _______ _______ _______ _____ _____    ______ ____
ROOT
ATOM      1  C   UNL     1       4.422   3.665  19.389  0.00  0.00    +0.000 C 
ATOM      2  C   UNL     1       5.254   3.979  18.387  0.00  0.00    +0.000 C 
ATOM      3  N   UNL     1       6.578   4.250  18.559  0.00  0.00    +0.000 N 
ATOM      4  C   UNL     1       7.210   4.371  17.331  0.00  0.00    +0.000 C 
ATOM      5  O   UNL     1       8.410   4.583  17.238  0.00  0.00    +0.000 OA
ATOM      6  N   UNL     1       6.247   4.239  16.336  0.00  0.00    +0.000 N 
ATOM      7  C   UNL     1       4.999   4.036  16.904  0.00  0.00    +0.000 C 
ATOM      8  O   UNL     1       3.911   3.910  16.369  0.00  0.00    +0.000 OA
ATOM      9  H   UNL     1       7.083   4.281  19.431  0.00  0.00    +0.000 HD
ENDROOT
BRANCH   6  10
ATOM     10  C   UNL     1       6.504   4.282  14.940  0.00  0.00    +0.000 A 
ATOM     11  C   UNL     1       7.445   5.180  14.412  0.00  0.00    +0.000 A 
ATOM     12  C   UNL     1       7.723   5.217  13.042  0.00  0.00    +0.000 A 
ATOM     13  C   UNL     1       7.044   4.373  12.170  0.00  0.00    +0.000 A 
ATOM     14  C   UNL     1       6.102   3.484  12.676  0.00  0.00    +0.000 A 
ATOM     15 CL   UNL     1       5.236   2.460  11.596  0.00  0.00    +0.000 Cl
ATOM     16  C   UNL     1       5.842   3.423  14.048  0.00  0.00    +0.000 A 
ENDBRANCH   6  10
BRANCH   1  21
ATOM     17  N   UNL     1       2.003   4.091  19.224  0.00  0.00    +0.000 N 
ATOM     18  C   UNL     1       0.859   3.312  19.173  0.00  0.00    +0.000 A 
ATOM     19  C   UNL     1       1.207   1.997  18.969  0.00  0.00    +0.000 A 
ATOM     20  C   UNL     1       2.614   1.940  18.950  0.00  0.00    +0.000 A 
ATOM     21  C   UNL     1       3.096   3.220  19.155  0.00  0.00    +0.000 A 
BRANCH  17  25
ATOM     22  C   UNL     1       1.878   8.329  19.444  0.00  0.00    +0.000 A 
ATOM     23  C   UNL     1       1.596   7.550  20.567  0.00  0.00    +0.000 A 
ATOM     24  C   UNL     1       1.651   6.155  20.502  0.00  0.00    +0.000 A 
ATOM     25  C   UNL     1       1.993   5.519  19.300  0.00  0.00    +0.000 A 
ATOM     26  C   UNL     1       2.258   6.302  18.170  0.00  0.00    +0.000 A 
ATOM     27  C   UNL     1       2.199   7.700  18.242  0.00  0.00    +0.000 A 
BRANCH  22  29
ATOM     28  C   UNL     1       0.627  10.293  19.022  0.00  0.00    +0.000 C 
ATOM     29  O   UNL     1       1.762   9.679  19.624  0.00  0.00    +0.000 OA
ENDBRANCH  22  29
ENDBRANCH  17  25
ENDBRANCH   1  21
TORSDOF 4
ENDMDL
MODEL 2
REMARK VINA RESULT:      -8.7      0.991      1.344
REMARK  Name = 
REMARK  5 active torsions:
REMARK  status: ('A' for Active; 'I' for Inactive)
REMARK    1  A    between atoms: C_1  and  O_2
REMARK    2  A    between atoms: O_2  and  C_3
REMARK    3  A    between atoms: C_6  and  N_7
REMARK    4  A    between atoms: C_11  and  C_12
REMARK    5  A    between atoms: N_17  and  C_18
REMARK                            x       y       z     vdW  Elec       q    Type
REMARK                         _______ _______ _______ _____ _____    ______ ____
ROOT
ATOM      1  C   UNL     1       4.378   3.690  19.448  0.00  0.00    +0.000 C 
ATOM      2  C   UNL     1       5.202   3.984  18.433  0.00  0.00    +0.000 C 
ATOM      3  N   UNL     1       6.529   4.247  18.587  0.00  0.00    +0.000 N 
ATOM      4  C   UNL     1       7.150   4.346  17.351  0.00  0.00    +0.000 C 
ATOM      5  O   UNL     1       8.350   4.547  17.242  0.00  0.00    +0.000 OA
ATOM      6  N   UNL     1       6.175   4.206  16.368  0.00  0.00    +0.000 N 
ATOM      7  C   UNL     1       4.931   4.022  16.953  0.00  0.00    +0.000 C 
ATOM      8  O   UNL     1       3.837   3.896  16.431  0.00  0.00    +0.000 OA
ATOM      9  H   UNL     1       7.044   4.287  19.454  0.00  0.00    +0.000 HD
ENDROOT
BRANCH   6  10
ATOM     10  C   UNL     1       6.418   4.228  14.969  0.00  0.00    +0.000 A 
ATOM     11  C   UNL     1       5.733   3.355  14.109  0.00  0.00    +0.000 A 
ATOM     12  C   UNL     1       5.947   3.382  12.728  0.00  0.00    +0.000 A 
ATOM     13  C   UNL     1       6.873   4.265  12.183  0.00  0.00    +0.000 A 
ATOM     14  C   UNL     1       7.567   5.130  13.022  0.00  0.00    +0.000 A 
ATOM     15 CL   UNL     1       8.736   6.202  12.355  0.00  0.00    +0.000 Cl
ATOM     16  C   UNL     1       7.334   5.127  14.400  0.00  0.00    +0.000 A 
ENDBRANCH   6  10
BRANCH   1  21
ATOM     17  N   UNL     1       1.961   4.133  19.299  0.00  0.00    +0.000 N 
ATOM     18  C   UNL     1       0.810   3.362  19.272  0.00  0.00    +0.000 A 
ATOM     19  C   UNL     1       1.147   2.041  19.087  0.00  0.00    +0.000 A 
ATOM     20  C   UNL     1       2.553   1.972  19.056  0.00  0.00    +0.000 A 
ATOM     21  C   UNL     1       3.046   3.252  19.235  0.00  0.00    +0.000 A 
BRANCH  17  25
ATOM     22  C   UNL     1       1.872   8.375  19.446  0.00  0.00    +0.000 A 
ATOM     23  C   UNL     1       1.568   7.618  20.578  0.00  0.00    +0.000 A 
ATOM     24  C   UNL     1       1.611   6.221  20.537  0.00  0.00    +0.000 A 
ATOM     25  C   UNL     1       1.962   5.562  19.351  0.00  0.00    +0.000 A 
ATOM     26  C   UNL     1       2.250   6.324  18.212  0.00  0.00    +0.000 A 
ATOM     27  C   UNL     1       2.203   7.723  18.259  0.00  0.00    +0.000 A 
BRANCH  22  29
ATOM     28  C   UNL     1       1.022  10.415  18.599  0.00  0.00    +0.000 C 
ATOM     29  O   UNL     1       1.765   9.729  19.602  0.00  0.00    +0.000 OA
ENDBRANCH  22  29
ENDBRANCH  17  25
ENDBRANCH   1  21
TORSDOF 4
ENDMDL
MODEL 3
REMARK VINA RESULT:      -7.6      1.453      1.896
REMARK  Name = 
REMARK  5 active torsions:
REMARK  status: ('A' for Active; 'I' for Inactive)
REMARK    1  A    between atoms: C_1  and  O_2
REMARK    2  A    between atoms: O_2  and  C_3
REMARK    3  A    between atoms: C_6  and  N_7
REMARK    4  A    between atoms: C_11  and  C_12
REMARK    5  A    between atoms: N_17  and  C_18
REMARK                            x       y       z     vdW  Elec       q    Type
REMARK                         _______ _______ _______ _____ _____    ______ ____
ROOT
ATOM      1  C   UNL     1       5.486   5.009  18.580  0.00  0.00    +0.000 C 
ATOM      2  C   UNL     1       5.765   4.987  17.270  0.00  0.00    +0.000 C 
ATOM      3  N   UNL     1       6.852   5.594  16.717  0.00  0.00    +0.000 N 
ATOM      4  C   UNL     1       6.965   5.256  15.377  0.00  0.00    +0.000 C 
ATOM      5  O   UNL     1       7.886   5.659  14.682  0.00  0.00    +0.000 OA
ATOM      6  N   UNL     1       5.877   4.455  15.042  0.00  0.00    +0.000 N 
ATOM      7  C   UNL     1       5.060   4.275  16.147  0.00  0.00    +0.000 C 
ATOM      8  O   UNL     1       4.006   3.670  16.244  0.00  0.00    +0.000 OA
ATOM      9  H   UNL     1       7.546   6.147  17.194  0.00  0.00    +0.000 HD
ENDROOT
BRANCH   6  10
ATOM     10  C   UNL     1       5.647   3.887  13.761  0.00  0.00    +0.000 A 
ATOM     11  C   UNL     1       4.388   3.989  13.148  0.00  0.00    +0.000 A 
ATOM     12  C   UNL     1       4.154   3.452  11.878  0.00  0.00    +0.000 A 
ATOM     13  C   UNL     1       5.170   2.779  11.208  0.00  0.00    +0.000 A 
ATOM     14  C   UNL     1       6.421   2.662  11.806  0.00  0.00    +0.000 A 
ATOM     15 CL   UNL     1       7.671   1.801  10.994  0.00  0.00    +0.000 Cl
ATOM     16  C   UNL     1       6.667   3.222  13.062  0.00  0.00    +0.000 A 
ENDBRANCH   6  10
BRANCH   1  21
ATOM     17  N   UNL     1       3.252   4.795  19.592  0.00  0.00    +0.000 N 
ATOM     18  C   UNL     1       2.563   3.807  20.279  0.00  0.00    +0.000 A 
ATOM     19  C   UNL     1       3.246   2.618  20.178  0.00  0.00    +0.000 A 
ATOM     20  C   UNL     1       4.427   2.877  19.457  0.00  0.00    +0.000 A 
ATOM     21  C   UNL     1       4.448   4.224  19.143  0.00  0.00    +0.000 A 
BRANCH  17  25
ATOM     22  C   UNL     1       1.691   8.698  18.995  0.00  0.00    +0.000 A 
ATOM     23  C   UNL     1       1.649   8.100  20.255  0.00  0.00    +0.000 A 
ATOM     24  C   UNL     1       2.175   6.821  20.459  0.00  0.00    +0.000 A 
ATOM     25  C   UNL     1       2.756   6.121  19.392  0.00  0.00    +0.000 A 
ATOM     26  C   UNL     1       2.782   6.716  18.125  0.00  0.00    +0.000 A 
ATOM     27  C   UNL     1       2.250   7.996  17.928  0.00  0.00    +0.000 A 
BRANCH  22  29
ATOM     28  C   UNL     1      -0.061  10.027  18.122  0.00  0.00    +0.000 C 
ATOM     29  O   UNL     1       1.118   9.936  18.915  0.00  0.00    +0.000 OA
ENDBRANCH  22  29
ENDBRANCH  17  25
ENDBRANCH   1  21
TORSDOF 4
ENDMDL
MODEL 4
REMARK VINA RESULT:      -7.4      1.628      2.132
REMARK  Name = 
REMARK  5 active torsions:
REMARK  status: ('A' for Active; 'I' for Inactive)
REMARK    1  A    between atoms: C_1  and  O_2
REMARK    2  A    between atoms: O_2  and  C_3
REMARK    3  A    between atoms: C_6  and  N_7
REMARK    4  A    between atoms: C_11  and  C_12
REMARK    5  A    between atoms: N_17  and  C_18
REMARK                            x       y       z     vdW  Elec       q    Type
REMARK                         _______ _______ _______ _____ _____    ______ ____
ROOT
ATOM      1  C   UNL     1       5.726   5.241  18.127  0.00  0.00    +0.000 C 
ATOM      2  C   UNL     1       5.973   5.121  16.816  0.00  0.00    +0.000 C 
ATOM      3  N   UNL     1       7.027   5.713  16.187  0.00  0.00    +0.000 N 
ATOM      4  C   UNL     1       7.118   5.271  14.876  0.00  0.00    +0.000 C 
ATOM      5  O   UNL     1       8.009   5.643  14.127  0.00  0.00    +0.000 OA
ATOM      6  N   UNL     1       6.048   4.415  14.635  0.00  0.00    +0.000 N 
ATOM      7  C   UNL     1       5.263   4.301  15.772  0.00  0.00    +0.000 C 
ATOM      8  O   UNL     1       4.232   3.676  15.946  0.00  0.00    +0.000 OA
ATOM      9  H   UNL     1       7.716   6.323  16.600  0.00  0.00    +0.000 HD
ENDROOT
BRANCH   6  10
ATOM     10  C   UNL     1       5.804   3.739  13.410  0.00  0.00    +0.000 A 
ATOM     11  C   UNL     1       6.700   2.769  12.936  0.00  0.00    +0.000 A 
ATOM     12  C   UNL     1       6.460   2.080  11.743  0.00  0.00    +0.000 A 
ATOM     13  C   UNL     1       5.329   2.370  10.987  0.00  0.00    +0.000 A 
ATOM     14  C   UNL     1       4.435   3.335  11.439  0.00  0.00    +0.000 A 
ATOM     15 CL   UNL     1       3.051   3.719  10.490  0.00  0.00    +0.000 Cl
ATOM     16  C   UNL     1       4.657   4.004  12.645  0.00  0.00    +0.000 A 
ENDBRANCH   6  10
BRANCH   1  21
ATOM     17  N   UNL     1       3.539   5.052  19.242  0.00  0.00    +0.000 N 
ATOM     18  C   UNL     1       2.898   4.096  20.014  0.00  0.00    +0.000 A 
ATOM     19  C   UNL     1       3.598   2.914  19.957  0.00  0.00    +0.000 A 
ATOM     20  C   UNL     1       4.744   3.148  19.173  0.00  0.00    +0.000 A 
ATOM     21  C   UNL     1       4.727   4.474  18.778  0.00  0.00    +0.000 A 
BRANCH  17  25
ATOM     22  C   UNL     1       1.885   8.883  18.459  0.00  0.00    +0.000 A 
ATOM     23  C   UNL     1       1.683   8.259  19.691  0.00  0.00    +0.000 A 
ATOM     24  C   UNL     1       2.239   7.004  19.957  0.00  0.00    +0.000 A 
ATOM     25  C   UNL     1       3.010   6.355  18.984  0.00  0.00    +0.000 A 
ATOM     26  C   UNL     1       3.198   6.975  17.742  0.00  0.00    +0.000 A 
ATOM     27  C   UNL     1       2.636   8.231  17.481  0.00  0.00    +0.000 A 
BRANCH  22  29
ATOM     28  C   UNL     1       1.106  10.864  19.492  0.00  0.00    +0.000 C 
ATOM     29  O   UNL     1       1.266  10.092  18.307  0.00  0.00    +0.000 OA
ENDBRANCH  22  29
ENDBRANCH  17  25
ENDBRANCH   1  21
TORSDOF 4
ENDMDL
MODEL 5
REMARK VINA RESULT:      -7.3      3.769      6.153
REMARK  Name = 
REMARK  5 active torsions:
REMARK  status: ('A' for Active; 'I' for Inactive)
REMARK    1  A    between atoms: C_1  and  O_2
REMARK    2  A    between atoms: O_2  and  C_3
REMARK    3  A    between atoms: C_6  and  N_7
REMARK    4  A    between atoms: C_11  and  C_12
REMARK    5  A    between atoms: N_17  and  C_18
REMARK                            x       y       z     vdW  Elec       q    Type
REMARK                         _______ _______ _______ _____ _____    ______ ____
ROOT
ATOM      1  C   UNL     1       1.926   9.174  19.238  0.00  0.00    +0.000 C 
ATOM      2  C   UNL     1       2.375   8.025  18.716  0.00  0.00    +0.000 C 
ATOM      3  N   UNL     1       3.278   7.958  17.698  0.00  0.00    +0.000 N 
ATOM      4  C   UNL     1       3.676   6.646  17.490  0.00  0.00    +0.000 C 
ATOM      5  O   UNL     1       4.508   6.346  16.647  0.00  0.00    +0.000 OA
ATOM      6  N   UNL     1       2.955   5.835  18.361  0.00  0.00    +0.000 N 
ATOM      7  C   UNL     1       2.093   6.605  19.127  0.00  0.00    +0.000 C 
ATOM      8  O   UNL     1       1.282   6.261  19.969  0.00  0.00    +0.000 OA
ATOM      9  H   UNL     1       3.689   8.732  17.199  0.00  0.00    +0.000 HD
ENDROOT
BRANCH   6  10
ATOM     10  C   UNL     1       3.094   4.425  18.467  0.00  0.00    +0.000 A 
ATOM     11  C   UNL     1       2.429   3.570  17.576  0.00  0.00    +0.000 A 
ATOM     12  C   UNL     1       2.575   2.181  17.657  0.00  0.00    +0.000 A 
ATOM     13  C   UNL     1       3.370   1.622  18.651  0.00  0.00    +0.000 A 
ATOM     14  C   UNL     1       4.029   2.456  19.548  0.00  0.00    +0.000 A 
ATOM     15 CL   UNL     1       4.989   1.764  20.799  0.00  0.00    +0.000 Cl
ATOM     16  C   UNL     1       3.909   3.844  19.452  0.00  0.00    +0.000 A 
ENDBRANCH   6  10
BRANCH   1  21
ATOM     17  N   UNL     1      -0.148   9.793  20.410  0.00  0.00    +0.000 N 
ATOM     18  C   UNL     1      -0.559   9.860  21.732  0.00  0.00    +0.000 A 
ATOM     19  C   UNL     1       0.371   9.241  22.534  0.00  0.00    +0.000 A 
ATOM     20  C   UNL     1       1.425   8.823  21.700  0.00  0.00    +0.000 A 
ATOM     21  C   UNL     1       1.123   9.208  20.406  0.00  0.00    +0.000 A 
BRANCH  17  25
ATOM     22  C   UNL     1      -2.430  11.114  17.083  0.00  0.00    +0.000 A 
ATOM     23  C   UNL     1      -1.793   9.873  17.060  0.00  0.00    +0.000 A 
ATOM     24  C   UNL     1      -1.053   9.428  18.160  0.00  0.00    +0.000 A 
ATOM     25  C   UNL     1      -0.943  10.230  19.305  0.00  0.00    +0.000 A 
ATOM     26  C   UNL     1      -1.569  11.482  19.319  0.00  0.00    +0.000 A 
ATOM     27  C   UNL     1      -2.307  11.922  18.212  0.00  0.00    +0.000 A 
BRANCH  22  29
ATOM     28  C   UNL     1      -3.118  10.461  14.915  0.00  0.00    +0.000 C 
ATOM     29  O   UNL     1      -3.097  11.451  15.938  0.00  0.00    +0.000 OA
ENDBRANCH  22  29
ENDBRANCH  17  25
ENDBRANCH   1  21
TORSDOF 4
ENDMDL
MODEL 6
REMARK VINA RESULT:      -7.3      1.363      1.901
REMARK  Name = 
REMARK  5 active torsions:
REMARK  status: ('A' for Active; 'I' for Inactive)
REMARK    1  A    between atoms: C_1  and  O_2
REMARK    2  A    between atoms: O_2  and  C_3
REMARK    3  A    between atoms: C_6  and  N_7
REMARK    4  A    between atoms: C_11  and  C_12
REMARK    5  A    between atoms: N_17  and  C_18
REMARK                            x       y       z     vdW  Elec       q    Type
REMARK                         _______ _______ _______ _____ _____    ______ ____
ROOT
ATOM      1  C   UNL     1       5.333   5.030  18.535  0.00  0.00    +0.000 C 
ATOM      2  C   UNL     1       5.711   5.012  17.250  0.00  0.00    +0.000 C 
ATOM      3  N   UNL     1       6.820   5.647  16.778  0.00  0.00    +0.000 N 
ATOM      4  C   UNL     1       7.044   5.309  15.453  0.00  0.00    +0.000 C 
ATOM      5  O   UNL     1       8.004   5.735  14.828  0.00  0.00    +0.000 OA
ATOM      6  N   UNL     1       6.007   4.479  15.039  0.00  0.00    +0.000 N 
ATOM      7  C   UNL     1       5.112   4.279  16.079  0.00  0.00    +0.000 C 
ATOM      8  O   UNL     1       4.070   3.647  16.099  0.00  0.00    +0.000 OA
ATOM      9  H   UNL     1       7.462   6.219  17.305  0.00  0.00    +0.000 HD
ENDROOT
BRANCH   6  10
ATOM     10  C   UNL     1       5.889   3.902  13.746  0.00  0.00    +0.000 A 
ATOM     11  C   UNL     1       7.012   3.374  13.092  0.00  0.00    +0.000 A 
ATOM     12  C   UNL     1       6.906   2.783  11.829  0.00  0.00    +0.000 A 
ATOM     13  C   UNL     1       5.674   2.735  11.185  0.00  0.00    +0.000 A 
ATOM     14  C   UNL     1       4.552   3.262  11.816  0.00  0.00    +0.000 A 
ATOM     15 CL   UNL     1       3.032   3.232  11.007  0.00  0.00    +0.000 Cl
ATOM     16  C   UNL     1       4.649   3.826  13.091  0.00  0.00    +0.000 A 
ENDBRANCH   6  10
BRANCH   1  21
ATOM     17  N   UNL     1       3.060   4.767  19.443  0.00  0.00    +0.000 N 
ATOM     18  C   UNL     1       2.348   3.750  20.058  0.00  0.00    +0.000 A 
ATOM     19  C   UNL     1       3.039   2.567  19.936  0.00  0.00    +0.000 A 
ATOM     20  C   UNL     1       4.248   2.860  19.276  0.00  0.00    +0.000 A 
ATOM     21  C   UNL     1       4.276   4.218  19.020  0.00  0.00    +0.000 A 
BRANCH  17  25
ATOM     22  C   UNL     1       1.682   8.753  18.955  0.00  0.00    +0.000 A 
ATOM     23  C   UNL     1       2.186   8.037  17.868  0.00  0.00    +0.000 A 
ATOM     24  C   UNL     1       2.626   6.719  18.023  0.00  0.00    +0.000 A 
ATOM     25  C   UNL     1       2.566   6.099  19.278  0.00  0.00    +0.000 A 
ATOM     26  C   UNL     1       2.077   6.826  20.371  0.00  0.00    +0.000 A 
ATOM     27  C   UNL     1       1.639   8.146  20.209  0.00  0.00    +0.000 A 
BRANCH  22  29
ATOM     28  C   UNL     1      -0.087  10.275  18.565  0.00  0.00    +0.000 C 
ATOM     29  O   UNL     1       1.312  10.041  18.686  0.00  0.00    +0.000 OA
ENDBRANCH  22  29
ENDBRANCH  17  25
ENDBRANCH   1  21
TORSDOF 4
ENDMDL
MODEL 7
REMARK VINA RESULT:      -7.3      4.046      8.816
REMARK  Name = 
REMARK  5 active torsions:
REMARK  status: ('A' for Active; 'I' for Inactive)
REMARK    1  A    between atoms: C_1  and  O_2
REMARK    2  A    between atoms: O_2  and  C_3
REMARK    3  A    between atoms: C_6  and  N_7
REMARK    4  A    between atoms: C_11  and  C_12
REMARK    5  A    between atoms: N_17  and  C_18
REMARK                            x       y       z     vdW  Elec       q    Type
REMARK                         _______ _______ _______ _____ _____    ______ ____
ROOT
ATOM      1  C   UNL     1       2.403   6.912  18.531  0.00  0.00    +0.000 C 
ATOM      2  C   UNL     1       1.871   8.080  18.913  0.00  0.00    +0.000 C 
ATOM      3  N   UNL     1       1.548   9.084  18.050  0.00  0.00    +0.000 N 
ATOM      4  C   UNL     1       0.864  10.091  18.712  0.00  0.00    +0.000 C 
ATOM      5  O   UNL     1       0.445  11.081  18.132  0.00  0.00    +0.000 OA
ATOM      6  N   UNL     1       0.801   9.753  20.060  0.00  0.00    +0.000 N 
ATOM      7  C   UNL     1       1.439   8.542  20.279  0.00  0.00    +0.000 C 
ATOM      8  O   UNL     1       1.622   7.935  21.320  0.00  0.00    +0.000 OA
ATOM      9  H   UNL     1       1.692   9.095  17.051  0.00  0.00    +0.000 HD
ENDROOT
BRANCH   6  10
ATOM     10  C   UNL     1       0.158  10.523  21.066  0.00  0.00    +0.000 A 
ATOM     11  C   UNL     1      -0.535   9.898  22.114  0.00  0.00    +0.000 A 
ATOM     12  C   UNL     1      -1.154  10.645  23.122  0.00  0.00    +0.000 A 
ATOM     13  C   UNL     1      -1.113  12.035  23.084  0.00  0.00    +0.000 A 
ATOM     14  C   UNL     1      -0.438  12.670  22.046  0.00  0.00    +0.000 A 
ATOM     15 CL   UNL     1      -0.412  14.390  21.979  0.00  0.00    +0.000 Cl
ATOM     16  C   UNL     1       0.207  11.927  21.054  0.00  0.00    +0.000 A 
ENDBRANCH   6  10
BRANCH   1  21
ATOM     17  N   UNL     1       3.485   4.802  19.191  0.00  0.00    +0.000 N 
ATOM     18  C   UNL     1       3.235   3.806  20.121  0.00  0.00    +0.000 A 
ATOM     19  C   UNL     1       2.259   4.228  20.993  0.00  0.00    +0.000 A 
ATOM     20  C   UNL     1       1.842   5.503  20.564  0.00  0.00    +0.000 A 
ATOM     21  C   UNL     1       2.564   5.827  19.430  0.00  0.00    +0.000 A 
BRANCH  17  25
ATOM     22  C   UNL     1       6.573   4.702  16.278  0.00  0.00    +0.000 A 
ATOM     23  C   UNL     1       6.801   5.258  17.538  0.00  0.00    +0.000 A 
ATOM     24  C   UNL     1       5.791   5.279  18.504  0.00  0.00    +0.000 A 
ATOM     25  C   UNL     1       4.530   4.738  18.216  0.00  0.00    +0.000 A 
ATOM     26  C   UNL     1       4.299   4.196  16.946  0.00  0.00    +0.000 A 
ATOM     27  C   UNL     1       5.314   4.181  15.982  0.00  0.00    +0.000 A 
BRANCH  22  29
ATOM     28  C   UNL     1       7.292   4.919  14.034  0.00  0.00    +0.000 C 
ATOM     29  O   UNL     1       7.626   4.768  15.410  0.00  0.00    +0.000 OA
ENDBRANCH  22  29
ENDBRANCH  17  25
ENDBRANCH   1  21
TORSDOF 4
ENDMDL
MODEL 8
REMARK VINA RESULT:      -7.2      1.172      1.566
REMARK  Name = 
REMARK  5 active torsions:
REMARK  status: ('A' for Active; 'I' for Inactive)
REMARK    1  A    between atoms: C_1  and  O_2
REMARK    2  A    between atoms: O_2  and  C_3
REMARK    3  A    between atoms: C_6  and  N_7
REMARK    4  A    between atoms: C_11  and  C_12
REMARK    5  A    between atoms: N_17  and  C_18
REMARK                            x       y       z     vdW  Elec       q    Type
REMARK                         _______ _______ _______ _____ _____    ______ ____
ROOT
ATOM      1  C   UNL     1       4.861   5.428  19.351  0.00  0.00    +0.000 C 
ATOM      2  C   UNL     1       5.484   5.570  18.174  0.00  0.00    +0.000 C 
ATOM      3  N   UNL     1       6.654   6.249  18.014  0.00  0.00    +0.000 N 
ATOM      4  C   UNL     1       7.139   6.080  16.726  0.00  0.00    +0.000 C 
ATOM      5  O   UNL     1       8.196   6.573  16.361  0.00  0.00    +0.000 OA
ATOM      6  N   UNL     1       6.215   5.320  16.015  0.00  0.00    +0.000 N 
ATOM      7  C   UNL     1       5.138   4.998  16.825  0.00  0.00    +0.000 C 
ATOM      8  O   UNL     1       4.122   4.379  16.559  0.00  0.00    +0.000 OA
ATOM      9  H   UNL     1       7.171   6.744  18.724  0.00  0.00    +0.000 HD
ENDROOT
BRANCH   6  10
ATOM     10  C   UNL     1       6.363   4.914  14.662  0.00  0.00    +0.000 A 
ATOM     11  C   UNL     1       7.540   5.197  13.952  0.00  0.00    +0.000 A 
ATOM     12  C   UNL     1       7.706   4.783  12.627  0.00  0.00    +0.000 A 
ATOM     13  C   UNL     1       6.683   4.100  11.977  0.00  0.00    +0.000 A 
ATOM     14  C   UNL     1       5.506   3.819  12.664  0.00  0.00    +0.000 A 
ATOM     15 CL   UNL     1       4.226   3.002  11.853  0.00  0.00    +0.000 Cl
ATOM     16  C   UNL     1       5.348   4.205  13.997  0.00  0.00    +0.000 A 
ENDBRANCH   6  10
BRANCH   1  21
ATOM     17  N   UNL     1       2.466   5.071  19.798  0.00  0.00    +0.000 N 
ATOM     18  C   UNL     1       1.666   3.984  20.113  0.00  0.00    +0.000 A 
ATOM     19  C   UNL     1       2.377   2.822  19.930  0.00  0.00    +0.000 A 
ATOM     20  C   UNL     1       3.681   3.190  19.544  0.00  0.00    +0.000 A 
ATOM     21  C   UNL     1       3.742   4.571  19.512  0.00  0.00    +0.000 A 
BRANCH  17  25
ATOM     22  C   UNL     1       1.164   9.111  19.693  0.00  0.00    +0.000 A 
ATOM     23  C   UNL     1       1.710   8.510  18.558  0.00  0.00    +0.000 A 
ATOM     24  C   UNL     1       2.126   7.175  18.585  0.00  0.00    +0.000 A 
ATOM     25  C   UNL     1       1.998   6.422  19.760  0.00  0.00    +0.000 A 
ATOM     26  C   UNL     1       1.465   7.032  20.902  0.00  0.00    +0.000 A 
ATOM     27  C   UNL     1       1.053   8.370  20.869  0.00  0.00    +0.000 A 
BRANCH  22  29
ATOM     28  C   UNL     1      -0.286  10.696  18.702  0.00  0.00    +0.000 C 
ATOM     29  O   UNL     1       0.824  10.427  19.552  0.00  0.00    +0.000 OA
ENDBRANCH  22  29
ENDBRANCH  17  25
ENDBRANCH   1  21
TORSDOF 4
ENDMDL
MODEL 9
REMARK VINA RESULT:      -7.1      8.717     11.357
REMARK  Name = 
REMARK  5 active torsions:
REMARK  status: ('A' for Active; 'I' for Inactive)
REMARK    1  A    between atoms: C_1  and  O_2
REMARK    2  A    between atoms: O_2  and  C_3
REMARK    3  A    between atoms: C_6  and  N_7
REMARK    4  A    between atoms: C_11  and  C_12
REMARK    5  A    between atoms: N_17  and  C_18
REMARK                            x       y       z     vdW  Elec       q    Type
REMARK                         _______ _______ _______ _____ _____    ______ ____
ROOT
ATOM      1  C   UNL     1      -0.364  10.237  18.267  0.00  0.00    +0.000 C 
ATOM      2  C   UNL     1      -1.542  10.632  17.769  0.00  0.00    +0.000 C 
ATOM      3  N   UNL     1      -1.921  10.438  16.474  0.00  0.00    +0.000 N 
ATOM      4  C   UNL     1      -3.248  10.796  16.299  0.00  0.00    +0.000 C 
ATOM      5  O   UNL     1      -3.816  10.677  15.224  0.00  0.00    +0.000 OA
ATOM      6  N   UNL     1      -3.721  11.299  17.507  0.00  0.00    +0.000 N 
ATOM      7  C   UNL     1      -2.715  11.274  18.461  0.00  0.00    +0.000 C 
ATOM      8  O   UNL     1      -2.730  11.657  19.618  0.00  0.00    +0.000 OA
ATOM      9  H   UNL     1      -1.374  10.017  15.739  0.00  0.00    +0.000 HD
ENDROOT
BRANCH   6  10
ATOM     10  C   UNL     1      -5.047  11.753  17.740  0.00  0.00    +0.000 A 
ATOM     11  C   UNL     1      -5.846  11.156  18.727  0.00  0.00    +0.000 A 
ATOM     12  C   UNL     1      -7.145  11.608  18.980  0.00  0.00    +0.000 A 
ATOM     13  C   UNL     1      -7.678  12.650  18.230  0.00  0.00    +0.000 A 
ATOM     14  C   UNL     1      -6.902  13.247  17.241  0.00  0.00    +0.000 A 
ATOM     15 CL   UNL     1      -7.571  14.516  16.289  0.00  0.00    +0.000 Cl
ATOM     16  C   UNL     1      -5.594  12.817  17.005  0.00  0.00    +0.000 A 
ENDBRANCH   6  10
BRANCH   1  21
ATOM     17  N   UNL     1       0.614  11.380  20.217  0.00  0.00    +0.000 N 
ATOM     18  C   UNL     1       0.927  11.028  21.520  0.00  0.00    +0.000 A 
ATOM     19  C   UNL     1       0.365   9.807  21.813  0.00  0.00    +0.000 A 
ATOM     20  C   UNL     1      -0.271   9.352  20.643  0.00  0.00    +0.000 A 
ATOM     21  C   UNL     1      -0.073  10.298  19.654  0.00  0.00    +0.000 A 
BRANCH  17  25
ATOM     22  C   UNL     1       1.622  15.156  18.559  0.00  0.00    +0.000 A 
ATOM     23  C   UNL     1       2.521  14.090  18.498  0.00  0.00    +0.000 A 
ATOM     24  C   UNL     1       2.186  12.841  19.030  0.00  0.00    +0.000 A 
ATOM     25  C   UNL     1       0.936  12.645  19.633  0.00  0.00    +0.000 A 
ATOM     26  C   UNL     1       0.043  13.721  19.708  0.00  0.00    +0.000 A 
ATOM     27  C   UNL     1       0.386  14.970  19.175  0.00  0.00    +0.000 A 
BRANCH  22  29
ATOM     28  C   UNL     1       3.427  16.337  17.585  0.00  0.00    +0.000 C 
ATOM     29  O   UNL     1       2.075  16.334  18.033  0.00  0.00    +0.000 OA
ENDBRANCH  22  29
ENDBRANCH  17  25
ENDBRANCH   1  21
TORSDOF 4
ENDMDL
