MODEL 1
REMARK VINA RESULT:      -9.0      0.000      0.000
REMARK  Name = 
REMARK  12 active torsions:
REMARK  status: ('A' for Active; 'I' for Inactive)
REMARK    1  A    between atoms: C_1  and  C_2
REMARK    2  A    between atoms: C_2  and  C_3
REMARK    3  A    between atoms: C_2  and  C_4
REMARK    4  A    between atoms: C_4  and  C_5
REMARK    5  A    between atoms: C_5  and  N_6
REMARK    6  A    between atoms: C_5  and  C_27
REMARK    7  A    between atoms: C_7  and  C_9
REMARK    8  A    between atoms: C_9  and  O_10
REMARK    9  A    between atoms: O_10  and  C_11
REMARK   10  A    between atoms: C_14  and  C_15
REMARK   11  A    between atoms: N_29  and  C_30
REMARK   12  A    between atoms: C_35  and  O_36
REMARK                            x       y       z     vdW  Elec       q    Type
REMARK                         _______ _______ _______ _____ _____    ______ ____
ROOT
ATOM      1  N   UNL     1       2.774   6.100  20.070  0.00  0.00    +0.000 N 
ATOM      2  C   UNL     1       2.554   6.955  19.007  0.00  0.00    +0.000 C 
ATOM      3  O   UNL     1       2.874   6.672  17.852  0.00  0.00    +0.000 OA
ATOM      4  H   UNL     1       2.312   6.284  20.963  0.00  0.00    +0.000 HD
ENDROOT
BRANCH   1   5
ATOM      5  C   UNL     1       3.427   4.800  19.907  0.00  0.00    +0.000 C 
BRANCH   5   6
ATOM      6  C   UNL     1       4.810   5.025  19.230  0.00  0.00    +0.000 C 
ATOM      7  O   UNL     1       5.721   5.646  19.768  0.00  0.00    +0.000 OA
ATOM      8  N   UNL     1       4.895   4.540  17.947  0.00  0.00    +0.000 N 
ATOM      9  H   UNL     1       4.185   3.875  17.660  0.00  0.00    +0.000 HD
BRANCH   8  10
ATOM     10  C   UNL     1       6.001   4.735  17.007  0.00  0.00    +0.000 C 
ATOM     11  C   UNL     1       6.006   3.781  15.835  0.00  0.00    +0.000 C 
ATOM     12  C   UNL     1       5.507   4.621  14.715  0.00  0.00    +0.000 C 
ATOM     13  O   UNL     1       5.150   4.198  13.624  0.00  0.00    +0.000 OA
ATOM     14  O   UNL     1       5.636   5.949  14.994  0.00  0.00    +0.000 OA
ATOM     15  C   UNL     1       6.088   6.099  16.329  0.00  0.00    +0.000 C 
BRANCH  15  16
ATOM     16  O   UNL     1       7.448   6.512  16.306  0.00  0.00    +0.000 OA
ATOM     17  H   UNL     1       7.554   7.070  17.097  0.00  0.00    +0.000 HD
ENDBRANCH  15  16
ENDBRANCH   8  10
ENDBRANCH   5   6
BRANCH   5  18
ATOM     18  C   UNL     1       2.554   3.817  19.083  0.00  0.00    +0.000 C 
BRANCH  18  20
ATOM     19  C   UNL     1       0.576   2.216  19.016  0.00  0.00    +0.000 C 
ATOM     20  C   UNL     1       1.242   3.367  19.774  0.00  0.00    +0.000 C 
ATOM     21  C   UNL     1       1.464   2.953  21.233  0.00  0.00    +0.000 C 
ENDBRANCH  18  20
ENDBRANCH   5  18
ENDBRANCH   1   5
BRANCH   2  22
ATOM     22  C   UNL     1       1.956   8.312  19.390  0.00  0.00    +0.000 C 
BRANCH  22  23
ATOM     23  O   UNL     1       1.560   8.385  20.756  0.00  0.00    +0.000 OA
BRANCH  23  24
ATOM     24  C   UNL     1       0.684   9.393  21.072  0.00  0.00    +0.000 A 
ATOM     25  C   UNL     1       0.042   9.288  22.302  0.00  0.00    +0.000 A 
ATOM     26  C   UNL     1      -0.826  10.298  22.751  0.00  0.00    +0.000 A 
ATOM     27  C   UNL     1      -1.063  11.454  21.988  0.00  0.00    +0.000 A 
ATOM     28  C   UNL     1      -0.424  11.531  20.742  0.00  0.00    +0.000 A 
ATOM     29  C   UNL     1       0.436  10.515  20.288  0.00  0.00    +0.000 A 
BRANCH  27  30
ATOM     30  C   UNL     1      -1.945  12.618  22.483  0.00  0.00    +0.000 C 
ATOM     31  C   UNL     1      -2.780  13.282  21.354  0.00  0.00    +0.000 C 
ATOM     32  C   UNL     1      -3.653  14.430  21.891  0.00  0.00    +0.000 C 
ATOM     33  C   UNL     1      -4.616  13.877  22.948  0.00  0.00    +0.000 C 
ATOM     34  C   UNL     1      -3.820  13.254  24.104  0.00  0.00    +0.000 C 
ATOM     35  C   UNL     1      -2.916  14.328  24.730  0.00  0.00    +0.000 C 
ATOM     36  C   UNL     1      -1.941  14.878  23.677  0.00  0.00    +0.000 C 
ATOM     37  C   UNL     1      -2.744  15.495  22.521  0.00  0.00    +0.000 C 
ATOM     38  C   UNL     1      -1.068  13.729  23.138  0.00  0.00    +0.000 C 
ATOM     39  C   UNL     1      -2.949  12.106  23.564  0.00  0.00    +0.000 C 
ENDBRANCH  27  30
ENDBRANCH  23  24
ENDBRANCH  22  23
ENDBRANCH   2  22
TORSDOF 10
ENDMDL
MODEL 2
REMARK VINA RESULT:      -9.0      1.091      1.947
REMARK  Name = 
REMARK  12 active torsions:
REMARK  status: ('A' for Active; 'I' for Inactive)
REMARK    1  A    between atoms: C_1  and  C_2
REMARK    2  A    between atoms: C_2  and  C_3
REMARK    3  A    between atoms: C_2  and  C_4
REMARK    4  A    between atoms: C_4  and  C_5
REMARK    5  A    between atoms: C_5  and  N_6
REMARK    6  A    between atoms: C_5  and  C_27
REMARK    7  A    between atoms: C_7  and  C_9
REMARK    8  A    between atoms: C_9  and  O_10
REMARK    9  A    between atoms: O_10  and  C_11
REMARK   10  A    between atoms: C_14  and  C_15
REMARK   11  A    between atoms: N_29  and  C_30
REMARK   12  A    between atoms: C_35  and  O_36
REMARK                            x       y       z     vdW  Elec       q    Type
REMARK                         _______ _______ _______ _____ _____    ______ ____
ROOT
ATOM      1  N   UNL     1       2.641   6.201  20.156  0.00  0.00    +0.000 N 
ATOM      2  C   UNL     1       2.357   7.112  19.157  0.00  0.00    +0.000 C 
ATOM      3  O   UNL     1       2.536   6.865  17.964  0.00  0.00    +0.000 OA
ATOM      4  H   UNL     1       2.287   6.367  21.100  0.00  0.00    +0.000 HD
ENDROOT
BRANCH   1   5
ATOM      5  C   UNL     1       3.200   4.877  19.872  0.00  0.00    +0.000 C 
BRANCH   5   6
ATOM      6  C   UNL     1       4.608   5.065  19.236  0.00  0.00    +0.000 C 
ATOM      7  O   UNL     1       5.561   5.531  19.852  0.00  0.00    +0.000 OA
ATOM      8  N   UNL     1       4.672   4.738  17.902  0.00  0.00    +0.000 N 
ATOM      9  H   UNL     1       3.912   4.179  17.530  0.00  0.00    +0.000 HD
BRANCH   8  10
ATOM     10  C   UNL     1       5.806   4.952  17.000  0.00  0.00    +0.000 C 
ATOM     11  C   UNL     1       5.904   6.351  16.436  0.00  0.00    +0.000 C 
ATOM     12  C   UNL     1       7.005   6.957  17.228  0.00  0.00    +0.000 C 
ATOM     13  O   UNL     1       7.281   8.149  17.251  0.00  0.00    +0.000 OA
ATOM     14  O   UNL     1       7.778   6.002  17.818  0.00  0.00    +0.000 OA
ATOM     15  C   UNL     1       7.196   4.729  17.588  0.00  0.00    +0.000 C 
BRANCH  15  16
ATOM     16  O   UNL     1       7.989   4.032  16.635  0.00  0.00    +0.000 OA
ATOM     17  H   UNL     1       8.338   4.724  16.047  0.00  0.00    +0.000 HD
ENDBRANCH  15  16
ENDBRANCH   8  10
ENDBRANCH   5   6
BRANCH   5  18
ATOM     18  C   UNL     1       2.274   4.048  18.946  0.00  0.00    +0.000 C 
BRANCH  18  20
ATOM     19  C   UNL     1       0.596   2.133  18.888  0.00  0.00    +0.000 C 
ATOM     20  C   UNL     1       1.074   3.369  19.654  0.00  0.00    +0.000 C 
ATOM     21  C   UNL     1       1.397   2.976  21.100  0.00  0.00    +0.000 C 
ENDBRANCH  18  20
ENDBRANCH   5  18
ENDBRANCH   1   5
BRANCH   2  22
ATOM     22  C   UNL     1       1.879   8.479  19.655  0.00  0.00    +0.000 C 
BRANCH  22  23
ATOM     23  O   UNL     1       1.383   8.447  20.990  0.00  0.00    +0.000 OA
BRANCH  23  24
ATOM     24  C   UNL     1       0.481   9.429  21.318  0.00  0.00    +0.000 A 
ATOM     25  C   UNL     1       0.005   9.417  22.625  0.00  0.00    +0.000 A 
ATOM     26  C   UNL     1      -0.873  10.414  23.082  0.00  0.00    +0.000 A 
ATOM     27  C   UNL     1      -1.285  11.466  22.247  0.00  0.00    +0.000 A 
ATOM     28  C   UNL     1      -0.811  11.450  20.928  0.00  0.00    +0.000 A 
ATOM     29  C   UNL     1       0.058  10.445  20.467  0.00  0.00    +0.000 A 
BRANCH  27  30
ATOM     30  C   UNL     1      -2.181  12.622  22.737  0.00  0.00    +0.000 C 
ATOM     31  C   UNL     1      -3.249  12.176  23.774  0.00  0.00    +0.000 C 
ATOM     32  C   UNL     1      -4.114  13.358  24.246  0.00  0.00    +0.000 C 
ATOM     33  C   UNL     1      -3.211  14.412  24.899  0.00  0.00    +0.000 C 
ATOM     34  C   UNL     1      -2.172  14.909  23.884  0.00  0.00    +0.000 C 
ATOM     35  C   UNL     1      -2.899  15.520  22.675  0.00  0.00    +0.000 C 
ATOM     36  C   UNL     1      -3.797  14.464  22.011  0.00  0.00    +0.000 C 
ATOM     37  C   UNL     1      -4.831  13.966  23.033  0.00  0.00    +0.000 C 
ATOM     38  C   UNL     1      -2.932  13.279  21.539  0.00  0.00    +0.000 C 
ATOM     39  C   UNL     1      -1.308  13.725  23.414  0.00  0.00    +0.000 C 
ENDBRANCH  27  30
ENDBRANCH  23  24
ENDBRANCH  22  23
ENDBRANCH   2  22
TORSDOF 10
ENDMDL
MODEL 3
REMARK VINA RESULT:      -8.9      1.387      2.013
REMARK  Name = 
REMARK  12 active torsions:
REMARK  status: ('A' for Active; 'I' for Inactive)
REMARK    1  A    between atoms: C_1  and  C_2
REMARK    2  A    between atoms: C_2  and  C_3
REMARK    3  A    between atoms: C_2  and  C_4
REMARK    4  A    between atoms: C_4  and  C_5
REMARK    5  A    between atoms: C_5  and  N_6
REMARK    6  A    between atoms: C_5  and  C_27
REMARK    7  A    between atoms: C_7  and  C_9
REMARK    8  A    between atoms: C_9  and  O_10
REMARK    9  A    between atoms: O_10  and  C_11
REMARK   10  A    between atoms: C_14  and  C_15
REMARK   11  A    between atoms: N_29  and  C_30
REMARK   12  A    between atoms: C_35  and  O_36
REMARK                            x       y       z     vdW  Elec       q    Type
REMARK                         _______ _______ _______ _____ _____    ______ ____
ROOT
ATOM      1  N   UNL     1       2.881   6.401  19.741  0.00  0.00    +0.000 N 
ATOM      2  C   UNL     1       1.872   6.913  20.535  0.00  0.00    +0.000 C 
ATOM      3  O   UNL     1       1.007   6.201  21.047  0.00  0.00    +0.000 OA
ATOM      4  H   UNL     1       3.684   6.991  19.512  0.00  0.00    +0.000 HD
ENDROOT
BRANCH   1   5
ATOM      5  C   UNL     1       2.985   4.974  19.429  0.00  0.00    +0.000 C 
BRANCH   5   6
ATOM      6  C   UNL     1       4.487   4.624  19.220  0.00  0.00    +0.000 C 
ATOM      7  O   UNL     1       4.993   3.588  19.640  0.00  0.00    +0.000 OA
ATOM      8  N   UNL     1       5.214   5.609  18.597  0.00  0.00    +0.000 N 
ATOM      9  H   UNL     1       4.690   6.328  18.110  0.00  0.00    +0.000 HD
BRANCH   8  10
ATOM     10  C   UNL     1       6.665   5.638  18.402  0.00  0.00    +0.000 C 
ATOM     11  C   UNL     1       7.174   4.701  17.330  0.00  0.00    +0.000 C 
ATOM     12  C   UNL     1       7.461   5.615  16.194  0.00  0.00    +0.000 C 
ATOM     13  O   UNL     1       7.691   5.259  15.046  0.00  0.00    +0.000 OA
ATOM     14  O   UNL     1       7.588   6.906  16.613  0.00  0.00    +0.000 OA
ATOM     15  C   UNL     1       7.273   6.977  17.993  0.00  0.00    +0.000 C 
BRANCH  15  16
ATOM     16  O   UNL     1       8.475   7.175  18.726  0.00  0.00    +0.000 OA
ATOM     17  H   UNL     1       9.009   6.380  18.550  0.00  0.00    +0.000 HD
ENDBRANCH  15  16
ENDBRANCH   8  10
ENDBRANCH   5   6
BRANCH   5  18
ATOM     18  C   UNL     1       2.143   4.596  18.182  0.00  0.00    +0.000 C 
BRANCH  18  20
ATOM     19  C   UNL     1       2.305   2.077  17.849  0.00  0.00    +0.000 C 
ATOM     20  C   UNL     1       1.404   3.237  18.277  0.00  0.00    +0.000 C 
ATOM     21  C   UNL     1       0.861   2.966  19.685  0.00  0.00    +0.000 C 
ENDBRANCH  18  20
ENDBRANCH   5  18
ENDBRANCH   1   5
BRANCH   2  22
ATOM     22  C   UNL     1       1.868   8.439  20.661  0.00  0.00    +0.000 C 
BRANCH  22  23
ATOM     23  O   UNL     1       0.930   9.070  19.795  0.00  0.00    +0.000 OA
BRANCH  23  24
ATOM     24  C   UNL     1       0.089   9.980  20.387  0.00  0.00    +0.000 A 
ATOM     25  C   UNL     1      -0.097   9.846  21.760  0.00  0.00    +0.000 A 
ATOM     26  C   UNL     1      -0.887  10.763  22.473  0.00  0.00    +0.000 A 
ATOM     27  C   UNL     1      -1.501  11.854  21.835  0.00  0.00    +0.000 A 
ATOM     28  C   UNL     1      -1.319  11.960  20.449  0.00  0.00    +0.000 A 
ATOM     29  C   UNL     1      -0.538  11.036  19.733  0.00  0.00    +0.000 A 
BRANCH  27  30
ATOM     30  C   UNL     1      -2.307  12.925  22.598  0.00  0.00    +0.000 C 
ATOM     31  C   UNL     1      -1.414  14.004  23.271  0.00  0.00    +0.000 C 
ATOM     32  C   UNL     1      -2.255  15.058  24.012  0.00  0.00    +0.000 C 
ATOM     33  C   UNL     1      -3.186  15.753  23.010  0.00  0.00    +0.000 C 
ATOM     34  C   UNL     1      -4.116  14.719  22.359  0.00  0.00    +0.000 C 
ATOM     35  C   UNL     1      -4.947  14.029  23.452  0.00  0.00    +0.000 C 
ATOM     36  C   UNL     1      -4.018  13.322  24.454  0.00  0.00    +0.000 C 
ATOM     37  C   UNL     1      -3.086  14.361  25.097  0.00  0.00    +0.000 C 
ATOM     38  C   UNL     1      -3.175  12.267  23.712  0.00  0.00    +0.000 C 
ATOM     39  C   UNL     1      -3.272  13.666  21.619  0.00  0.00    +0.000 C 
ENDBRANCH  27  30
ENDBRANCH  23  24
ENDBRANCH  22  23
ENDBRANCH   2  22
TORSDOF 10
ENDMDL
MODEL 4
REMARK VINA RESULT:      -8.8      0.623      1.019
REMARK  Name = 
REMARK  12 active torsions:
REMARK  status: ('A' for Active; 'I' for Inactive)
REMARK    1  A    between atoms: C_1  and  C_2
REMARK    2  A    between atoms: C_2  and  C_3
REMARK    3  A    between atoms: C_2  and  C_4
REMARK    4  A    between atoms: C_4  and  C_5
REMARK    5  A    between atoms: C_5  and  N_6
REMARK    6  A    between atoms: C_5  and  C_27
REMARK    7  A    between atoms: C_7  and  C_9
REMARK    8  A    between atoms: C_9  and  O_10
REMARK    9  A    between atoms: O_10  and  C_11
REMARK   10  A    between atoms: C_14  and  C_15
REMARK   11  A    between atoms: N_29  and  C_30
REMARK   12  A    between atoms: C_35  and  O_36
REMARK                            x       y       z     vdW  Elec       q    Type
REMARK                         _______ _______ _______ _____ _____    ______ ____
ROOT
ATOM      1  N   UNL     1       2.448   6.185  20.124  0.00  0.00    +0.000 N 
ATOM      2  C   UNL     1       2.278   7.252  19.261  0.00  0.00    +0.000 C 
ATOM      3  O   UNL     1       2.478   7.163  18.050  0.00  0.00    +0.000 OA
ATOM      4  H   UNL     1       2.076   6.246  21.073  0.00  0.00    +0.000 HD
ENDROOT
BRANCH   1   5
ATOM      5  C   UNL     1       2.904   4.872  19.664  0.00  0.00    +0.000 C 
BRANCH   5   6
ATOM      6  C   UNL     1       4.376   5.005  19.177  0.00  0.00    +0.000 C 
ATOM      7  O   UNL     1       5.296   5.332  19.919  0.00  0.00    +0.000 OA
ATOM      8  N   UNL     1       4.544   4.803  17.828  0.00  0.00    +0.000 N 
ATOM      9  H   UNL     1       3.785   4.345  17.334  0.00  0.00    +0.000 HD
BRANCH   8  10
ATOM     10  C   UNL     1       5.772   5.010  17.056  0.00  0.00    +0.000 C 
ATOM     11  C   UNL     1       6.036   3.960  16.002  0.00  0.00    +0.000 C 
ATOM     12  C   UNL     1       5.667   4.650  14.739  0.00  0.00    +0.000 C 
ATOM     13  O   UNL     1       5.524   4.103  13.654  0.00  0.00    +0.000 OA
ATOM     14  O   UNL     1       5.652   6.004  14.898  0.00  0.00    +0.000 OA
ATOM     15  C   UNL     1       5.869   6.311  16.265  0.00  0.00    +0.000 C 
BRANCH  15  16
ATOM     16  O   UNL     1       7.181   6.838  16.411  0.00  0.00    +0.000 OA
ATOM     17  H   UNL     1       7.195   7.230  17.302  0.00  0.00    +0.000 HD
ENDBRANCH  15  16
ENDBRANCH   8  10
ENDBRANCH   5   6
BRANCH   5  18
ATOM     18  C   UNL     1       1.993   4.307  18.543  0.00  0.00    +0.000 C 
BRANCH  18  20
ATOM     19  C   UNL     1       2.595   1.850  18.256  0.00  0.00    +0.000 C 
ATOM     20  C   UNL     1       1.536   2.840  18.745  0.00  0.00    +0.000 C 
ATOM     21  C   UNL     1       1.191   2.534  20.207  0.00  0.00    +0.000 C 
ENDBRANCH  18  20
ENDBRANCH   5  18
ENDBRANCH   1   5
BRANCH   2  22
ATOM     22  C   UNL     1       1.899   8.570  19.942  0.00  0.00    +0.000 C 
BRANCH  22  23
ATOM     23  O   UNL     1       1.330   8.391  21.235  0.00  0.00    +0.000 OA
BRANCH  23  24
ATOM     24  C   UNL     1       0.551   9.424  21.695  0.00  0.00    +0.000 A 
ATOM     25  C   UNL     1       0.479  10.550  20.881  0.00  0.00    +0.000 A 
ATOM     26  C   UNL     1      -0.340  11.638  21.227  0.00  0.00    +0.000 A 
ATOM     27  C   UNL     1      -1.127  11.622  22.391  0.00  0.00    +0.000 A 
ATOM     28  C   UNL     1      -1.024  10.488  23.208  0.00  0.00    +0.000 A 
ATOM     29  C   UNL     1      -0.196   9.404  22.868  0.00  0.00    +0.000 A 
BRANCH  27  30
ATOM     30  C   UNL     1      -2.098  12.762  22.761  0.00  0.00    +0.000 C 
ATOM     31  C   UNL     1      -2.820  13.379  21.531  0.00  0.00    +0.000 C 
ATOM     32  C   UNL     1      -3.786  14.503  21.942  0.00  0.00    +0.000 C 
ATOM     33  C   UNL     1      -4.847  13.932  22.892  0.00  0.00    +0.000 C 
ATOM     34  C   UNL     1      -4.169  13.355  24.142  0.00  0.00    +0.000 C 
ATOM     35  C   UNL     1      -3.380  14.469  24.849  0.00  0.00    +0.000 C 
ATOM     36  C   UNL     1      -2.309  15.038  23.904  0.00  0.00    +0.000 C 
ATOM     37  C   UNL     1      -2.993  15.608  22.652  0.00  0.00    +0.000 C 
ATOM     38  C   UNL     1      -1.341  13.912  23.491  0.00  0.00    +0.000 C 
ATOM     39  C   UNL     1      -3.203  12.230  23.728  0.00  0.00    +0.000 C 
ENDBRANCH  27  30
ENDBRANCH  23  24
ENDBRANCH  22  23
ENDBRANCH   2  22
TORSDOF 10
ENDMDL
MODEL 5
REMARK VINA RESULT:      -8.8      0.965      2.300
REMARK  Name = 
REMARK  12 active torsions:
REMARK  status: ('A' for Active; 'I' for Inactive)
REMARK    1  A    between atoms: C_1  and  C_2
REMARK    2  A    between atoms: C_2  and  C_3
REMARK    3  A    between atoms: C_2  and  C_4
REMARK    4  A    between atoms: C_4  and  C_5
REMARK    5  A    between atoms: C_5  and  N_6
REMARK    6  A    between atoms: C_5  and  C_27
REMARK    7  A    between atoms: C_7  and  C_9
REMARK    8  A    between atoms: C_9  and  O_10
REMARK    9  A    between atoms: O_10  and  C_11
REMARK   10  A    between atoms: C_14  and  C_15
REMARK   11  A    between atoms: N_29  and  C_30
REMARK   12  A    between atoms: C_35  and  O_36
REMARK                            x       y       z     vdW  Elec       q    Type
REMARK                         _______ _______ _______ _____ _____    ______ ____
ROOT
ATOM      1  N   UNL     1       2.714   6.223  20.216  0.00  0.00    +0.000 N 
ATOM      2  C   UNL     1       2.268   7.112  19.255  0.00  0.00    +0.000 C 
ATOM      3  O   UNL     1       2.317   6.864  18.051  0.00  0.00    +0.000 OA
ATOM      4  H   UNL     1       2.467   6.380  21.195  0.00  0.00    +0.000 HD
ENDROOT
BRANCH   1   5
ATOM      5  C   UNL     1       3.302   4.927  19.870  0.00  0.00    +0.000 C 
BRANCH   5   6
ATOM      6  C   UNL     1       4.657   5.178  19.148  0.00  0.00    +0.000 C 
ATOM      7  O   UNL     1       5.697   5.426  19.750  0.00  0.00    +0.000 OA
ATOM      8  N   UNL     1       4.573   5.178  17.776  0.00  0.00    +0.000 N 
ATOM      9  H   UNL     1       3.739   4.770  17.367  0.00  0.00    +0.000 HD
BRANCH   8  10
ATOM     10  C   UNL     1       5.634   5.535  16.832  0.00  0.00    +0.000 C 
ATOM     11  C   UNL     1       6.095   6.972  16.919  0.00  0.00    +0.000 C 
ATOM     12  C   UNL     1       7.393   6.866  17.635  0.00  0.00    +0.000 C 
ATOM     13  O   UNL     1       8.013   7.809  18.109  0.00  0.00    +0.000 OA
ATOM     14  O   UNL     1       7.894   5.600  17.573  0.00  0.00    +0.000 OA
ATOM     15  C   UNL     1       6.941   4.756  16.949  0.00  0.00    +0.000 C 
BRANCH  15  16
ATOM     16  O   UNL     1       7.402   4.437  15.642  0.00  0.00    +0.000 OA
ATOM     17  H   UNL     1       6.659   3.967  15.224  0.00  0.00    +0.000 HD
ENDBRANCH  15  16
ENDBRANCH   8  10
ENDBRANCH   5   6
BRANCH   5  18
ATOM     18  C   UNL     1       2.347   4.079  18.990  0.00  0.00    +0.000 C 
BRANCH  18  20
ATOM     19  C   UNL     1       1.348   3.036  21.087  0.00  0.00    +0.000 C 
ATOM     20  C   UNL     1       1.820   2.781  19.654  0.00  0.00    +0.000 C 
ATOM     21  C   UNL     1       0.684   2.136  18.852  0.00  0.00    +0.000 C 
ENDBRANCH  18  20
ENDBRANCH   5  18
ENDBRANCH   1   5
BRANCH   2  22
ATOM     22  C   UNL     1       1.785   8.457  19.804  0.00  0.00    +0.000 C 
BRANCH  22  23
ATOM     23  O   UNL     1       1.528   8.432  21.205  0.00  0.00    +0.000 OA
BRANCH  23  24
ATOM     24  C   UNL     1       0.730   9.441  21.685  0.00  0.00    +0.000 A 
ATOM     25  C   UNL     1       0.766  10.641  20.982  0.00  0.00    +0.000 A 
ATOM     26  C   UNL     1      -0.059  11.717  21.351  0.00  0.00    +0.000 A 
ATOM     27  C   UNL     1      -0.960  11.616  22.426  0.00  0.00    +0.000 A 
ATOM     28  C   UNL     1      -0.965  10.406  23.134  0.00  0.00    +0.000 A 
ATOM     29  C   UNL     1      -0.132   9.333  22.771  0.00  0.00    +0.000 A 
BRANCH  27  30
ATOM     30  C   UNL     1      -1.937  12.746  22.808  0.00  0.00    +0.000 C 
ATOM     31  C   UNL     1      -1.261  13.909  23.585  0.00  0.00    +0.000 C 
ATOM     32  C   UNL     1      -2.266  15.019  23.937  0.00  0.00    +0.000 C 
ATOM     33  C   UNL     1      -2.867  15.583  22.643  0.00  0.00    +0.000 C 
ATOM     34  C   UNL     1      -3.585  14.466  21.873  0.00  0.00    +0.000 C 
ATOM     35  C   UNL     1      -4.699  13.880  22.755  0.00  0.00    +0.000 C 
ATOM     36  C   UNL     1      -4.100  13.304  24.049  0.00  0.00    +0.000 C 
ATOM     37  C   UNL     1      -3.378  14.425  24.812  0.00  0.00    +0.000 C 
ATOM     38  C   UNL     1      -3.093  12.193  23.697  0.00  0.00    +0.000 C 
ATOM     39  C   UNL     1      -2.577  13.357  21.521  0.00  0.00    +0.000 C 
ENDBRANCH  27  30
ENDBRANCH  23  24
ENDBRANCH  22  23
ENDBRANCH   2  22
TORSDOF 10
ENDMDL
MODEL 6
REMARK VINA RESULT:      -8.7      1.069      2.215
REMARK  Name = 
REMARK  12 active torsions:
REMARK  status: ('A' for Active; 'I' for Inactive)
REMARK    1  A    between atoms: C_1  and  C_2
REMARK    2  A    between atoms: C_2  and  C_3
REMARK    3  A    between atoms: C_2  and  C_4
REMARK    4  A    between atoms: C_4  and  C_5
REMARK    5  A    between atoms: C_5  and  N_6
REMARK    6  A    between atoms: C_5  and  C_27
REMARK    7  A    between atoms: C_7  and  C_9
REMARK    8  A    between atoms: C_9  and  O_10
REMARK    9  A    between atoms: O_10  and  C_11
REMARK   10  A    between atoms: C_14  and  C_15
REMARK   11  A    between atoms: N_29  and  C_30
REMARK   12  A    between atoms: C_35  and  O_36
REMARK                            x       y       z     vdW  Elec       q    Type
REMARK                         _______ _______ _______ _____ _____    ______ ____
ROOT
ATOM      1  N   UNL     1       2.680   6.256  20.081  0.00  0.00    +0.000 N 
ATOM      2  C   UNL     1       2.256   7.190  19.154  0.00  0.00    +0.000 C 
ATOM      3  O   UNL     1       2.295   6.983  17.941  0.00  0.00    +0.000 OA
ATOM      4  H   UNL     1       2.439   6.385  21.066  0.00  0.00    +0.000 HD
ENDROOT
BRANCH   1   5
ATOM      5  C   UNL     1       3.230   4.957  19.688  0.00  0.00    +0.000 C 
BRANCH   5   6
ATOM      6  C   UNL     1       4.632   5.189  19.052  0.00  0.00    +0.000 C 
ATOM      7  O   UNL     1       5.653   5.316  19.720  0.00  0.00    +0.000 OA
ATOM      8  N   UNL     1       4.615   5.320  17.684  0.00  0.00    +0.000 N 
ATOM      9  H   UNL     1       3.780   5.005  17.203  0.00  0.00    +0.000 HD
BRANCH   8  10
ATOM     10  C   UNL     1       5.741   5.696  16.826  0.00  0.00    +0.000 C 
ATOM     11  C   UNL     1       6.310   7.069  17.101  0.00  0.00    +0.000 C 
ATOM     12  C   UNL     1       7.564   6.771  17.841  0.00  0.00    +0.000 C 
ATOM     13  O   UNL     1       8.236   7.596  18.446  0.00  0.00    +0.000 OA
ATOM     14  O   UNL     1       7.965   5.484  17.642  0.00  0.00    +0.000 OA
ATOM     15  C   UNL     1       6.976   4.802  16.890  0.00  0.00    +0.000 C 
BRANCH  15  16
ATOM     16  O   UNL     1       7.464   4.602  15.570  0.00  0.00    +0.000 OA
ATOM     17  H   UNL     1       6.698   4.273  15.067  0.00  0.00    +0.000 HD
ENDBRANCH  15  16
ENDBRANCH   8  10
ENDBRANCH   5   6
BRANCH   5  18
ATOM     18  C   UNL     1       2.290   4.205  18.710  0.00  0.00    +0.000 C 
BRANCH  18  20
ATOM     19  C   UNL     1       0.680   2.234  18.774  0.00  0.00    +0.000 C 
ATOM     20  C   UNL     1       2.124   2.691  18.993  0.00  0.00    +0.000 C 
ATOM     21  C   UNL     1       3.064   1.832  18.138  0.00  0.00    +0.000 C 
ENDBRANCH  18  20
ENDBRANCH   5  18
ENDBRANCH   1   5
BRANCH   2  22
ATOM     22  C   UNL     1       1.811   8.527  19.751  0.00  0.00    +0.000 C 
BRANCH  22  23
ATOM     23  O   UNL     1       1.138   8.389  20.999  0.00  0.00    +0.000 OA
BRANCH  23  24
ATOM     24  C   UNL     1       0.288   9.412  21.338  0.00  0.00    +0.000 A 
ATOM     25  C   UNL     1      -0.103   9.472  22.672  0.00  0.00    +0.000 A 
ATOM     26  C   UNL     1      -0.919  10.516  23.138  0.00  0.00    +0.000 A 
ATOM     27  C   UNL     1      -1.354  11.544  22.284  0.00  0.00    +0.000 A 
ATOM     28  C   UNL     1      -0.967  11.455  20.939  0.00  0.00    +0.000 A 
ATOM     29  C   UNL     1      -0.159  10.403  20.470  0.00  0.00    +0.000 A 
BRANCH  27  30
ATOM     30  C   UNL     1      -2.182  12.748  22.777  0.00  0.00    +0.000 C 
ATOM     31  C   UNL     1      -1.335  13.813  23.526  0.00  0.00    +0.000 C 
ATOM     32  C   UNL     1      -2.194  15.001  23.991  0.00  0.00    +0.000 C 
ATOM     33  C   UNL     1      -2.839  15.665  22.768  0.00  0.00    +0.000 C 
ATOM     34  C   UNL     1      -3.722  14.650  22.029  0.00  0.00    +0.000 C 
ATOM     35  C   UNL     1      -4.815  14.143  22.984  0.00  0.00    +0.000 C 
ATOM     36  C   UNL     1      -4.174  13.467  24.208  0.00  0.00    +0.000 C 
ATOM     37  C   UNL     1      -3.286  14.486  24.939  0.00  0.00    +0.000 C 
ATOM     38  C   UNL     1      -3.312  12.278  23.743  0.00  0.00    +0.000 C 
ATOM     39  C   UNL     1      -2.860  13.463  21.565  0.00  0.00    +0.000 C 
ENDBRANCH  27  30
ENDBRANCH  23  24
ENDBRANCH  22  23
ENDBRANCH   2  22
TORSDOF 10
ENDMDL
MODEL 7
REMARK VINA RESULT:      -8.6      0.774      1.515
REMARK  Name = 
REMARK  12 active torsions:
REMARK  status: ('A' for Active; 'I' for Inactive)
REMARK    1  A    between atoms: C_1  and  C_2
REMARK    2  A    between atoms: C_2  and  C_3
REMARK    3  A    between atoms: C_2  and  C_4
REMARK    4  A    between atoms: C_4  and  C_5
REMARK    5  A    between atoms: C_5  and  N_6
REMARK    6  A    between atoms: C_5  and  C_27
REMARK    7  A    between atoms: C_7  and  C_9
REMARK    8  A    between atoms: C_9  and  O_10
REMARK    9  A    between atoms: O_10  and  C_11
REMARK   10  A    between atoms: C_14  and  C_15
REMARK   11  A    between atoms: N_29  and  C_30
REMARK   12  A    between atoms: C_35  and  O_36
REMARK                            x       y       z     vdW  Elec       q    Type
REMARK                         _______ _______ _______ _____ _____    ______ ____
ROOT
ATOM      1  N   UNL     1       2.719   6.279  20.090  0.00  0.00    +0.000 N 
ATOM      2  C   UNL     1       2.300   7.216  19.165  0.00  0.00    +0.000 C 
ATOM      3  O   UNL     1       2.251   6.980  17.958  0.00  0.00    +0.000 OA
ATOM      4  H   UNL     1       2.548   6.446  21.083  0.00  0.00    +0.000 HD
ENDROOT
BRANCH   1   5
ATOM      5  C   UNL     1       3.159   4.937  19.700  0.00  0.00    +0.000 C 
BRANCH   5   6
ATOM      6  C   UNL     1       4.363   5.078  18.725  0.00  0.00    +0.000 C 
ATOM      7  O   UNL     1       5.446   5.544  19.067  0.00  0.00    +0.000 OA
ATOM      8  N   UNL     1       4.085   4.712  17.430  0.00  0.00    +0.000 N 
ATOM      9  H   UNL     1       3.250   4.158  17.279  0.00  0.00    +0.000 HD
BRANCH   8  10
ATOM     10  C   UNL     1       4.958   4.878  16.265  0.00  0.00    +0.000 C 
ATOM     11  C   UNL     1       5.545   6.262  16.112  0.00  0.00    +0.000 C 
ATOM     12  C   UNL     1       6.948   6.085  16.568  0.00  0.00    +0.000 C 
ATOM     13  O   UNL     1       7.728   6.996  16.812  0.00  0.00    +0.000 OA
ATOM     14  O   UNL     1       7.319   4.774  16.539  0.00  0.00    +0.000 OA
ATOM     15  C   UNL     1       6.192   3.982  16.204  0.00  0.00    +0.000 C 
BRANCH  15  16
ATOM     16  O   UNL     1       6.348   3.509  14.873  0.00  0.00    +0.000 OA
ATOM     17  H   UNL     1       7.249   3.141  14.842  0.00  0.00    +0.000 HD
ENDBRANCH  15  16
ENDBRANCH   8  10
ENDBRANCH   5   6
BRANCH   5  18
ATOM     18  C   UNL     1       2.009   4.120  19.055  0.00  0.00    +0.000 C 
BRANCH  18  20
ATOM     19  C   UNL     1       1.317   2.891  21.174  0.00  0.00    +0.000 C 
ATOM     20  C   UNL     1       1.735   2.742  19.710  0.00  0.00    +0.000 C 
ATOM     21  C   UNL     1       0.669   1.940  18.956  0.00  0.00    +0.000 C 
ENDBRANCH  18  20
ENDBRANCH   5  18
ENDBRANCH   1   5
BRANCH   2  22
ATOM     22  C   UNL     1       1.981   8.594  19.751  0.00  0.00    +0.000 C 
BRANCH  22  23
ATOM     23  O   UNL     1       1.411   8.531  21.054  0.00  0.00    +0.000 OA
BRANCH  23  24
ATOM     24  C   UNL     1       0.506   9.517  21.361  0.00  0.00    +0.000 A 
ATOM     25  C   UNL     1      -0.026   9.487  22.647  0.00  0.00    +0.000 A 
ATOM     26  C   UNL     1      -0.912  10.486  23.084  0.00  0.00    +0.000 A 
ATOM     27  C   UNL     1      -1.278  11.558  22.250  0.00  0.00    +0.000 A 
ATOM     28  C   UNL     1      -0.749  11.558  20.952  0.00  0.00    +0.000 A 
ATOM     29  C   UNL     1       0.129  10.552  20.511  0.00  0.00    +0.000 A 
BRANCH  27  30
ATOM     30  C   UNL     1      -2.182  12.714  22.723  0.00  0.00    +0.000 C 
ATOM     31  C   UNL     1      -2.960  13.400  21.566  0.00  0.00    +0.000 C 
ATOM     32  C   UNL     1      -3.858  14.539  22.078  0.00  0.00    +0.000 C 
ATOM     33  C   UNL     1      -4.873  13.969  23.077  0.00  0.00    +0.000 C 
ATOM     34  C   UNL     1      -4.135  13.324  24.259  0.00  0.00    +0.000 C 
ATOM     35  C   UNL     1      -3.263  14.385  24.949  0.00  0.00    +0.000 C 
ATOM     36  C   UNL     1      -2.237  14.953  23.954  0.00  0.00    +0.000 C 
ATOM     37  C   UNL     1      -2.980  15.591  22.771  0.00  0.00    +0.000 C 
ATOM     38  C   UNL     1      -1.338  13.812  23.439  0.00  0.00    +0.000 C 
ATOM     39  C   UNL     1      -3.238  12.184  23.743  0.00  0.00    +0.000 C 
ENDBRANCH  27  30
ENDBRANCH  23  24
ENDBRANCH  22  23
ENDBRANCH   2  22
TORSDOF 10
ENDMDL
MODEL 8
REMARK VINA RESULT:      -8.6      1.429      2.369
REMARK  Name = 
REMARK  12 active torsions:
REMARK  status: ('A' for Active; 'I' for Inactive)
REMARK    1  A    between atoms: C_1  and  C_2
REMARK    2  A    between atoms: C_2  and  C_3
REMARK    3  A    between atoms: C_2  and  C_4
REMARK    4  A    between atoms: C_4  and  C_5
REMARK    5  A    between atoms: C_5  and  N_6
REMARK    6  A    between atoms: C_5  and  C_27
REMARK    7  A    between atoms: C_7  and  C_9
REMARK    8  A    between atoms: C_9  and  O_10
REMARK    9  A    between atoms: O_10  and  C_11
REMARK   10  A    between atoms: C_14  and  C_15
REMARK   11  A    between atoms: N_29  and  C_30
REMARK   12  A    between atoms: C_35  and  O_36
REMARK                            x       y       z     vdW  Elec       q    Type
REMARK                         _______ _______ _______ _____ _____    ______ ____
ROOT
ATOM      1  N   UNL     1       2.471   6.180  20.207  0.00  0.00    +0.000 N 
ATOM      2  C   UNL     1       2.084   7.198  19.355  0.00  0.00    +0.000 C 
ATOM      3  O   UNL     1       1.873   7.013  18.156  0.00  0.00    +0.000 OA
ATOM      4  H   UNL     1       2.433   6.333  21.216  0.00  0.00    +0.000 HD
ENDROOT
BRANCH   1   5
ATOM      5  C   UNL     1       2.681   4.808  19.742  0.00  0.00    +0.000 C 
BRANCH   5   6
ATOM      6  C   UNL     1       3.615   4.847  18.498  0.00  0.00    +0.000 C 
ATOM      7  O   UNL     1       3.240   4.530  17.373  0.00  0.00    +0.000 OA
ATOM      8  N   UNL     1       4.915   5.191  18.780  0.00  0.00    +0.000 N 
ATOM      9  H   UNL     1       5.090   5.628  19.678  0.00  0.00    +0.000 HD
BRANCH   8  10
ATOM     10  C   UNL     1       6.050   5.164  17.854  0.00  0.00    +0.000 C 
ATOM     11  C   UNL     1       6.165   6.380  16.965  0.00  0.00    +0.000 C 
ATOM     12  C   UNL     1       7.276   7.148  17.586  0.00  0.00    +0.000 C 
ATOM     13  O   UNL     1       7.567   8.305  17.317  0.00  0.00    +0.000 OA
ATOM     14  O   UNL     1       8.037   6.355  18.393  0.00  0.00    +0.000 OA
ATOM     15  C   UNL     1       7.439   5.073  18.480  0.00  0.00    +0.000 C 
BRANCH  15  16
ATOM     16  O   UNL     1       8.220   4.154  17.728  0.00  0.00    +0.000 OA
ATOM     17  H   UNL     1       9.129   4.271  18.057  0.00  0.00    +0.000 HD
ENDBRANCH  15  16
ENDBRANCH   8  10
ENDBRANCH   5   6
BRANCH   5  18
ATOM     18  C   UNL     1       1.341   4.100  19.413  0.00  0.00    +0.000 C 
BRANCH  18  20
ATOM     19  C   UNL     1       1.909   1.622  19.278  0.00  0.00    +0.000 C 
ATOM     20  C   UNL     1       1.160   2.703  20.060  0.00  0.00    +0.000 C 
ATOM     21  C   UNL     1       1.611   2.676  21.524  0.00  0.00    +0.000 C 
ENDBRANCH  18  20
ENDBRANCH   5  18
ENDBRANCH   1   5
BRANCH   2  22
ATOM     22  C   UNL     1       2.019   8.584  20.002  0.00  0.00    +0.000 C 
BRANCH  22  23
ATOM     23  O   UNL     1       1.669   8.542  21.382  0.00  0.00    +0.000 OA
BRANCH  23  24
ATOM     24  C   UNL     1       0.802   9.517  21.809  0.00  0.00    +0.000 A 
ATOM     25  C   UNL     1       0.758  10.680  21.046  0.00  0.00    +0.000 A 
ATOM     26  C   UNL     1      -0.140  11.714  21.359  0.00  0.00    +0.000 A 
ATOM     27  C   UNL     1      -1.036  11.606  22.436  0.00  0.00    +0.000 A 
ATOM     28  C   UNL     1      -0.962  10.437  23.205  0.00  0.00    +0.000 A 
ATOM     29  C   UNL     1      -0.055   9.407  22.899  0.00  0.00    +0.000 A 
BRANCH  27  30
ATOM     30  C   UNL     1      -2.091  12.685  22.759  0.00  0.00    +0.000 C 
ATOM     31  C   UNL     1      -3.204  12.189  23.722  0.00  0.00    +0.000 C 
ATOM     32  C   UNL     1      -4.228  13.295  24.028  0.00  0.00    +0.000 C 
ATOM     33  C   UNL     1      -3.508  14.479  24.685  0.00  0.00    +0.000 C 
ATOM     34  C   UNL     1      -2.430  15.024  23.738  0.00  0.00    +0.000 C 
ATOM     35  C   UNL     1      -3.093  15.478  22.427  0.00  0.00    +0.000 C 
ATOM     36  C   UNL     1      -3.808  14.292  21.759  0.00  0.00    +0.000 C 
ATOM     37  C   UNL     1      -4.881  13.747  22.714  0.00  0.00    +0.000 C 
ATOM     38  C   UNL     1      -2.783  13.183  21.454  0.00  0.00    +0.000 C 
ATOM     39  C   UNL     1      -1.407  13.916  23.434  0.00  0.00    +0.000 C 
ENDBRANCH  27  30
ENDBRANCH  23  24
ENDBRANCH  22  23
ENDBRANCH   2  22
TORSDOF 10
ENDMDL
MODEL 9
REMARK VINA RESULT:      -8.6      1.416      1.800
REMARK  Name = 
REMARK  12 active torsions:
REMARK  status: ('A' for Active; 'I' for Inactive)
REMARK    1  A    between atoms: C_1  and  C_2
REMARK    2  A    between atoms: C_2  and  C_3
REMARK    3  A    between atoms: C_2  and  C_4
REMARK    4  A    between atoms: C_4  and  C_5
REMARK    5  A    between atoms: C_5  and  N_6
REMARK    6  A    between atoms: C_5  and  C_27
REMARK    7  A    between atoms: C_7  and  C_9
REMARK    8  A    between atoms: C_9  and  O_10
REMARK    9  A    between atoms: O_10  and  C_11
REMARK   10  A    between atoms: C_14  and  C_15
REMARK   11  A    between atoms: N_29  and  C_30
REMARK   12  A    between atoms: C_35  and  O_36
REMARK                            x       y       z     vdW  Elec       q    Type
REMARK                         _______ _______ _______ _____ _____    ______ ____
ROOT
ATOM      1  N   UNL     1       2.344   6.700  18.000  0.00  0.00    +0.000 N 
ATOM      2  C   UNL     1       2.191   7.802  18.820  0.00  0.00    +0.000 C 
ATOM      3  O   UNL     1       2.146   7.714  20.047  0.00  0.00    +0.000 OA
ATOM      4  H   UNL     1       2.581   6.838  17.016  0.00  0.00    +0.000 HD
ENDROOT
BRANCH   1   5
ATOM      5  C   UNL     1       2.442   5.338  18.530  0.00  0.00    +0.000 C 
BRANCH   5   6
ATOM      6  C   UNL     1       3.911   4.851  18.366  0.00  0.00    +0.000 C 
ATOM      7  O   UNL     1       4.576   4.416  19.301  0.00  0.00    +0.000 OA
ATOM      8  N   UNL     1       4.425   5.025  17.104  0.00  0.00    +0.000 N 
ATOM      9  H   UNL     1       3.760   5.196  16.357  0.00  0.00    +0.000 HD
BRANCH   8  10
ATOM     10  C   UNL     1       5.811   4.810  16.684  0.00  0.00    +0.000 C 
ATOM     11  C   UNL     1       6.011   3.642  15.747  0.00  0.00    +0.000 C 
ATOM     12  C   UNL     1       6.191   4.297  14.426  0.00  0.00    +0.000 C 
ATOM     13  O   UNL     1       6.171   3.721  13.346  0.00  0.00    +0.000 OA
ATOM     14  O   UNL     1       6.537   5.608  14.564  0.00  0.00    +0.000 OA
ATOM     15  C   UNL     1       6.484   5.958  15.937  0.00  0.00    +0.000 C 
BRANCH  15  16
ATOM     16  O   UNL     1       7.812   6.104  16.422  0.00  0.00    +0.000 OA
ATOM     17  H   UNL     1       7.727   6.649  17.224  0.00  0.00    +0.000 HD
ENDBRANCH  15  16
ENDBRANCH   8  10
ENDBRANCH   5   6
BRANCH   5  18
ATOM     18  C   UNL     1       1.451   4.374  17.827  0.00  0.00    +0.000 C 
BRANCH  18  20
ATOM     19  C   UNL     1       1.914   1.960  18.490  0.00  0.00    +0.000 C 
ATOM     20  C   UNL     1       0.992   3.166  18.682  0.00  0.00    +0.000 C 
ATOM     21  C   UNL     1       0.905   3.507  20.174  0.00  0.00    +0.000 C 
ENDBRANCH  18  20
ENDBRANCH   5  18
ENDBRANCH   1   5
BRANCH   2  22
ATOM     22  C   UNL     1       2.000   9.128  18.079  0.00  0.00    +0.000 C 
BRANCH  22  23
ATOM     23  O   UNL     1       0.670   9.319  17.604  0.00  0.00    +0.000 OA
BRANCH  23  24
ATOM     24  C   UNL     1      -0.142  10.092  18.397  0.00  0.00    +0.000 A 
ATOM     25  C   UNL     1       0.475  10.748  19.458  0.00  0.00    +0.000 A 
ATOM     26  C   UNL     1      -0.253  11.614  20.291  0.00  0.00    +0.000 A 
ATOM     27  C   UNL     1      -1.619  11.864  20.075  0.00  0.00    +0.000 A 
ATOM     28  C   UNL     1      -2.227  11.178  19.015  0.00  0.00    +0.000 A 
ATOM     29  C   UNL     1      -1.501  10.302  18.187  0.00  0.00    +0.000 A 
BRANCH  27  30
ATOM     30  C   UNL     1      -2.430  12.869  20.918  0.00  0.00    +0.000 C 
ATOM     31  C   UNL     1      -3.871  13.098  20.386  0.00  0.00    +0.000 C 
ATOM     32  C   UNL     1      -4.650  14.097  21.259  0.00  0.00    +0.000 C 
ATOM     33  C   UNL     1      -4.740  13.550  22.689  0.00  0.00    +0.000 C 
ATOM     34  C   UNL     1      -3.330  13.357  23.263  0.00  0.00    +0.000 C 
ATOM     35  C   UNL     1      -2.596  14.707  23.266  0.00  0.00    +0.000 C 
ATOM     36  C   UNL     1      -2.493  15.255  21.832  0.00  0.00    +0.000 C 
ATOM     37  C   UNL     1      -3.907  15.441  21.261  0.00  0.00    +0.000 C 
ATOM     38  C   UNL     1      -1.715  14.254  20.957  0.00  0.00    +0.000 C 
ATOM     39  C   UNL     1      -2.553  12.356  22.388  0.00  0.00    +0.000 C 
ENDBRANCH  27  30
ENDBRANCH  23  24
ENDBRANCH  22  23
ENDBRANCH   2  22
TORSDOF 10
ENDMDL
