MODEL 1
REMARK VINA RESULT:      -6.6      0.000      0.000
REMARK  Name = 
REMARK  11 active torsions:
REMARK  status: ('A' for Active; 'I' for Inactive)
REMARK    1  A    between atoms: C_1  and  C_2
REMARK    2  A    between atoms: C_2  and  C_13
REMARK    3  A    between atoms: N_3  and  O_4
REMARK    4  A    between atoms: O_4  and  C_5
REMARK    5  A    between atoms: C_5  and  C_6
REMARK    6  A    between atoms: C_6  and  O_7
REMARK    7  A    between atoms: C_6  and  C_8
REMARK    8  A    between atoms: C_8  and  N_9
REMARK    9  A    between atoms: N_9  and  C_10
REMARK   10  A    between atoms: C_10  and  C_11
REMARK   11  A    between atoms: C_10  and  C_12
REMARK                            x       y       z     vdW  Elec       q    Type
REMARK                         _______ _______ _______ _____ _____    ______ ____
ROOT
ATOM      1  O   UNL     1       5.077   6.144  16.339  0.00  0.00    +0.000 OA
ENDROOT
BRANCH   1   4
ATOM      2  C   UNL     1       3.161   7.192  17.860  0.00  0.00    +0.000 C 
ATOM      3  C   UNL     1       3.426   5.697  17.779  0.00  0.00    +0.000 C 
ATOM      4  N   UNL     1       4.358   5.170  17.038  0.00  0.00    +0.000 NA
BRANCH   3   5
ATOM      5  C   UNL     1       2.555   4.790  18.601  0.00  0.00    +0.000 A 
ATOM      6  C   UNL     1       1.716   3.839  18.003  0.00  0.00    +0.000 A 
ATOM      7  C   UNL     1       0.903   3.019  18.789  0.00  0.00    +0.000 A 
ATOM      8  C   UNL     1       0.924   3.137  20.177  0.00  0.00    +0.000 A 
ATOM      9  C   UNL     1       1.762   4.071  20.782  0.00  0.00    +0.000 A 
ATOM     10  C   UNL     1       2.574   4.894  19.999  0.00  0.00    +0.000 A 
ENDBRANCH   3   5
ENDBRANCH   1   4
BRANCH   1  11
ATOM     11  C   UNL     1       6.472   5.989  16.614  0.00  0.00    +0.000 C 
BRANCH  11  12
ATOM     12  C   UNL     1       6.992   4.809  15.783  0.00  0.00    +0.000 C 
BRANCH  12  13
ATOM     13  O   UNL     1       6.418   3.587  16.274  0.00  0.00    +0.000 OA
ATOM     14  H   UNL     1       6.778   2.874  15.713  0.00  0.00    +0.000 HD
ENDBRANCH  12  13
BRANCH  12  15
ATOM     15  C   UNL     1       6.655   4.944  14.282  0.00  0.00    +0.000 C 
BRANCH  15  16
ATOM     16  N   UNL     1       5.610   4.004  13.873  0.00  0.00    +0.000 NA
ATOM     17  H   UNL     1       4.726   4.506  13.786  0.00  0.00    +0.000 HD
BRANCH  16  18
ATOM     18  C   UNL     1       5.889   3.303  12.615  0.00  0.00    +0.000 C 
ATOM     19  C   UNL     1       4.697   3.300  11.655  0.00  0.00    +0.000 C 
ATOM     20  C   UNL     1       7.075   4.009  11.950  0.00  0.00    +0.000 C 
ENDBRANCH  16  18
ENDBRANCH  15  16
ENDBRANCH  12  15
ENDBRANCH  11  12
ENDBRANCH   1  11
TORSDOF 8
ENDMDL
MODEL 2
REMARK VINA RESULT:      -6.5      1.682      3.621
REMARK  Name = 
REMARK  11 active torsions:
REMARK  status: ('A' for Active; 'I' for Inactive)
REMARK    1  A    between atoms: C_1  and  C_2
REMARK    2  A    between atoms: C_2  and  C_13
REMARK    3  A    between atoms: N_3  and  O_4
REMARK    4  A    between atoms: O_4  and  C_5
REMARK    5  A    between atoms: C_5  and  C_6
REMARK    6  A    between atoms: C_6  and  O_7
REMARK    7  A    between atoms: C_6  and  C_8
REMARK    8  A    between atoms: C_8  and  N_9
REMARK    9  A    between atoms: N_9  and  C_10
REMARK   10  A    between atoms: C_10  and  C_11
REMARK   11  A    between atoms: C_10  and  C_12
REMARK                            x       y       z     vdW  Elec       q    Type
REMARK                         _______ _______ _______ _____ _____    ______ ____
ROOT
ATOM      1  O   UNL     1       4.827   5.128  15.839  0.00  0.00    +0.000 OA
ENDROOT
BRANCH   1   4
ATOM      2  C   UNL     1       3.635   6.681  17.642  0.00  0.00    +0.000 C 
ATOM      3  C   UNL     1       3.507   5.166  17.643  0.00  0.00    +0.000 C 
ATOM      4  N   UNL     1       4.082   4.394  16.767  0.00  0.00    +0.000 NA
BRANCH   3   5
ATOM      5  C   UNL     1       2.664   4.541  18.718  0.00  0.00    +0.000 A 
ATOM      6  C   UNL     1       2.705   5.000  20.042  0.00  0.00    +0.000 A 
ATOM      7  C   UNL     1       1.923   4.391  21.027  0.00  0.00    +0.000 A 
ATOM      8  C   UNL     1       1.090   3.324  20.698  0.00  0.00    +0.000 A 
ATOM      9  C   UNL     1       1.034   2.866  19.383  0.00  0.00    +0.000 A 
ATOM     10  C   UNL     1       1.816   3.471  18.397  0.00  0.00    +0.000 A 
ENDBRANCH   3   5
ENDBRANCH   1   4
BRANCH   1  11
ATOM     11  C   UNL     1       5.486   4.227  14.945  0.00  0.00    +0.000 C 
BRANCH  11  12
ATOM     12  C   UNL     1       6.979   4.582  14.927  0.00  0.00    +0.000 C 
BRANCH  12  13
ATOM     13  O   UNL     1       7.286   5.300  13.721  0.00  0.00    +0.000 OA
ATOM     14  H   UNL     1       6.783   6.135  13.767  0.00  0.00    +0.000 HD
ENDBRANCH  12  13
BRANCH  12  15
ATOM     15  C   UNL     1       7.400   5.444  16.136  0.00  0.00    +0.000 C 
BRANCH  15  16
ATOM     16  N   UNL     1       7.288   4.706  17.395  0.00  0.00    +0.000 NA
ATOM     17  H   UNL     1       7.883   3.878  17.351  0.00  0.00    +0.000 HD
BRANCH  16  18
ATOM     18  C   UNL     1       7.643   5.488  18.585  0.00  0.00    +0.000 C 
ATOM     19  C   UNL     1       7.903   6.964  18.274  0.00  0.00    +0.000 C 
ATOM     20  C   UNL     1       6.479   5.375  19.573  0.00  0.00    +0.000 C 
ENDBRANCH  16  18
ENDBRANCH  15  16
ENDBRANCH  12  15
ENDBRANCH  11  12
ENDBRANCH   1  11
TORSDOF 8
ENDMDL
MODEL 3
REMARK VINA RESULT:      -6.4      2.049      3.616
REMARK  Name = 
REMARK  11 active torsions:
REMARK  status: ('A' for Active; 'I' for Inactive)
REMARK    1  A    between atoms: C_1  and  C_2
REMARK    2  A    between atoms: C_2  and  C_13
REMARK    3  A    between atoms: N_3  and  O_4
REMARK    4  A    between atoms: O_4  and  C_5
REMARK    5  A    between atoms: C_5  and  C_6
REMARK    6  A    between atoms: C_6  and  O_7
REMARK    7  A    between atoms: C_6  and  C_8
REMARK    8  A    between atoms: C_8  and  N_9
REMARK    9  A    between atoms: N_9  and  C_10
REMARK   10  A    between atoms: C_10  and  C_11
REMARK   11  A    between atoms: C_10  and  C_12
REMARK                            x       y       z     vdW  Elec       q    Type
REMARK                         _______ _______ _______ _____ _____    ______ ____
ROOT
ATOM      1  O   UNL     1       4.714   6.396  16.439  0.00  0.00    +0.000 OA
ENDROOT
BRANCH   1   4
ATOM      2  C   UNL     1       2.732   7.312  17.961  0.00  0.00    +0.000 C 
ATOM      3  C   UNL     1       3.166   5.854  17.958  0.00  0.00    +0.000 C 
ATOM      4  N   UNL     1       4.131   5.391  17.218  0.00  0.00    +0.000 NA
BRANCH   3   5
ATOM      5  C   UNL     1       2.427   4.908  18.860  0.00  0.00    +0.000 A 
ATOM      6  C   UNL     1       2.513   5.008  20.256  0.00  0.00    +0.000 A 
ATOM      7  C   UNL     1       1.828   4.105  21.074  0.00  0.00    +0.000 A 
ATOM      8  C   UNL     1       1.049   3.099  20.507  0.00  0.00    +0.000 A 
ATOM      9  C   UNL     1       0.949   2.997  19.121  0.00  0.00    +0.000 A 
ATOM     10  C   UNL     1       1.633   3.896  18.301  0.00  0.00    +0.000 A 
ENDBRANCH   3   5
ENDBRANCH   1   4
BRANCH   1  11
ATOM     11  C   UNL     1       5.488   5.796  15.397  0.00  0.00    +0.000 C 
BRANCH  11  12
ATOM     12  C   UNL     1       6.027   4.456  15.915  0.00  0.00    +0.000 C 
BRANCH  12  13
ATOM     13  O   UNL     1       6.170   3.540  14.817  0.00  0.00    +0.000 OA
ATOM     14  H   UNL     1       6.819   3.944  14.210  0.00  0.00    +0.000 HD
ENDBRANCH  12  13
BRANCH  12  15
ATOM     15  C   UNL     1       7.394   4.598  16.620  0.00  0.00    +0.000 C 
BRANCH  15  16
ATOM     16  N   UNL     1       7.286   4.372  18.062  0.00  0.00    +0.000 NA
ATOM     17  H   UNL     1       8.063   3.784  18.367  0.00  0.00    +0.000 HD
BRANCH  16  18
ATOM     18  C   UNL     1       7.273   5.600  18.864  0.00  0.00    +0.000 C 
ATOM     19  C   UNL     1       8.202   5.531  20.079  0.00  0.00    +0.000 C 
ATOM     20  C   UNL     1       7.714   6.748  17.952  0.00  0.00    +0.000 C 
ENDBRANCH  16  18
ENDBRANCH  15  16
ENDBRANCH  12  15
ENDBRANCH  11  12
ENDBRANCH   1  11
TORSDOF 8
ENDMDL
MODEL 4
REMARK VINA RESULT:      -6.3      1.961      3.225
REMARK  Name = 
REMARK  11 active torsions:
REMARK  status: ('A' for Active; 'I' for Inactive)
REMARK    1  A    between atoms: C_1  and  C_2
REMARK    2  A    between atoms: C_2  and  C_13
REMARK    3  A    between atoms: N_3  and  O_4
REMARK    4  A    between atoms: O_4  and  C_5
REMARK    5  A    between atoms: C_5  and  C_6
REMARK    6  A    between atoms: C_6  and  O_7
REMARK    7  A    between atoms: C_6  and  C_8
REMARK    8  A    between atoms: C_8  and  N_9
REMARK    9  A    between atoms: N_9  and  C_10
REMARK   10  A    between atoms: C_10  and  C_11
REMARK   11  A    between atoms: C_10  and  C_12
REMARK                            x       y       z     vdW  Elec       q    Type
REMARK                         _______ _______ _______ _____ _____    ______ ____
ROOT
ATOM      1  O   UNL     1       4.757   6.543  16.685  0.00  0.00    +0.000 OA
ENDROOT
BRANCH   1   4
ATOM      2  C   UNL     1       2.633   7.280  18.108  0.00  0.00    +0.000 C 
ATOM      3  C   UNL     1       3.119   5.841  18.035  0.00  0.00    +0.000 C 
ATOM      4  N   UNL     1       4.155   5.465  17.341  0.00  0.00    +0.000 NA
BRANCH   3   5
ATOM      5  C   UNL     1       2.350   4.807  18.806  0.00  0.00    +0.000 A 
ATOM      6  C   UNL     1       1.540   3.862  18.160  0.00  0.00    +0.000 A 
ATOM      7  C   UNL     1       0.821   2.921  18.902  0.00  0.00    +0.000 A 
ATOM      8  C   UNL     1       0.909   2.911  20.292  0.00  0.00    +0.000 A 
ATOM      9  C   UNL     1       1.719   3.838  20.944  0.00  0.00    +0.000 A 
ATOM     10  C   UNL     1       2.436   4.782  20.205  0.00  0.00    +0.000 A 
ENDBRANCH   3   5
ENDBRANCH   1   4
BRANCH   1  11
ATOM     11  C   UNL     1       5.145   6.138  15.370  0.00  0.00    +0.000 C 
BRANCH  11  12
ATOM     12  C   UNL     1       5.666   4.697  15.449  0.00  0.00    +0.000 C 
BRANCH  12  13
ATOM     13  O   UNL     1       5.672   4.116  14.135  0.00  0.00    +0.000 OA
ATOM     14  H   UNL     1       5.729   3.151  14.266  0.00  0.00    +0.000 HD
ENDBRANCH  12  13
BRANCH  12  15
ATOM     15  C   UNL     1       7.093   4.612  16.033  0.00  0.00    +0.000 C 
BRANCH  15  16
ATOM     16  N   UNL     1       7.077   4.309  17.465  0.00  0.00    +0.000 NA
ATOM     17  H   UNL     1       7.569   3.429  17.625  0.00  0.00    +0.000 HD
BRANCH  16  18
ATOM     18  C   UNL     1       7.676   5.351  18.307  0.00  0.00    +0.000 C 
ATOM     19  C   UNL     1       7.730   6.717  17.619  0.00  0.00    +0.000 C 
ATOM     20  C   UNL     1       6.828   5.456  19.578  0.00  0.00    +0.000 C 
ENDBRANCH  16  18
ENDBRANCH  15  16
ENDBRANCH  12  15
ENDBRANCH  11  12
ENDBRANCH   1  11
TORSDOF 8
ENDMDL
MODEL 5
REMARK VINA RESULT:      -6.3      2.074      3.424
REMARK  Name = 
REMARK  11 active torsions:
REMARK  status: ('A' for Active; 'I' for Inactive)
REMARK    1  A    between atoms: C_1  and  C_2
REMARK    2  A    between atoms: C_2  and  C_13
REMARK    3  A    between atoms: N_3  and  O_4
REMARK    4  A    between atoms: O_4  and  C_5
REMARK    5  A    between atoms: C_5  and  C_6
REMARK    6  A    between atoms: C_6  and  O_7
REMARK    7  A    between atoms: C_6  and  C_8
REMARK    8  A    between atoms: C_8  and  N_9
REMARK    9  A    between atoms: N_9  and  C_10
REMARK   10  A    between atoms: C_10  and  C_11
REMARK   11  A    between atoms: C_10  and  C_12
REMARK                            x       y       z     vdW  Elec       q    Type
REMARK                         _______ _______ _______ _____ _____    ______ ____
ROOT
ATOM      1  O   UNL     1       4.631   6.087  16.353  0.00  0.00    +0.000 OA
ENDROOT
BRANCH   1   4
ATOM      2  C   UNL     1       2.813   6.938  18.100  0.00  0.00    +0.000 C 
ATOM      3  C   UNL     1       3.377   5.525  18.116  0.00  0.00    +0.000 C 
ATOM      4  N   UNL     1       4.264   5.095  17.266  0.00  0.00    +0.000 NA
BRANCH   3   5
ATOM      5  C   UNL     1       2.869   4.586  19.173  0.00  0.00    +0.000 A 
ATOM      6  C   UNL     1       1.590   4.730  19.728  0.00  0.00    +0.000 A 
ATOM      7  C   UNL     1       1.147   3.852  20.721  0.00  0.00    +0.000 A 
ATOM      8  C   UNL     1       1.975   2.823  21.165  0.00  0.00    +0.000 A 
ATOM      9  C   UNL     1       3.244   2.665  20.613  0.00  0.00    +0.000 A 
ATOM     10  C   UNL     1       3.690   3.542  19.622  0.00  0.00    +0.000 A 
ENDBRANCH   3   5
ENDBRANCH   1   4
BRANCH   1  11
ATOM     11  C   UNL     1       5.244   5.477  15.214  0.00  0.00    +0.000 C 
BRANCH  11  12
ATOM     12  C   UNL     1       6.076   4.284  15.703  0.00  0.00    +0.000 C 
BRANCH  12  13
ATOM     13  O   UNL     1       6.489   3.493  14.577  0.00  0.00    +0.000 OA
ATOM     14  H   UNL     1       7.281   3.001  14.867  0.00  0.00    +0.000 HD
ENDBRANCH  12  13
BRANCH  12  15
ATOM     15  C   UNL     1       7.332   4.717  16.490  0.00  0.00    +0.000 C 
BRANCH  15  16
ATOM     16  N   UNL     1       7.494   6.171  16.496  0.00  0.00    +0.000 NA
ATOM     17  H   UNL     1       6.836   6.583  15.833  0.00  0.00    +0.000 HD
BRANCH  16  18
ATOM     18  C   UNL     1       7.300   6.792  17.811  0.00  0.00    +0.000 C 
ATOM     19  C   UNL     1       7.898   5.969  18.955  0.00  0.00    +0.000 C 
ATOM     20  C   UNL     1       7.971   8.169  17.772  0.00  0.00    +0.000 C 
ENDBRANCH  16  18
ENDBRANCH  15  16
ENDBRANCH  12  15
ENDBRANCH  11  12
ENDBRANCH   1  11
TORSDOF 8
ENDMDL
MODEL 6
REMARK VINA RESULT:      -6.2      1.537      2.080
REMARK  Name = 
REMARK  11 active torsions:
REMARK  status: ('A' for Active; 'I' for Inactive)
REMARK    1  A    between atoms: C_1  and  C_2
REMARK    2  A    between atoms: C_2  and  C_13
REMARK    3  A    between atoms: N_3  and  O_4
REMARK    4  A    between atoms: O_4  and  C_5
REMARK    5  A    between atoms: C_5  and  C_6
REMARK    6  A    between atoms: C_6  and  O_7
REMARK    7  A    between atoms: C_6  and  C_8
REMARK    8  A    between atoms: C_8  and  N_9
REMARK    9  A    between atoms: N_9  and  C_10
REMARK   10  A    between atoms: C_10  and  C_11
REMARK   11  A    between atoms: C_10  and  C_12
REMARK                            x       y       z     vdW  Elec       q    Type
REMARK                         _______ _______ _______ _____ _____    ______ ____
ROOT
ATOM      1  O   UNL     1       5.639   6.672  17.054  0.00  0.00    +0.000 OA
ENDROOT
BRANCH   1   4
ATOM      2  C   UNL     1       3.206   7.574  17.643  0.00  0.00    +0.000 C 
ATOM      3  C   UNL     1       3.670   6.165  17.982  0.00  0.00    +0.000 C 
ATOM      4  N   UNL     1       4.855   5.710  17.698  0.00  0.00    +0.000 NA
BRANCH   3   5
ATOM      5  C   UNL     1       2.693   5.260  18.678  0.00  0.00    +0.000 A 
ATOM      6  C   UNL     1       2.418   5.393  20.046  0.00  0.00    +0.000 A 
ATOM      7  C   UNL     1       1.517   4.528  20.674  0.00  0.00    +0.000 A 
ATOM      8  C   UNL     1       0.881   3.529  19.941  0.00  0.00    +0.000 A 
ATOM      9  C   UNL     1       1.139   3.395  18.578  0.00  0.00    +0.000 A 
ATOM     10  C   UNL     1       2.040   4.256  17.949  0.00  0.00    +0.000 A 
ENDBRANCH   3   5
ENDBRANCH   1   4
BRANCH   1  11
ATOM     11  C   UNL     1       6.832   6.893  17.812  0.00  0.00    +0.000 C 
BRANCH  11  12
ATOM     12  C   UNL     1       7.536   5.542  17.996  0.00  0.00    +0.000 C 
BRANCH  12  13
ATOM     13  O   UNL     1       7.074   4.921  19.206  0.00  0.00    +0.000 OA
ATOM     14  H   UNL     1       7.774   5.068  19.870  0.00  0.00    +0.000 HD
ENDBRANCH  12  13
BRANCH  12  15
ATOM     15  C   UNL     1       7.285   4.575  16.818  0.00  0.00    +0.000 C 
BRANCH  15  16
ATOM     16  N   UNL     1       7.484   5.232  15.525  0.00  0.00    +0.000 NA
ATOM     17  H   UNL     1       8.480   5.413  15.392  0.00  0.00    +0.000 HD
BRANCH  16  18
ATOM     18  C   UNL     1       6.981   4.467  14.378  0.00  0.00    +0.000 C 
ATOM     19  C   UNL     1       5.452   4.437  14.304  0.00  0.00    +0.000 C 
ATOM     20  C   UNL     1       7.538   5.120  13.110  0.00  0.00    +0.000 C 
ENDBRANCH  16  18
ENDBRANCH  15  16
ENDBRANCH  12  15
ENDBRANCH  11  12
ENDBRANCH   1  11
TORSDOF 8
ENDMDL
MODEL 7
REMARK VINA RESULT:      -6.2      2.610      4.252
REMARK  Name = 
REMARK  11 active torsions:
REMARK  status: ('A' for Active; 'I' for Inactive)
REMARK    1  A    between atoms: C_1  and  C_2
REMARK    2  A    between atoms: C_2  and  C_13
REMARK    3  A    between atoms: N_3  and  O_4
REMARK    4  A    between atoms: O_4  and  C_5
REMARK    5  A    between atoms: C_5  and  C_6
REMARK    6  A    between atoms: C_6  and  O_7
REMARK    7  A    between atoms: C_6  and  C_8
REMARK    8  A    between atoms: C_8  and  N_9
REMARK    9  A    between atoms: N_9  and  C_10
REMARK   10  A    between atoms: C_10  and  C_11
REMARK   11  A    between atoms: C_10  and  C_12
REMARK                            x       y       z     vdW  Elec       q    Type
REMARK                         _______ _______ _______ _____ _____    ______ ____
ROOT
ATOM      1  O   UNL     1       4.261   4.572  19.818  0.00  0.00    +0.000 OA
ENDROOT
BRANCH   1   4
ATOM      2  C   UNL     1       1.769   5.210  20.499  0.00  0.00    +0.000 C 
ATOM      3  C   UNL     1       2.695   6.165  19.762  0.00  0.00    +0.000 C 
ATOM      4  N   UNL     1       3.916   5.869  19.424  0.00  0.00    +0.000 NA
BRANCH   3   5
ATOM      5  C   UNL     1       2.157   7.524  19.414  0.00  0.00    +0.000 A 
ATOM      6  C   UNL     1       1.514   8.325  20.369  0.00  0.00    +0.000 A 
ATOM      7  C   UNL     1       1.009   9.579  20.017  0.00  0.00    +0.000 A 
ATOM      8  C   UNL     1       1.144  10.046  18.712  0.00  0.00    +0.000 A 
ATOM      9  C   UNL     1       1.789   9.263  17.757  0.00  0.00    +0.000 A 
ATOM     10  C   UNL     1       2.294   8.009  18.106  0.00  0.00    +0.000 A 
ENDBRANCH   3   5
ENDBRANCH   1   4
BRANCH   1  11
ATOM     11  C   UNL     1       5.213   4.036  18.894  0.00  0.00    +0.000 C 
BRANCH  11  12
ATOM     12  C   UNL     1       6.320   5.079  18.693  0.00  0.00    +0.000 C 
BRANCH  12  13
ATOM     13  O   UNL     1       7.045   5.252  19.922  0.00  0.00    +0.000 OA
ATOM     14  H   UNL     1       7.028   4.385  20.371  0.00  0.00    +0.000 HD
ENDBRANCH  12  13
BRANCH  12  15
ATOM     15  C   UNL     1       7.318   4.682  17.583  0.00  0.00    +0.000 C 
BRANCH  15  16
ATOM     16  N   UNL     1       7.377   5.688  16.521  0.00  0.00    +0.000 NA
ATOM     17  H   UNL     1       8.348   5.809  16.230  0.00  0.00    +0.000 HD
BRANCH  16  18
ATOM     18  C   UNL     1       6.562   5.368  15.344  0.00  0.00    +0.000 C 
ATOM     19  C   UNL     1       6.255   3.873  15.217  0.00  0.00    +0.000 C 
ATOM     20  C   UNL     1       5.249   6.147  15.469  0.00  0.00    +0.000 C 
ENDBRANCH  16  18
ENDBRANCH  15  16
ENDBRANCH  12  15
ENDBRANCH  11  12
ENDBRANCH   1  11
TORSDOF 8
ENDMDL
MODEL 8
REMARK VINA RESULT:      -6.2      1.864      7.257
REMARK  Name = 
REMARK  11 active torsions:
REMARK  status: ('A' for Active; 'I' for Inactive)
REMARK    1  A    between atoms: C_1  and  C_2
REMARK    2  A    between atoms: C_2  and  C_13
REMARK    3  A    between atoms: N_3  and  O_4
REMARK    4  A    between atoms: O_4  and  C_5
REMARK    5  A    between atoms: C_5  and  C_6
REMARK    6  A    between atoms: C_6  and  O_7
REMARK    7  A    between atoms: C_6  and  C_8
REMARK    8  A    between atoms: C_8  and  N_9
REMARK    9  A    between atoms: N_9  and  C_10
REMARK   10  A    between atoms: C_10  and  C_11
REMARK   11  A    between atoms: C_10  and  C_12
REMARK                            x       y       z     vdW  Elec       q    Type
REMARK                         _______ _______ _______ _____ _____    ______ ____
ROOT
ATOM      1  O   UNL     1       4.641   3.691  17.489  0.00  0.00    +0.000 OA
ENDROOT
BRANCH   1   4
ATOM      2  C   UNL     1       6.605   5.350  16.800  0.00  0.00    +0.000 C 
ATOM      3  C   UNL     1       5.945   4.396  15.816  0.00  0.00    +0.000 C 
ATOM      4  N   UNL     1       4.986   3.577  16.139  0.00  0.00    +0.000 NA
BRANCH   3   5
ATOM      5  C   UNL     1       6.442   4.407  14.398  0.00  0.00    +0.000 A 
ATOM      6  C   UNL     1       7.494   5.243  13.996  0.00  0.00    +0.000 A 
ATOM      7  C   UNL     1       7.927   5.246  12.668  0.00  0.00    +0.000 A 
ATOM      8  C   UNL     1       7.319   4.412  11.732  0.00  0.00    +0.000 A 
ATOM      9  C   UNL     1       6.280   3.570  12.123  0.00  0.00    +0.000 A 
ATOM     10  C   UNL     1       5.843   3.567  13.449  0.00  0.00    +0.000 A 
ENDBRANCH   3   5
ENDBRANCH   1   4
BRANCH   1  11
ATOM     11  C   UNL     1       3.219   3.621  17.620  0.00  0.00    +0.000 C 
BRANCH  11  12
ATOM     12  C   UNL     1       2.837   2.159  17.885  0.00  0.00    +0.000 C 
BRANCH  12  13
ATOM     13  O   UNL     1       4.029   1.375  18.052  0.00  0.00    +0.000 OA
ATOM     14  H   UNL     1       4.639   1.919  18.584  0.00  0.00    +0.000 HD
ENDBRANCH  12  13
BRANCH  12  15
ATOM     15  C   UNL     1       1.956   1.992  19.142  0.00  0.00    +0.000 C 
BRANCH  15  16
ATOM     16  N   UNL     1       1.042   3.122  19.319  0.00  0.00    +0.000 NA
ATOM     17  H   UNL     1       0.094   2.823  19.089  0.00  0.00    +0.000 HD
BRANCH  16  18
ATOM     18  C   UNL     1       1.049   3.695  20.670  0.00  0.00    +0.000 C 
ATOM     19  C   UNL     1       1.787   2.821  21.687  0.00  0.00    +0.000 C 
ATOM     20  C   UNL     1       1.734   5.062  20.584  0.00  0.00    +0.000 C 
ENDBRANCH  16  18
ENDBRANCH  15  16
ENDBRANCH  12  15
ENDBRANCH  11  12
ENDBRANCH   1  11
TORSDOF 8
ENDMDL
MODEL 9
REMARK VINA RESULT:      -6.2      1.169      1.223
REMARK  Name = 
REMARK  11 active torsions:
REMARK  status: ('A' for Active; 'I' for Inactive)
REMARK    1  A    between atoms: C_1  and  C_2
REMARK    2  A    between atoms: C_2  and  C_13
REMARK    3  A    between atoms: N_3  and  O_4
REMARK    4  A    between atoms: O_4  and  C_5
REMARK    5  A    between atoms: C_5  and  C_6
REMARK    6  A    between atoms: C_6  and  O_7
REMARK    7  A    between atoms: C_6  and  C_8
REMARK    8  A    between atoms: C_8  and  N_9
REMARK    9  A    between atoms: N_9  and  C_10
REMARK   10  A    between atoms: C_10  and  C_11
REMARK   11  A    between atoms: C_10  and  C_12
REMARK                            x       y       z     vdW  Elec       q    Type
REMARK                         _______ _______ _______ _____ _____    ______ ____
ROOT
ATOM      1  O   UNL     1       6.163   5.250  17.410  0.00  0.00    +0.000 OA
ENDROOT
BRANCH   1   4
ATOM      2  C   UNL     1       3.836   6.526  17.609  0.00  0.00    +0.000 C 
ATOM      3  C   UNL     1       4.055   5.119  18.143  0.00  0.00    +0.000 C 
ATOM      4  N   UNL     1       5.186   4.482  18.050  0.00  0.00    +0.000 NA
BRANCH   3   5
ATOM      5  C   UNL     1       2.892   4.439  18.806  0.00  0.00    +0.000 A 
ATOM      6  C   UNL     1       2.068   3.545  18.107  0.00  0.00    +0.000 A 
ATOM      7  C   UNL     1       0.983   2.938  18.743  0.00  0.00    +0.000 A 
ATOM      8  C   UNL     1       0.713   3.213  20.081  0.00  0.00    +0.000 A 
ATOM      9  C   UNL     1       1.531   4.091  20.789  0.00  0.00    +0.000 A 
ATOM     10  C   UNL     1       2.615   4.701  20.155  0.00  0.00    +0.000 A 
ENDBRANCH   3   5
ENDBRANCH   1   4
BRANCH   1  11
ATOM     11  C   UNL     1       6.778   4.469  16.381  0.00  0.00    +0.000 C 
BRANCH  11  12
ATOM     12  C   UNL     1       6.476   5.137  15.033  0.00  0.00    +0.000 C 
BRANCH  12  13
ATOM     13  O   UNL     1       7.710   5.461  14.372  0.00  0.00    +0.000 OA
ATOM     14  H   UNL     1       7.921   6.379  14.627  0.00  0.00    +0.000 HD
ENDBRANCH  12  13
BRANCH  12  15
ATOM     15  C   UNL     1       5.637   4.238  14.098  0.00  0.00    +0.000 C 
BRANCH  15  16
ATOM     16  N   UNL     1       6.463   3.233  13.427  0.00  0.00    +0.000 NA
ATOM     17  H   UNL     1       6.719   2.508  14.098  0.00  0.00    +0.000 HD
BRANCH  16  18
ATOM     18  C   UNL     1       5.822   2.605  12.266  0.00  0.00    +0.000 C 
ATOM     19  C   UNL     1       4.681   3.445  11.686  0.00  0.00    +0.000 C 
ATOM     20  C   UNL     1       6.900   2.407  11.197  0.00  0.00    +0.000 C 
ENDBRANCH  16  18
ENDBRANCH  15  16
ENDBRANCH  12  15
ENDBRANCH  11  12
ENDBRANCH   1  11
TORSDOF 8
ENDMDL
