MODEL 1
REMARK VINA RESULT:      -6.4      0.000      0.000
REMARK  Name = 
REMARK  7 active torsions:
REMARK  status: ('A' for Active; 'I' for Inactive)
REMARK    1  A    between atoms: C_1  and  C_2
REMARK    2  A    between atoms: C_2  and  O_3
REMARK    3  A    between atoms: O_3  and  C_4
REMARK    4  A    between atoms: C_4  and  C_6
REMARK    5  A    between atoms: C_7  and  N_8
REMARK    6  A    between atoms: C_11  and  O_12
REMARK    7  A    between atoms: O_12  and  C_13
REMARK                            x       y       z     vdW  Elec       q    Type
REMARK                         _______ _______ _______ _____ _____    ______ ____
ROOT
ATOM      1  C   UNL     1       5.596   4.869  16.588  0.00  0.00    +0.000 A 
ATOM      2  C   UNL     1       5.578   6.214  16.907  0.00  0.00    +0.000 A 
ATOM      3  S   UNL     1       4.260   6.625  17.890  0.00  0.00    +0.000 S 
ATOM      4  C   UNL     1       3.645   5.006  17.922  0.00  0.00    +0.000 A 
ATOM      5  C   UNL     1       2.463   4.575  18.606  0.00  0.00    +0.000 A 
ATOM      6  C   UNL     1       2.144   3.206  18.501  0.00  0.00    +0.000 A 
ATOM      7 BR   UNL     1       0.636   2.340  19.279  0.00  0.00    +0.000 Br
ATOM      8  C   UNL     1       2.956   2.340  17.764  0.00  0.00    +0.000 A 
ATOM      9  C   UNL     1       4.103   2.795  17.113  0.00  0.00    +0.000 A 
ATOM     10  C   UNL     1       4.471   4.159  17.176  0.00  0.00    +0.000 A 
ENDROOT
BRANCH   2  11
ATOM     11  N   UNL     1       6.444   7.172  16.506  0.00  0.00    +0.000 N 
ATOM     12  H   UNL     1       7.413   6.913  16.308  0.00  0.00    +0.000 HD
ATOM     13  H   UNL     1       6.329   8.123  16.841  0.00  0.00    +0.000 HD
ENDBRANCH   2  11
BRANCH   1  14
ATOM     14  C   UNL     1       6.640   4.324  15.720  0.00  0.00    +0.000 C 
ATOM     15  O   UNL     1       7.834   4.566  15.868  0.00  0.00    +0.000 OA
BRANCH  14  16
ATOM     16  O   UNL     1       6.134   3.627  14.662  0.00  0.00    +0.000 OA
BRANCH  16  18
ATOM     17  C   UNL     1       5.824   3.315  12.305  0.00  0.00    +0.000 C 
ATOM     18  C   UNL     1       6.597   4.066  13.377  0.00  0.00    +0.000 C 
ENDBRANCH  16  18
ENDBRANCH  14  16
ENDBRANCH   1  14
BRANCH   5  19
ATOM     19  O   UNL     1       1.811   5.577  19.256  0.00  0.00    +0.000 OA
ATOM     20  C   UNL     1       1.764   5.687  20.662  0.00  0.00    +0.000 C 
ENDBRANCH   5  19
TORSDOF 5
ENDMDL
MODEL 2
REMARK VINA RESULT:      -6.3      1.385      1.567
REMARK  Name = 
REMARK  7 active torsions:
REMARK  status: ('A' for Active; 'I' for Inactive)
REMARK    1  A    between atoms: C_1  and  C_2
REMARK    2  A    between atoms: C_2  and  O_3
REMARK    3  A    between atoms: O_3  and  C_4
REMARK    4  A    between atoms: C_4  and  C_6
REMARK    5  A    between atoms: C_7  and  N_8
REMARK    6  A    between atoms: C_11  and  O_12
REMARK    7  A    between atoms: O_12  and  C_13
REMARK                            x       y       z     vdW  Elec       q    Type
REMARK                         _______ _______ _______ _____ _____    ______ ____
ROOT
ATOM      1  C   UNL     1       6.003   5.162  17.683  0.00  0.00    +0.000 A 
ATOM      2  C   UNL     1       5.622   6.432  17.291  0.00  0.00    +0.000 A 
ATOM      3  S   UNL     1       4.114   6.876  17.927  0.00  0.00    +0.000 S 
ATOM      4  C   UNL     1       3.901   5.368  18.753  0.00  0.00    +0.000 A 
ATOM      5  C   UNL     1       2.767   5.005  19.548  0.00  0.00    +0.000 A 
ATOM      6  C   UNL     1       2.799   3.724  20.134  0.00  0.00    +0.000 A 
ATOM      7 BR   UNL     1       1.442   2.951  21.224  0.00  0.00    +0.000 Br
ATOM      8  C   UNL     1       3.892   2.876  19.933  0.00  0.00    +0.000 A 
ATOM      9  C   UNL     1       4.982   3.265  19.154  0.00  0.00    +0.000 A 
ATOM     10  C   UNL     1       5.003   4.536  18.534  0.00  0.00    +0.000 A 
ENDROOT
BRANCH   2  11
ATOM     11  N   UNL     1       6.286   7.282  16.476  0.00  0.00    +0.000 N 
ATOM     12  H   UNL     1       5.887   8.204  16.290  0.00  0.00    +0.000 HD
ATOM     13  H   UNL     1       6.845   6.911  15.714  0.00  0.00    +0.000 HD
ENDBRANCH   2  11
BRANCH   1  14
ATOM     14  C   UNL     1       7.261   4.585  17.211  0.00  0.00    +0.000 C 
ATOM     15  O   UNL     1       8.194   4.299  17.956  0.00  0.00    +0.000 OA
BRANCH  14  16
ATOM     16  O   UNL     1       7.332   4.517  15.850  0.00  0.00    +0.000 OA
BRANCH  16  18
ATOM     17  C   UNL     1       6.278   4.051  13.747  0.00  0.00    +0.000 C 
ATOM     18  C   UNL     1       6.307   3.727  15.232  0.00  0.00    +0.000 C 
ENDBRANCH  16  18
ENDBRANCH  14  16
ENDBRANCH   1  14
BRANCH   5  19
ATOM     19  O   UNL     1       1.809   5.970  19.608  0.00  0.00    +0.000 OA
ATOM     20  C   UNL     1       1.622   6.809  20.727  0.00  0.00    +0.000 C 
ENDBRANCH   5  19
TORSDOF 5
ENDMDL
MODEL 3
REMARK VINA RESULT:      -6.1      2.810      3.927
REMARK  Name = 
REMARK  7 active torsions:
REMARK  status: ('A' for Active; 'I' for Inactive)
REMARK    1  A    between atoms: C_1  and  C_2
REMARK    2  A    between atoms: C_2  and  O_3
REMARK    3  A    between atoms: O_3  and  C_4
REMARK    4  A    between atoms: C_4  and  C_6
REMARK    5  A    between atoms: C_7  and  N_8
REMARK    6  A    between atoms: C_11  and  O_12
REMARK    7  A    between atoms: O_12  and  C_13
REMARK                            x       y       z     vdW  Elec       q    Type
REMARK                         _______ _______ _______ _____ _____    ______ ____
ROOT
ATOM      1  C   UNL     1       4.694   5.748  17.103  0.00  0.00    +0.000 A 
ATOM      2  C   UNL     1       4.878   4.426  17.464  0.00  0.00    +0.000 A 
ATOM      3  S   UNL     1       3.943   3.990  18.809  0.00  0.00    +0.000 S 
ATOM      4  C   UNL     1       3.253   5.570  18.973  0.00  0.00    +0.000 A 
ATOM      5  C   UNL     1       2.311   5.971  19.975  0.00  0.00    +0.000 A 
ATOM      6  C   UNL     1       1.877   7.310  19.925  0.00  0.00    +0.000 A 
ATOM      7 BR   UNL     1       0.649   8.140  21.122  0.00  0.00    +0.000 Br
ATOM      8  C   UNL     1       2.355   8.178  18.938  0.00  0.00    +0.000 A 
ATOM      9  C   UNL     1       3.270   7.751  17.976  0.00  0.00    +0.000 A 
ATOM     10  C   UNL     1       3.748   6.421  17.980  0.00  0.00    +0.000 A 
ENDROOT
BRANCH   2  11
ATOM     11  N   UNL     1       5.705   3.520  16.896  0.00  0.00    +0.000 N 
ATOM     12  H   UNL     1       6.299   3.810  16.116  0.00  0.00    +0.000 HD
ATOM     13  H   UNL     1       5.434   2.542  16.870  0.00  0.00    +0.000 HD
ENDBRANCH   2  11
BRANCH   1  14
ATOM     14  C   UNL     1       5.438   6.323  15.983  0.00  0.00    +0.000 C 
ATOM     15  O   UNL     1       5.415   5.858  14.848  0.00  0.00    +0.000 OA
BRANCH  14  16
ATOM     16  O   UNL     1       6.253   7.349  16.364  0.00  0.00    +0.000 OA
BRANCH  16  18
ATOM     17  C   UNL     1       7.956   8.247  17.794  0.00  0.00    +0.000 C 
ATOM     18  C   UNL     1       7.305   6.978  17.266  0.00  0.00    +0.000 C 
ENDBRANCH  16  18
ENDBRANCH  14  16
ENDBRANCH   1  14
BRANCH   5  19
ATOM     19  O   UNL     1       1.983   4.977  20.845  0.00  0.00    +0.000 OA
ATOM     20  C   UNL     1       0.981   4.019  20.585  0.00  0.00    +0.000 C 
ENDBRANCH   5  19
TORSDOF 5
ENDMDL
MODEL 4
REMARK VINA RESULT:      -6.1      2.864      3.507
REMARK  Name = 
REMARK  7 active torsions:
REMARK  status: ('A' for Active; 'I' for Inactive)
REMARK    1  A    between atoms: C_1  and  C_2
REMARK    2  A    between atoms: C_2  and  O_3
REMARK    3  A    between atoms: O_3  and  C_4
REMARK    4  A    between atoms: C_4  and  C_6
REMARK    5  A    between atoms: C_7  and  N_8
REMARK    6  A    between atoms: C_11  and  O_12
REMARK    7  A    between atoms: O_12  and  C_13
REMARK                            x       y       z     vdW  Elec       q    Type
REMARK                         _______ _______ _______ _____ _____    ______ ____
ROOT
ATOM      1  C   UNL     1       5.099   4.632  18.249  0.00  0.00    +0.000 A 
ATOM      2  C   UNL     1       4.656   3.833  19.287  0.00  0.00    +0.000 A 
ATOM      3  S   UNL     1       3.320   4.500  20.088  0.00  0.00    +0.000 S 
ATOM      4  C   UNL     1       3.283   5.906  19.078  0.00  0.00    +0.000 A 
ATOM      5  C   UNL     1       2.353   6.989  19.186  0.00  0.00    +0.000 A 
ATOM      6  C   UNL     1       2.503   8.038  18.257  0.00  0.00    +0.000 A 
ATOM      7 BR   UNL     1       1.438   9.614  18.159  0.00  0.00    +0.000 Br
ATOM      8  C   UNL     1       3.512   7.995  17.291  0.00  0.00    +0.000 A 
ATOM      9  C   UNL     1       4.399   6.921  17.213  0.00  0.00    +0.000 A 
ATOM     10  C   UNL     1       4.303   5.843  18.123  0.00  0.00    +0.000 A 
ENDROOT
BRANCH   2  11
ATOM     11  N   UNL     1       5.179   2.660  19.710  0.00  0.00    +0.000 N 
ATOM     12  H   UNL     1       5.814   2.660  20.512  0.00  0.00    +0.000 HD
ATOM     13  H   UNL     1       5.359   1.921  19.038  0.00  0.00    +0.000 HD
ENDBRANCH   2  11
BRANCH   1  14
ATOM     14  C   UNL     1       6.264   4.242  17.456  0.00  0.00    +0.000 C 
ATOM     15  O   UNL     1       7.420   4.358  17.853  0.00  0.00    +0.000 OA
BRANCH  14  16
ATOM     16  O   UNL     1       5.935   3.857  16.189  0.00  0.00    +0.000 OA
BRANCH  16  18
ATOM     17  C   UNL     1       6.175   4.007  13.808  0.00  0.00    +0.000 C 
ATOM     18  C   UNL     1       6.708   4.476  15.153  0.00  0.00    +0.000 C 
ENDBRANCH  16  18
ENDBRANCH  14  16
ENDBRANCH   1  14
BRANCH   5  19
ATOM     19  O   UNL     1       1.456   6.840  20.200  0.00  0.00    +0.000 OA
ATOM     20  C   UNL     1       1.284   7.791  21.228  0.00  0.00    +0.000 C 
ENDBRANCH   5  19
TORSDOF 5
ENDMDL
MODEL 5
REMARK VINA RESULT:      -6.0      3.610      6.031
REMARK  Name = 
REMARK  7 active torsions:
REMARK  status: ('A' for Active; 'I' for Inactive)
REMARK    1  A    between atoms: C_1  and  C_2
REMARK    2  A    between atoms: C_2  and  O_3
REMARK    3  A    between atoms: O_3  and  C_4
REMARK    4  A    between atoms: C_4  and  C_6
REMARK    5  A    between atoms: C_7  and  N_8
REMARK    6  A    between atoms: C_11  and  O_12
REMARK    7  A    between atoms: O_12  and  C_13
REMARK                            x       y       z     vdW  Elec       q    Type
REMARK                         _______ _______ _______ _____ _____    ______ ____
ROOT
ATOM      1  C   UNL     1       4.206   2.998  19.204  0.00  0.00    +0.000 A 
ATOM      2  C   UNL     1       3.463   2.582  18.114  0.00  0.00    +0.000 A 
ATOM      3  S   UNL     1       3.802   3.489  16.722  0.00  0.00    +0.000 S 
ATOM      4  C   UNL     1       4.959   4.493  17.530  0.00  0.00    +0.000 A 
ATOM      5  C   UNL     1       5.697   5.564  16.932  0.00  0.00    +0.000 A 
ATOM      6  C   UNL     1       6.591   6.254  17.774  0.00  0.00    +0.000 A 
ATOM      7 BR   UNL     1       7.694   7.727  17.279  0.00  0.00    +0.000 Br
ATOM      8  C   UNL     1       6.731   5.889  19.116  0.00  0.00    +0.000 A 
ATOM      9  C   UNL     1       5.997   4.837  19.664  0.00  0.00    +0.000 A 
ATOM     10  C   UNL     1       5.079   4.113  18.871  0.00  0.00    +0.000 A 
ENDROOT
BRANCH   2  11
ATOM     11  N   UNL     1       2.533   1.603  18.071  0.00  0.00    +0.000 N 
ATOM     12  H   UNL     1       2.648   0.782  18.670  0.00  0.00    +0.000 HD
ATOM     13  H   UNL     1       2.042   1.417  17.202  0.00  0.00    +0.000 HD
ENDBRANCH   2  11
BRANCH   1  14
ATOM     14  C   UNL     1       4.033   2.359  20.508  0.00  0.00    +0.000 C 
ATOM     15  O   UNL     1       4.937   1.777  21.100  0.00  0.00    +0.000 OA
BRANCH  14  16
ATOM     16  O   UNL     1       2.736   2.371  20.933  0.00  0.00    +0.000 OA
BRANCH  16  18
ATOM     17  C   UNL     1       1.114   4.106  20.607  0.00  0.00    +0.000 C 
ATOM     18  C   UNL     1       2.285   3.630  21.451  0.00  0.00    +0.000 C 
ENDBRANCH  16  18
ENDBRANCH  14  16
ENDBRANCH   1  14
BRANCH   5  19
ATOM     19  O   UNL     1       5.406   5.761  15.617  0.00  0.00    +0.000 OA
ATOM     20  C   UNL     1       6.139   5.173  14.564  0.00  0.00    +0.000 C 
ENDBRANCH   5  19
TORSDOF 5
ENDMDL
MODEL 6
REMARK VINA RESULT:      -6.0      1.671      2.477
REMARK  Name = 
REMARK  7 active torsions:
REMARK  status: ('A' for Active; 'I' for Inactive)
REMARK    1  A    between atoms: C_1  and  C_2
REMARK    2  A    between atoms: C_2  and  O_3
REMARK    3  A    between atoms: O_3  and  C_4
REMARK    4  A    between atoms: C_4  and  C_6
REMARK    5  A    between atoms: C_7  and  N_8
REMARK    6  A    between atoms: C_11  and  O_12
REMARK    7  A    between atoms: O_12  and  C_13
REMARK                            x       y       z     vdW  Elec       q    Type
REMARK                         _______ _______ _______ _____ _____    ______ ____
ROOT
ATOM      1  C   UNL     1       5.161   4.919  17.000  0.00  0.00    +0.000 A 
ATOM      2  C   UNL     1       4.721   6.195  16.705  0.00  0.00    +0.000 A 
ATOM      3  S   UNL     1       3.412   6.665  17.674  0.00  0.00    +0.000 S 
ATOM      4  C   UNL     1       3.371   5.160  18.531  0.00  0.00    +0.000 A 
ATOM      5  C   UNL     1       2.449   4.816  19.571  0.00  0.00    +0.000 A 
ATOM      6  C   UNL     1       2.595   3.533  20.135  0.00  0.00    +0.000 A 
ATOM      7 BR   UNL     1       1.516   2.783  21.515  0.00  0.00    +0.000 Br
ATOM      8  C   UNL     1       3.595   2.666  19.687  0.00  0.00    +0.000 A 
ATOM      9  C   UNL     1       4.479   3.038  18.673  0.00  0.00    +0.000 A 
ATOM     10  C   UNL     1       4.377   4.308  18.063  0.00  0.00    +0.000 A 
ENDROOT
BRANCH   2  11
ATOM     11  N   UNL     1       5.191   7.035  15.755  0.00  0.00    +0.000 N 
ATOM     12  H   UNL     1       5.035   6.807  14.770  0.00  0.00    +0.000 HD
ATOM     13  H   UNL     1       6.041   7.562  15.929  0.00  0.00    +0.000 HD
ENDBRANCH   2  11
BRANCH   1  14
ATOM     14  C   UNL     1       6.264   4.320  16.248  0.00  0.00    +0.000 C 
ATOM     15  O   UNL     1       6.119   3.384  15.467  0.00  0.00    +0.000 OA
BRANCH  14  16
ATOM     16  O   UNL     1       7.480   4.828  16.601  0.00  0.00    +0.000 OA
BRANCH  16  18
ATOM     17  C   UNL     1       7.856   5.968  18.677  0.00  0.00    +0.000 C 
ATOM     18  C   UNL     1       7.843   4.621  17.973  0.00  0.00    +0.000 C 
ENDBRANCH  16  18
ENDBRANCH  14  16
ENDBRANCH   1  14
BRANCH   5  19
ATOM     19  O   UNL     1       1.549   5.797  19.850  0.00  0.00    +0.000 OA
ATOM     20  C   UNL     1       1.744   6.763  20.860  0.00  0.00    +0.000 C 
ENDBRANCH   5  19
TORSDOF 5
ENDMDL
MODEL 7
REMARK VINA RESULT:      -5.9      3.198      4.197
REMARK  Name = 
REMARK  7 active torsions:
REMARK  status: ('A' for Active; 'I' for Inactive)
REMARK    1  A    between atoms: C_1  and  C_2
REMARK    2  A    between atoms: C_2  and  O_3
REMARK    3  A    between atoms: O_3  and  C_4
REMARK    4  A    between atoms: C_4  and  C_6
REMARK    5  A    between atoms: C_7  and  N_8
REMARK    6  A    between atoms: C_11  and  O_12
REMARK    7  A    between atoms: O_12  and  C_13
REMARK                            x       y       z     vdW  Elec       q    Type
REMARK                         _______ _______ _______ _____ _____    ______ ____
ROOT
ATOM      1  C   UNL     1       4.659   4.714  18.151  0.00  0.00    +0.000 A 
ATOM      2  C   UNL     1       4.355   3.934  19.250  0.00  0.00    +0.000 A 
ATOM      3  S   UNL     1       3.186   4.652  20.246  0.00  0.00    +0.000 S 
ATOM      4  C   UNL     1       3.045   6.058  19.245  0.00  0.00    +0.000 A 
ATOM      5  C   UNL     1       2.185   7.176  19.491  0.00  0.00    +0.000 A 
ATOM      6  C   UNL     1       2.227   8.218  18.542  0.00  0.00    +0.000 A 
ATOM      7 BR   UNL     1       1.220   9.834  18.602  0.00  0.00    +0.000 Br
ATOM      8  C   UNL     1       3.070   8.135  17.431  0.00  0.00    +0.000 A 
ATOM      9  C   UNL     1       3.892   7.028  17.222  0.00  0.00    +0.000 A 
ATOM     10  C   UNL     1       3.900   5.955  18.142  0.00  0.00    +0.000 A 
ENDROOT
BRANCH   2  11
ATOM     11  N   UNL     1       4.892   2.741  19.594  0.00  0.00    +0.000 N 
ATOM     12  H   UNL     1       5.812   2.488  19.228  0.00  0.00    +0.000 HD
ATOM     13  H   UNL     1       4.282   1.949  19.767  0.00  0.00    +0.000 HD
ENDBRANCH   2  11
BRANCH   1  14
ATOM     14  C   UNL     1       5.669   4.280  17.187  0.00  0.00    +0.000 C 
ATOM     15  O   UNL     1       5.395   3.763  16.108  0.00  0.00    +0.000 OA
BRANCH  14  16
ATOM     16  O   UNL     1       6.941   4.395  17.669  0.00  0.00    +0.000 OA
BRANCH  16  18
ATOM     17  C   UNL     1       7.904   6.113  19.036  0.00  0.00    +0.000 C 
ATOM     18  C   UNL     1       7.481   5.723  17.629  0.00  0.00    +0.000 C 
ENDBRANCH  16  18
ENDBRANCH  14  16
ENDBRANCH   1  14
BRANCH   5  19
ATOM     19  O   UNL     1       1.454   7.062  20.633  0.00  0.00    +0.000 OA
ATOM     20  C   UNL     1       1.263   8.126  21.541  0.00  0.00    +0.000 C 
ENDBRANCH   5  19
TORSDOF 5
ENDMDL
MODEL 8
REMARK VINA RESULT:      -5.9      3.467      4.782
REMARK  Name = 
REMARK  7 active torsions:
REMARK  status: ('A' for Active; 'I' for Inactive)
REMARK    1  A    between atoms: C_1  and  C_2
REMARK    2  A    between atoms: C_2  and  O_3
REMARK    3  A    between atoms: O_3  and  C_4
REMARK    4  A    between atoms: C_4  and  C_6
REMARK    5  A    between atoms: C_7  and  N_8
REMARK    6  A    between atoms: C_11  and  O_12
REMARK    7  A    between atoms: O_12  and  C_13
REMARK                            x       y       z     vdW  Elec       q    Type
REMARK                         _______ _______ _______ _____ _____    ______ ____
ROOT
ATOM      1  C   UNL     1       3.933   4.034  18.876  0.00  0.00    +0.000 A 
ATOM      2  C   UNL     1       4.586   4.424  17.722  0.00  0.00    +0.000 A 
ATOM      3  S   UNL     1       4.280   6.043  17.325  0.00  0.00    +0.000 S 
ATOM      4  C   UNL     1       3.240   6.290  18.688  0.00  0.00    +0.000 A 
ATOM      5  C   UNL     1       2.564   7.510  19.012  0.00  0.00    +0.000 A 
ATOM      6  C   UNL     1       1.765   7.492  20.172  0.00  0.00    +0.000 A 
ATOM      7 BR   UNL     1       0.735   8.944  20.851  0.00  0.00    +0.000 Br
ATOM      8  C   UNL     1       1.658   6.333  20.946  0.00  0.00    +0.000 A 
ATOM      9  C   UNL     1       2.334   5.163  20.600  0.00  0.00    +0.000 A 
ATOM     10  C   UNL     1       3.145   5.117  19.443  0.00  0.00    +0.000 A 
ENDROOT
BRANCH   2  11
ATOM     11  N   UNL     1       5.371   3.670  16.920  0.00  0.00    +0.000 N 
ATOM     12  H   UNL     1       5.976   4.135  16.239  0.00  0.00    +0.000 HD
ATOM     13  H   UNL     1       5.057   2.748  16.634  0.00  0.00    +0.000 HD
ENDBRANCH   2  11
BRANCH   1  14
ATOM     14  C   UNL     1       4.046   2.661  19.367  0.00  0.00    +0.000 C 
ATOM     15  O   UNL     1       4.938   2.286  20.123  0.00  0.00    +0.000 OA
BRANCH  14  16
ATOM     16  O   UNL     1       3.134   1.820  18.798  0.00  0.00    +0.000 OA
BRANCH  16  18
ATOM     17  C   UNL     1       0.796   2.321  18.627  0.00  0.00    +0.000 C 
ATOM     18  C   UNL     1       1.887   1.723  19.500  0.00  0.00    +0.000 C 
ENDBRANCH  16  18
ENDBRANCH  14  16
ENDBRANCH   1  14
BRANCH   5  19
ATOM     19  O   UNL     1       2.795   8.516  18.125  0.00  0.00    +0.000 OA
ATOM     20  C   UNL     1       1.803   9.433  17.717  0.00  0.00    +0.000 C 
ENDBRANCH   5  19
TORSDOF 5
ENDMDL
MODEL 9
REMARK VINA RESULT:      -5.8      2.456      3.875
REMARK  Name = 
REMARK  7 active torsions:
REMARK  status: ('A' for Active; 'I' for Inactive)
REMARK    1  A    between atoms: C_1  and  C_2
REMARK    2  A    between atoms: C_2  and  O_3
REMARK    3  A    between atoms: O_3  and  C_4
REMARK    4  A    between atoms: C_4  and  C_6
REMARK    5  A    between atoms: C_7  and  N_8
REMARK    6  A    between atoms: C_11  and  O_12
REMARK    7  A    between atoms: O_12  and  C_13
REMARK                            x       y       z     vdW  Elec       q    Type
REMARK                         _______ _______ _______ _____ _____    ______ ____
ROOT
ATOM      1  C   UNL     1       6.448   5.641  17.489  0.00  0.00    +0.000 A 
ATOM      2  C   UNL     1       6.510   4.941  16.298  0.00  0.00    +0.000 A 
ATOM      3  S   UNL     1       5.124   4.002  16.032  0.00  0.00    +0.000 S 
ATOM      4  C   UNL     1       4.381   4.487  17.519  0.00  0.00    +0.000 A 
ATOM      5  C   UNL     1       3.103   4.050  17.996  0.00  0.00    +0.000 A 
ATOM      6  C   UNL     1       2.688   4.573  19.237  0.00  0.00    +0.000 A 
ATOM      7 BR   UNL     1       1.057   4.171  20.137  0.00  0.00    +0.000 Br
ATOM      8  C   UNL     1       3.498   5.469  19.940  0.00  0.00    +0.000 A 
ATOM      9  C   UNL     1       4.735   5.875  19.442  0.00  0.00    +0.000 A 
ATOM     10  C   UNL     1       5.210   5.379  18.207  0.00  0.00    +0.000 A 
ENDROOT
BRANCH   2  11
ATOM     11  N   UNL     1       7.522   4.918  15.402  0.00  0.00    +0.000 N 
ATOM     12  H   UNL     1       7.642   4.093  14.811  0.00  0.00    +0.000 HD
ATOM     13  H   UNL     1       8.385   5.409  15.609  0.00  0.00    +0.000 HD
ENDBRANCH   2  11
BRANCH   1  14
ATOM     14  C   UNL     1       7.564   6.485  17.913  0.00  0.00    +0.000 C 
ATOM     15  O   UNL     1       8.177   6.317  18.964  0.00  0.00    +0.000 OA
BRANCH  14  16
ATOM     16  O   UNL     1       7.767   7.548  17.082  0.00  0.00    +0.000 OA
BRANCH  16  18
ATOM     17  C   UNL     1       8.561   9.509  18.210  0.00  0.00    +0.000 C 
ATOM     18  C   UNL     1       7.349   8.813  17.611  0.00  0.00    +0.000 C 
ENDBRANCH  16  18
ENDBRANCH  14  16
ENDBRANCH   1  14
BRANCH   5  19
ATOM     19  O   UNL     1       2.481   3.170  17.165  0.00  0.00    +0.000 OA
ATOM     20  C   UNL     1       2.235   1.823  17.507  0.00  0.00    +0.000 C 
ENDBRANCH   5  19
TORSDOF 5
ENDMDL
