MODEL 1
REMARK VINA RESULT:      -7.9      0.000      0.000
REMARK  Name = 
REMARK  7 active torsions:
REMARK  status: ('A' for Active; 'I' for Inactive)
REMARK    1  A    between atoms: N_4  and  C_5
REMARK    2  A    between atoms: C_11  and  O_12
REMARK    3  A    between atoms: O_12  and  C_13
REMARK    4  A    between atoms: C_13  and  C_14
REMARK    5  A    between atoms: C_14  and  O_15
REMARK    6  A    between atoms: C_14  and  C_16
REMARK    7  A    between atoms: C_16  and  N_17
REMARK                            x       y       z     vdW  Elec       q    Type
REMARK                         _______ _______ _______ _____ _____    ______ ____
ROOT
ATOM      1  C   UNL     1       2.101   7.875  18.916  0.00  0.00    +0.000 C 
ENDROOT
BRANCH   1   2
ATOM      2  O   UNL     1       2.192   7.559  20.309  0.00  0.00    +0.000 OA
ATOM      3  H   UNL     1       3.139   7.439  20.508  0.00  0.00    +0.000 HD
ENDBRANCH   1   2
BRANCH   1   4
ATOM      4  C   UNL     1       3.025   6.963  18.098  0.00  0.00    +0.000 C 
BRANCH   4   5
ATOM      5  O   UNL     1       3.531   5.920  18.918  0.00  0.00    +0.000 OA
BRANCH   5  12
ATOM      6  C   UNL     1       4.275   3.640  18.084  0.00  0.00    +0.000 A 
ATOM      7  C   UNL     1       3.791   2.340  17.828  0.00  0.00    +0.000 A 
ATOM      8  C   UNL     1       2.455   1.992  18.040  0.00  0.00    +0.000 A 
ATOM      9  C   UNL     1       1.578   2.946  18.512  0.00  0.00    +0.000 A 
ATOM     10  F   UNL     1       0.292   2.628  18.709  0.00  0.00    +0.000 F 
ATOM     11  C   UNL     1       2.019   4.232  18.787  0.00  0.00    +0.000 A 
ATOM     12  C   UNL     1       3.363   4.600  18.586  0.00  0.00    +0.000 A 
BRANCH   6  16
ATOM     13  N   UNL     1       7.596   4.617  16.968  0.00  0.00    +0.000 N 
ATOM     14  C   UNL     1       6.234   4.643  16.884  0.00  0.00    +0.000 C 
ATOM     15  O   UNL     1       5.700   5.279  15.989  0.00  0.00    +0.000 OA
ATOM     16  N   UNL     1       5.648   3.908  17.874  0.00  0.00    +0.000 N 
ATOM     17  H   UNL     1       8.042   5.252  16.312  0.00  0.00    +0.000 HD
ATOM     18  H   UNL     1       8.048   4.557  17.867  0.00  0.00    +0.000 HD
ATOM     19  H   UNL     1       6.310   3.524  18.517  0.00  0.00    +0.000 HD
ENDBRANCH   6  16
ENDBRANCH   5  12
ENDBRANCH   4   5
ENDBRANCH   1   4
BRANCH   1  20
ATOM     20  C   UNL     1       2.426   9.368  18.705  0.00  0.00    +0.000 C 
BRANCH  20  21
ATOM     21  N   UNL     1       1.293  10.186  18.228  0.00  0.00    +0.000 NA
ATOM     22  C   UNL     1      -0.019   9.703  18.679  0.00  0.00    +0.000 C 
ATOM     23  C   UNL     1      -0.288   9.953  20.160  0.00  0.00    +0.000 C 
ATOM     24  C   UNL     1      -0.080  11.434  20.533  0.00  0.00    +0.000 C 
ATOM     25  C   UNL     1       1.313  11.879  20.070  0.00  0.00    +0.000 C 
ATOM     26  C   UNL     1       1.487  11.604  18.575  0.00  0.00    +0.000 C 
ATOM     27  C   UNL     1      -1.168  12.361  19.936  0.00  0.00    +0.000 C 
ATOM     28  C   UNL     1      -2.092  12.412  21.086  0.00  0.00    +0.000 A 
ATOM     29  C   UNL     1      -3.395  12.870  21.136  0.00  0.00    +0.000 A 
ATOM     30  C   UNL     1      -4.042  12.854  22.376  0.00  0.00    +0.000 A 
ATOM     31 CL   UNL     1      -5.668  13.398  22.482  0.00  0.00    +0.000 Cl
ATOM     32  C   UNL     1      -3.379  12.398  23.527  0.00  0.00    +0.000 A 
ATOM     33  C   UNL     1      -2.056  11.951  23.456  0.00  0.00    +0.000 A 
ATOM     34  C   UNL     1      -1.440  11.963  22.222  0.00  0.00    +0.000 A 
ATOM     35  O   UNL     1      -0.156  11.544  21.986  0.00  0.00    +0.000 OA
ENDBRANCH  20  21
ENDBRANCH   1  20
TORSDOF 7
ENDMDL
MODEL 2
REMARK VINA RESULT:      -7.8      4.373      9.837
REMARK  Name = 
REMARK  7 active torsions:
REMARK  status: ('A' for Active; 'I' for Inactive)
REMARK    1  A    between atoms: N_4  and  C_5
REMARK    2  A    between atoms: C_11  and  O_12
REMARK    3  A    between atoms: O_12  and  C_13
REMARK    4  A    between atoms: C_13  and  C_14
REMARK    5  A    between atoms: C_14  and  O_15
REMARK    6  A    between atoms: C_14  and  C_16
REMARK    7  A    between atoms: C_16  and  N_17
REMARK                            x       y       z     vdW  Elec       q    Type
REMARK                         _______ _______ _______ _____ _____    ______ ____
ROOT
ATOM      1  C   UNL     1       1.412   7.109  20.441  0.00  0.00    +0.000 C 
ENDROOT
BRANCH   1   2
ATOM      2  O   UNL     1       2.539   7.981  20.576  0.00  0.00    +0.000 OA
ATOM      3  H   UNL     1       3.038   7.676  21.356  0.00  0.00    +0.000 HD
ENDBRANCH   1   2
BRANCH   1   4
ATOM      4  C   UNL     1       0.267   7.570  21.351  0.00  0.00    +0.000 C 
BRANCH   4   5
ATOM      5  O   UNL     1       0.649   8.738  22.063  0.00  0.00    +0.000 OA
BRANCH   5  12
ATOM      6  C   UNL     1       0.199  10.884  20.782  0.00  0.00    +0.000 A 
ATOM      7  C   UNL     1      -0.571  12.065  20.831  0.00  0.00    +0.000 A 
ATOM      8  C   UNL     1      -1.452  12.332  21.882  0.00  0.00    +0.000 A 
ATOM      9  C   UNL     1      -1.575  11.417  22.906  0.00  0.00    +0.000 A 
ATOM     10  F   UNL     1      -2.408  11.666  23.925  0.00  0.00    +0.000 F 
ATOM     11  C   UNL     1      -0.843  10.238  22.887  0.00  0.00    +0.000 A 
ATOM     12  C   UNL     1       0.045   9.948  21.834  0.00  0.00    +0.000 A 
BRANCH   6  16
ATOM     13  N   UNL     1       1.823  10.082  17.627  0.00  0.00    +0.000 N 
ATOM     14  C   UNL     1       0.720  10.237  18.417  0.00  0.00    +0.000 C 
ATOM     15  O   UNL     1      -0.384   9.987  17.960  0.00  0.00    +0.000 OA
ATOM     16  N   UNL     1       1.046  10.671  19.669  0.00  0.00    +0.000 N 
ATOM     17  H   UNL     1       1.589   9.874  16.662  0.00  0.00    +0.000 HD
ATOM     18  H   UNL     1       2.619  10.690  17.744  0.00  0.00    +0.000 HD
ATOM     19  H   UNL     1       2.023  10.852  19.777  0.00  0.00    +0.000 HD
ENDBRANCH   6  16
ENDBRANCH   5  12
ENDBRANCH   4   5
ENDBRANCH   1   4
BRANCH   1  20
ATOM     20  C   UNL     1       1.844   5.660  20.742  0.00  0.00    +0.000 C 
BRANCH  20  21
ATOM     21  N   UNL     1       1.727   4.730  19.601  0.00  0.00    +0.000 NA
ATOM     22  C   UNL     1       1.867   5.378  18.290  0.00  0.00    +0.000 C 
ATOM     23  C   UNL     1       3.295   5.807  17.968  0.00  0.00    +0.000 C 
ATOM     24  C   UNL     1       4.287   4.636  18.120  0.00  0.00    +0.000 C 
ATOM     25  C   UNL     1       4.124   4.016  19.512  0.00  0.00    +0.000 C 
ATOM     26  C   UNL     1       2.667   3.605  19.741  0.00  0.00    +0.000 C 
ATOM     27  C   UNL     1       4.112   3.556  17.024  0.00  0.00    +0.000 C 
ATOM     28  C   UNL     1       5.129   4.026  16.063  0.00  0.00    +0.000 A 
ATOM     29  C   UNL     1       5.321   3.653  14.746  0.00  0.00    +0.000 A 
ATOM     30  C   UNL     1       6.401   4.220  14.062  0.00  0.00    +0.000 A 
ATOM     31 CL   UNL     1       6.667   3.798  12.417  0.00  0.00    +0.000 Cl
ATOM     32  C   UNL     1       7.263   5.126  14.701  0.00  0.00    +0.000 A 
ATOM     33  C   UNL     1       7.057   5.479  16.039  0.00  0.00    +0.000 A 
ATOM     34  C   UNL     1       5.980   4.919  16.693  0.00  0.00    +0.000 A 
ATOM     35  O   UNL     1       5.637   5.176  17.995  0.00  0.00    +0.000 OA
ENDBRANCH  20  21
ENDBRANCH   1  20
TORSDOF 7
ENDMDL
MODEL 3
REMARK VINA RESULT:      -7.8      1.162      1.196
REMARK  Name = 
REMARK  7 active torsions:
REMARK  status: ('A' for Active; 'I' for Inactive)
REMARK    1  A    between atoms: N_4  and  C_5
REMARK    2  A    between atoms: C_11  and  O_12
REMARK    3  A    between atoms: O_12  and  C_13
REMARK    4  A    between atoms: C_13  and  C_14
REMARK    5  A    between atoms: C_14  and  O_15
REMARK    6  A    between atoms: C_14  and  C_16
REMARK    7  A    between atoms: C_16  and  N_17
REMARK                            x       y       z     vdW  Elec       q    Type
REMARK                         _______ _______ _______ _____ _____    ______ ____
ROOT
ATOM      1  C   UNL     1       1.810   7.513  19.818  0.00  0.00    +0.000 C 
ENDROOT
BRANCH   1   2
ATOM      2  O   UNL     1       1.878   7.242  21.222  0.00  0.00    +0.000 OA
ATOM      3  H   UNL     1       1.797   8.101  21.677  0.00  0.00    +0.000 HD
ENDBRANCH   1   2
BRANCH   1   4
ATOM      4  C   UNL     1       2.950   6.800  19.079  0.00  0.00    +0.000 C 
BRANCH   4   5
ATOM      5  O   UNL     1       3.354   5.647  19.803  0.00  0.00    +0.000 OA
BRANCH   5  12
ATOM      6  C   UNL     1       4.133   3.464  18.765  0.00  0.00    +0.000 A 
ATOM      7  C   UNL     1       3.651   2.223  18.298  0.00  0.00    +0.000 A 
ATOM      8  C   UNL     1       2.294   1.897  18.328  0.00  0.00    +0.000 A 
ATOM      9  C   UNL     1       1.392   2.813  18.828  0.00  0.00    +0.000 A 
ATOM     10  F   UNL     1       0.086   2.517  18.853  0.00  0.00    +0.000 F 
ATOM     11  C   UNL     1       1.829   4.040  19.307  0.00  0.00    +0.000 A 
ATOM     12  C   UNL     1       3.194   4.385  19.291  0.00  0.00    +0.000 A 
BRANCH   6  16
ATOM     13  N   UNL     1       7.569   4.479  18.134  0.00  0.00    +0.000 N 
ATOM     14  C   UNL     1       6.222   4.569  17.929  0.00  0.00    +0.000 C 
ATOM     15  O   UNL     1       5.793   5.358  17.102  0.00  0.00    +0.000 OA
ATOM     16  N   UNL     1       5.526   3.710  18.729  0.00  0.00    +0.000 N 
ATOM     17  H   UNL     1       8.091   5.191  17.634  0.00  0.00    +0.000 HD
ATOM     18  H   UNL     1       7.928   4.261  19.051  0.00  0.00    +0.000 HD
ATOM     19  H   UNL     1       6.112   3.205  19.362  0.00  0.00    +0.000 HD
ENDBRANCH   6  16
ENDBRANCH   5  12
ENDBRANCH   4   5
ENDBRANCH   1   4
BRANCH   1  20
ATOM     20  C   UNL     1       1.832   9.037  19.586  0.00  0.00    +0.000 C 
BRANCH  20  21
ATOM     21  N   UNL     1       0.545   9.615  19.149  0.00  0.00    +0.000 NA
ATOM     22  C   UNL     1      -0.512   9.547  20.167  0.00  0.00    +0.000 C 
ATOM     23  C   UNL     1      -0.312  10.523  21.324  0.00  0.00    +0.000 C 
ATOM     24  C   UNL     1      -0.113  11.967  20.820  0.00  0.00    +0.000 C 
ATOM     25  C   UNL     1       1.019  11.988  19.786  0.00  0.00    +0.000 C 
ATOM     26  C   UNL     1       0.727  10.992  18.661  0.00  0.00    +0.000 C 
ATOM     27  C   UNL     1      -1.404  12.574  20.219  0.00  0.00    +0.000 C 
ATOM     28  C   UNL     1      -1.913  13.278  21.413  0.00  0.00    +0.000 A 
ATOM     29  C   UNL     1      -3.164  13.823  21.635  0.00  0.00    +0.000 A 
ATOM     30  C   UNL     1      -3.377  14.485  22.849  0.00  0.00    +0.000 A 
ATOM     31 CL   UNL     1      -4.922  15.163  23.175  0.00  0.00    +0.000 Cl
ATOM     32  C   UNL     1      -2.347  14.599  23.797  0.00  0.00    +0.000 A 
ATOM     33  C   UNL     1      -1.086  14.051  23.545  0.00  0.00    +0.000 A 
ATOM     34  C   UNL     1      -0.899  13.390  22.349  0.00  0.00    +0.000 A 
ATOM     35  O   UNL     1       0.270  12.789  21.963  0.00  0.00    +0.000 OA
ENDBRANCH  20  21
ENDBRANCH   1  20
TORSDOF 7
ENDMDL
MODEL 4
REMARK VINA RESULT:      -7.8      1.036      1.054
REMARK  Name = 
REMARK  7 active torsions:
REMARK  status: ('A' for Active; 'I' for Inactive)
REMARK    1  A    between atoms: N_4  and  C_5
REMARK    2  A    between atoms: C_11  and  O_12
REMARK    3  A    between atoms: O_12  and  C_13
REMARK    4  A    between atoms: C_13  and  C_14
REMARK    5  A    between atoms: C_14  and  O_15
REMARK    6  A    between atoms: C_14  and  C_16
REMARK    7  A    between atoms: C_16  and  N_17
REMARK                            x       y       z     vdW  Elec       q    Type
REMARK                         _______ _______ _______ _____ _____    ______ ____
ROOT
ATOM      1  C   UNL     1       2.566   8.200  18.321  0.00  0.00    +0.000 C 
ENDROOT
BRANCH   1   2
ATOM      2  O   UNL     1       2.511   8.855  17.049  0.00  0.00    +0.000 OA
ATOM      3  H   UNL     1       1.744   8.483  16.575  0.00  0.00    +0.000 HD
ENDBRANCH   1   2
BRANCH   1   4
ATOM      4  C   UNL     1       2.249   6.707  18.168  0.00  0.00    +0.000 C 
BRANCH   4   5
ATOM      5  O   UNL     1       3.270   5.927  18.773  0.00  0.00    +0.000 OA
BRANCH   5  12
ATOM      6  C   UNL     1       4.241   3.581  18.797  0.00  0.00    +0.000 A 
ATOM      7  C   UNL     1       3.861   2.223  18.800  0.00  0.00    +0.000 A 
ATOM      8  C   UNL     1       2.522   1.828  18.776  0.00  0.00    +0.000 A 
ATOM      9  C   UNL     1       1.536   2.793  18.747  0.00  0.00    +0.000 A 
ATOM     10  F   UNL     1       0.248   2.428  18.714  0.00  0.00    +0.000 F 
ATOM     11  C   UNL     1       1.870   4.139  18.756  0.00  0.00    +0.000 A 
ATOM     12  C   UNL     1       3.215   4.557  18.786  0.00  0.00    +0.000 A 
BRANCH   6  16
ATOM     13  N   UNL     1       7.701   4.585  18.293  0.00  0.00    +0.000 N 
ATOM     14  C   UNL     1       6.394   4.507  17.907  0.00  0.00    +0.000 C 
ATOM     15  O   UNL     1       6.061   4.956  16.821  0.00  0.00    +0.000 OA
ATOM     16  N   UNL     1       5.618   3.902  18.853  0.00  0.00    +0.000 N 
ATOM     17  H   UNL     1       8.267   5.135  17.654  0.00  0.00    +0.000 HD
ATOM     18  H   UNL     1       7.936   4.698  19.267  0.00  0.00    +0.000 HD
ATOM     19  H   UNL     1       6.125   3.670  19.682  0.00  0.00    +0.000 HD
ENDBRANCH   6  16
ENDBRANCH   5  12
ENDBRANCH   4   5
ENDBRANCH   1   4
BRANCH   1  20
ATOM     20  C   UNL     1       1.605   8.899  19.302  0.00  0.00    +0.000 C 
BRANCH  20  21
ATOM     21  N   UNL     1       0.919  10.088  18.756  0.00  0.00    +0.000 NA
ATOM     22  C   UNL     1      -0.547  10.008  18.817  0.00  0.00    +0.000 C 
ATOM     23  C   UNL     1      -1.111  10.163  20.226  0.00  0.00    +0.000 C 
ATOM     24  C   UNL     1      -0.593  11.446  20.907  0.00  0.00    +0.000 C 
ATOM     25  C   UNL     1       0.939  11.466  20.845  0.00  0.00    +0.000 C 
ATOM     26  C   UNL     1       1.412  11.319  19.397  0.00  0.00    +0.000 C 
ATOM     27  C   UNL     1      -1.175  12.735  20.276  0.00  0.00    +0.000 C 
ATOM     28  C   UNL     1      -2.313  12.954  21.190  0.00  0.00    +0.000 A 
ATOM     29  C   UNL     1      -3.397  13.800  21.045  0.00  0.00    +0.000 A 
ATOM     30  C   UNL     1      -4.322  13.854  22.093  0.00  0.00    +0.000 A 
ATOM     31 CL   UNL     1      -5.694  14.879  21.948  0.00  0.00    +0.000 Cl
ATOM     32  C   UNL     1      -4.143  13.082  23.252  0.00  0.00    +0.000 A 
ATOM     33  C   UNL     1      -3.033  12.242  23.382  0.00  0.00    +0.000 A 
ATOM     34  C   UNL     1      -2.138  12.193  22.334  0.00  0.00    +0.000 A 
ATOM     35  O   UNL     1      -1.013  11.411  22.303  0.00  0.00    +0.000 OA
ENDBRANCH  20  21
ENDBRANCH   1  20
TORSDOF 7
ENDMDL
MODEL 5
REMARK VINA RESULT:      -7.7      2.494      3.451
REMARK  Name = 
REMARK  7 active torsions:
REMARK  status: ('A' for Active; 'I' for Inactive)
REMARK    1  A    between atoms: N_4  and  C_5
REMARK    2  A    between atoms: C_11  and  O_12
REMARK    3  A    between atoms: O_12  and  C_13
REMARK    4  A    between atoms: C_13  and  C_14
REMARK    5  A    between atoms: C_14  and  O_15
REMARK    6  A    between atoms: C_14  and  C_16
REMARK    7  A    between atoms: C_16  and  N_17
REMARK                            x       y       z     vdW  Elec       q    Type
REMARK                         _______ _______ _______ _____ _____    ______ ____
ROOT
ATOM      1  C   UNL     1       1.867   9.509  18.389  0.00  0.00    +0.000 C 
ENDROOT
BRANCH   1   2
ATOM      2  O   UNL     1       2.284  10.285  17.260  0.00  0.00    +0.000 OA
ATOM      3  H   UNL     1       2.925  10.940  17.592  0.00  0.00    +0.000 HD
ENDBRANCH   1   2
BRANCH   1   4
ATOM      4  C   UNL     1       1.763   8.026  18.010  0.00  0.00    +0.000 C 
BRANCH   4   5
ATOM      5  O   UNL     1       2.868   7.308  18.539  0.00  0.00    +0.000 OA
BRANCH   5  12
ATOM      6  C   UNL     1       2.992   4.842  17.947  0.00  0.00    +0.000 A 
ATOM      7  C   UNL     1       3.730   3.922  17.174  0.00  0.00    +0.000 A 
ATOM      8  C   UNL     1       4.821   4.316  16.395  0.00  0.00    +0.000 A 
ATOM      9  C   UNL     1       5.192   5.644  16.380  0.00  0.00    +0.000 A 
ATOM     10  F   UNL     1       6.243   6.034  15.646  0.00  0.00    +0.000 F 
ATOM     11  C   UNL     1       4.483   6.581  17.118  0.00  0.00    +0.000 A 
ATOM     12  C   UNL     1       3.377   6.204  17.904  0.00  0.00    +0.000 A 
BRANCH   6  16
ATOM     13  N   UNL     1       0.533   3.731  20.387  0.00  0.00    +0.000 N 
ATOM     14  C   UNL     1       1.715   4.320  20.040  0.00  0.00    +0.000 C 
ATOM     15  O   UNL     1       2.467   4.718  20.916  0.00  0.00    +0.000 OA
ATOM     16  N   UNL     1       1.881   4.371  18.686  0.00  0.00    +0.000 N 
ATOM     17  H   UNL     1       0.342   3.791  21.382  0.00  0.00    +0.000 HD
ATOM     18  H   UNL     1      -0.277   3.837  19.797  0.00  0.00    +0.000 HD
ATOM     19  H   UNL     1       1.091   4.022  18.183  0.00  0.00    +0.000 HD
ENDBRANCH   6  16
ENDBRANCH   5  12
ENDBRANCH   4   5
ENDBRANCH   1   4
BRANCH   1  20
ATOM     20  C   UNL     1       0.535  10.064  18.931  0.00  0.00    +0.000 C 
BRANCH  20  21
ATOM     21  N   UNL     1       0.556  11.500  19.273  0.00  0.00    +0.000 NA
ATOM     22  C   UNL     1      -0.763  12.144  19.211  0.00  0.00    +0.000 C 
ATOM     23  C   UNL     1      -1.692  11.748  20.355  0.00  0.00    +0.000 C 
ATOM     24  C   UNL     1      -1.027  11.968  21.729  0.00  0.00    +0.000 C 
ATOM     25  C   UNL     1       0.328  11.251  21.752  0.00  0.00    +0.000 C 
ATOM     26  C   UNL     1       1.195  11.720  20.581  0.00  0.00    +0.000 C 
ATOM     27  C   UNL     1      -0.851  13.467  22.076  0.00  0.00    +0.000 C 
ATOM     28  C   UNL     1      -2.080  13.673  22.866  0.00  0.00    +0.000 A 
ATOM     29  C   UNL     1      -2.667  14.858  23.271  0.00  0.00    +0.000 A 
ATOM     30  C   UNL     1      -3.818  14.775  24.062  0.00  0.00    +0.000 A 
ATOM     31 CL   UNL     1      -4.590  16.222  24.573  0.00  0.00    +0.000 Cl
ATOM     32  C   UNL     1      -4.345  13.529  24.438  0.00  0.00    +0.000 A 
ATOM     33  C   UNL     1      -3.727  12.343  24.027  0.00  0.00    +0.000 A 
ATOM     34  C   UNL     1      -2.601  12.445  23.237  0.00  0.00    +0.000 A 
ATOM     35  O   UNL     1      -1.894  11.380  22.743  0.00  0.00    +0.000 OA
ENDBRANCH  20  21
ENDBRANCH   1  20
TORSDOF 7
ENDMDL
MODEL 6
REMARK VINA RESULT:      -7.6      1.710      1.727
REMARK  Name = 
REMARK  7 active torsions:
REMARK  status: ('A' for Active; 'I' for Inactive)
REMARK    1  A    between atoms: N_4  and  C_5
REMARK    2  A    between atoms: C_11  and  O_12
REMARK    3  A    between atoms: O_12  and  C_13
REMARK    4  A    between atoms: C_13  and  C_14
REMARK    5  A    between atoms: C_14  and  O_15
REMARK    6  A    between atoms: C_14  and  C_16
REMARK    7  A    between atoms: C_16  and  N_17
REMARK                            x       y       z     vdW  Elec       q    Type
REMARK                         _______ _______ _______ _____ _____    ______ ____
ROOT
ATOM      1  C   UNL     1       2.297   8.478  18.652  0.00  0.00    +0.000 C 
ENDROOT
BRANCH   1   2
ATOM      2  O   UNL     1       1.992   8.617  17.260  0.00  0.00    +0.000 OA
ATOM      3  H   UNL     1       1.042   8.425  17.161  0.00  0.00    +0.000 HD
ENDBRANCH   1   2
BRANCH   1   4
ATOM      4  C   UNL     1       2.511   7.001  19.008  0.00  0.00    +0.000 C 
BRANCH   4   5
ATOM      5  O   UNL     1       2.931   6.278  17.860  0.00  0.00    +0.000 OA
BRANCH   5  12
ATOM      6  C   UNL     1       4.017   4.014  17.483  0.00  0.00    +0.000 A 
ATOM      7  C   UNL     1       3.760   2.631  17.580  0.00  0.00    +0.000 A 
ATOM      8  C   UNL     1       2.528   2.134  18.009  0.00  0.00    +0.000 A 
ATOM      9  C   UNL     1       1.526   3.020  18.349  0.00  0.00    +0.000 A 
ATOM     10  F   UNL     1       0.336   2.556  18.752  0.00  0.00    +0.000 F 
ATOM     11  C   UNL     1       1.744   4.388  18.278  0.00  0.00    +0.000 A 
ATOM     12  C   UNL     1       2.982   4.908  17.853  0.00  0.00    +0.000 A 
BRANCH   6  16
ATOM     13  N   UNL     1       7.450   5.147  17.080  0.00  0.00    +0.000 N 
ATOM     14  C   UNL     1       6.410   4.675  17.828  0.00  0.00    +0.000 C 
ATOM     15  O   UNL     1       6.559   4.517  19.030  0.00  0.00    +0.000 OA
ATOM     16  N   UNL     1       5.300   4.440  17.068  0.00  0.00    +0.000 N 
ATOM     17  H   UNL     1       8.315   5.215  17.608  0.00  0.00    +0.000 HD
ATOM     18  H   UNL     1       7.564   4.848  16.125  0.00  0.00    +0.000 HD
ATOM     19  H   UNL     1       5.454   4.602  16.094  0.00  0.00    +0.000 HD
ENDBRANCH   6  16
ENDBRANCH   5  12
ENDBRANCH   4   5
ENDBRANCH   1   4
BRANCH   1  20
ATOM     20  C   UNL     1       1.174   9.120  19.491  0.00  0.00    +0.000 C 
BRANCH  20  21
ATOM     21  N   UNL     1       0.510  10.276  18.856  0.00  0.00    +0.000 NA
ATOM     22  C   UNL     1      -0.855  10.517  19.343  0.00  0.00    +0.000 C 
ATOM     23  C   UNL     1      -0.908  11.092  20.756  0.00  0.00    +0.000 C 
ATOM     24  C   UNL     1      -0.036  12.357  20.887  0.00  0.00    +0.000 C 
ATOM     25  C   UNL     1       1.382  12.043  20.396  0.00  0.00    +0.000 C 
ATOM     26  C   UNL     1       1.339  11.486  18.971  0.00  0.00    +0.000 C 
ATOM     27  C   UNL     1      -0.618  13.568  20.117  0.00  0.00    +0.000 C 
ATOM     28  C   UNL     1      -1.361  14.214  21.217  0.00  0.00    +0.000 A 
ATOM     29  C   UNL     1      -2.313  15.214  21.156  0.00  0.00    +0.000 A 
ATOM     30  C   UNL     1      -2.835  15.688  22.364  0.00  0.00    +0.000 A 
ATOM     31 CL   UNL     1      -4.034  16.919  22.335  0.00  0.00    +0.000 Cl
ATOM     32  C   UNL     1      -2.392  15.170  23.592  0.00  0.00    +0.000 A 
ATOM     33  C   UNL     1      -1.418  14.167  23.631  0.00  0.00    +0.000 A 
ATOM     34  C   UNL     1      -0.925  13.703  22.429  0.00  0.00    +0.000 A 
ATOM     35  O   UNL     1       0.018  12.717  22.300  0.00  0.00    +0.000 OA
ENDBRANCH  20  21
ENDBRANCH   1  20
TORSDOF 7
ENDMDL
MODEL 7
REMARK VINA RESULT:      -7.6      4.515     10.184
REMARK  Name = 
REMARK  7 active torsions:
REMARK  status: ('A' for Active; 'I' for Inactive)
REMARK    1  A    between atoms: N_4  and  C_5
REMARK    2  A    between atoms: C_11  and  O_12
REMARK    3  A    between atoms: O_12  and  C_13
REMARK    4  A    between atoms: C_13  and  C_14
REMARK    5  A    between atoms: C_14  and  O_15
REMARK    6  A    between atoms: C_14  and  C_16
REMARK    7  A    between atoms: C_16  and  N_17
REMARK                            x       y       z     vdW  Elec       q    Type
REMARK                         _______ _______ _______ _____ _____    ______ ____
ROOT
ATOM      1  C   UNL     1       0.748   8.959  20.897  0.00  0.00    +0.000 C 
ENDROOT
BRANCH   1   2
ATOM      2  O   UNL     1      -0.331   8.147  21.369  0.00  0.00    +0.000 OA
ATOM      3  H   UNL     1      -0.876   8.712  21.947  0.00  0.00    +0.000 HD
ENDBRANCH   1   2
BRANCH   1   4
ATOM      4  C   UNL     1       0.278   9.863  19.750  0.00  0.00    +0.000 C 
BRANCH   4   5
ATOM      5  O   UNL     1       0.099  11.192  20.218  0.00  0.00    +0.000 OA
BRANCH   5  12
ATOM      6  C   UNL     1      -2.185  12.126  19.615  0.00  0.00    +0.000 A 
ATOM      7  C   UNL     1      -3.372  12.616  20.197  0.00  0.00    +0.000 A 
ATOM      8  C   UNL     1      -3.537  12.703  21.582  0.00  0.00    +0.000 A 
ATOM      9  C   UNL     1      -2.509  12.299  22.409  0.00  0.00    +0.000 A 
ATOM     10  F   UNL     1      -2.651  12.386  23.738  0.00  0.00    +0.000 F 
ATOM     11  C   UNL     1      -1.331  11.800  21.873  0.00  0.00    +0.000 A 
ATOM     12  C   UNL     1      -1.148  11.699  20.481  0.00  0.00    +0.000 A 
BRANCH   6  16
ATOM     13  N   UNL     1      -2.500  11.479  16.049  0.00  0.00    +0.000 N 
ATOM     14  C   UNL     1      -2.944  11.403  17.338  0.00  0.00    +0.000 C 
ATOM     15  O   UNL     1      -3.984  10.810  17.580  0.00  0.00    +0.000 OA
ATOM     16  N   UNL     1      -2.104  12.040  18.205  0.00  0.00    +0.000 N 
ATOM     17  H   UNL     1      -3.170  11.113  15.380  0.00  0.00    +0.000 HD
ATOM     18  H   UNL     1      -1.994  12.292  15.735  0.00  0.00    +0.000 HD
ATOM     19  H   UNL     1      -1.342  12.495  17.746  0.00  0.00    +0.000 HD
ENDBRANCH   6  16
ENDBRANCH   5  12
ENDBRANCH   4   5
ENDBRANCH   1   4
BRANCH   1  20
ATOM     20  C   UNL     1       1.926   8.057  20.478  0.00  0.00    +0.000 C 
BRANCH  20  21
ATOM     21  N   UNL     1       1.593   7.035  19.465  0.00  0.00    +0.000 NA
ATOM     22  C   UNL     1       2.005   7.395  18.101  0.00  0.00    +0.000 C 
ATOM     23  C   UNL     1       3.513   7.320  17.877  0.00  0.00    +0.000 C 
ATOM     24  C   UNL     1       4.080   5.946  18.288  0.00  0.00    +0.000 C 
ATOM     25  C   UNL     1       3.649   5.633  19.726  0.00  0.00    +0.000 C 
ATOM     26  C   UNL     1       2.126   5.719  19.852  0.00  0.00    +0.000 C 
ATOM     27  C   UNL     1       3.642   4.808  17.334  0.00  0.00    +0.000 C 
ATOM     28  C   UNL     1       4.810   4.792  16.431  0.00  0.00    +0.000 A 
ATOM     29  C   UNL     1       4.954   4.174  15.203  0.00  0.00    +0.000 A 
ATOM     30  C   UNL     1       6.196   4.276  14.567  0.00  0.00    +0.000 A 
ATOM     31 CL   UNL     1       6.414   3.537  13.031  0.00  0.00    +0.000 Cl
ATOM     32  C   UNL     1       7.257   4.972  15.167  0.00  0.00    +0.000 A 
ATOM     33  C   UNL     1       7.093   5.579  16.416  0.00  0.00    +0.000 A 
ATOM     34  C   UNL     1       5.858   5.479  17.022  0.00  0.00    +0.000 A 
ATOM     35  O   UNL     1       5.535   6.030  18.235  0.00  0.00    +0.000 OA
ENDBRANCH  20  21
ENDBRANCH   1  20
TORSDOF 7
ENDMDL
MODEL 8
REMARK VINA RESULT:      -7.6      4.481     10.061
REMARK  Name = 
REMARK  7 active torsions:
REMARK  status: ('A' for Active; 'I' for Inactive)
REMARK    1  A    between atoms: N_4  and  C_5
REMARK    2  A    between atoms: C_11  and  O_12
REMARK    3  A    between atoms: O_12  and  C_13
REMARK    4  A    between atoms: C_13  and  C_14
REMARK    5  A    between atoms: C_14  and  O_15
REMARK    6  A    between atoms: C_14  and  C_16
REMARK    7  A    between atoms: C_16  and  N_17
REMARK                            x       y       z     vdW  Elec       q    Type
REMARK                         _______ _______ _______ _____ _____    ______ ____
ROOT
ATOM      1  C   UNL     1       0.895   8.977  20.576  0.00  0.00    +0.000 C 
ENDROOT
BRANCH   1   2
ATOM      2  O   UNL     1       1.463  10.114  19.918  0.00  0.00    +0.000 OA
ATOM      3  H   UNL     1       1.567  10.807  20.596  0.00  0.00    +0.000 HD
ENDBRANCH   1   2
BRANCH   1   4
ATOM      4  C   UNL     1       0.491   9.336  22.012  0.00  0.00    +0.000 C 
BRANCH   4   5
ATOM      5  O   UNL     1       0.558  10.742  22.201  0.00  0.00    +0.000 OA
BRANCH   5  12
ATOM      6  C   UNL     1      -0.877  12.519  21.091  0.00  0.00    +0.000 A 
ATOM      7  C   UNL     1      -2.110  13.190  21.221  0.00  0.00    +0.000 A 
ATOM      8  C   UNL     1      -2.991  12.924  22.272  0.00  0.00    +0.000 A 
ATOM      9  C   UNL     1      -2.647  11.978  23.216  0.00  0.00    +0.000 A 
ATOM     10  F   UNL     1      -3.478  11.722  24.234  0.00  0.00    +0.000 F 
ATOM     11  C   UNL     1      -1.447  11.290  23.115  0.00  0.00    +0.000 A 
ATOM     12  C   UNL     1      -0.549  11.539  22.060  0.00  0.00    +0.000 A 
BRANCH   6  16
ATOM     13  N   UNL     1       0.934  12.771  17.946  0.00  0.00    +0.000 N 
ATOM     14  C   UNL     1      -0.065  12.273  18.732  0.00  0.00    +0.000 C 
ATOM     15  O   UNL     1      -0.827  11.437  18.274  0.00  0.00    +0.000 OA
ATOM     16  N   UNL     1      -0.052  12.822  19.982  0.00  0.00    +0.000 N 
ATOM     17  H   UNL     1       0.866  12.462  16.981  0.00  0.00    +0.000 HD
ATOM     18  H   UNL     1       1.242  13.724  18.061  0.00  0.00    +0.000 HD
ATOM     19  H   UNL     1       0.648  13.527  20.090  0.00  0.00    +0.000 HD
ENDBRANCH   6  16
ENDBRANCH   5  12
ENDBRANCH   4   5
ENDBRANCH   1   4
BRANCH   1  20
ATOM     20  C   UNL     1       1.894   7.804  20.531  0.00  0.00    +0.000 C 
BRANCH  20  21
ATOM     21  N   UNL     1       1.595   6.775  19.515  0.00  0.00    +0.000 NA
ATOM     22  C   UNL     1       1.962   7.167  18.147  0.00  0.00    +0.000 C 
ATOM     23  C   UNL     1       3.467   7.172  17.895  0.00  0.00    +0.000 C 
ATOM     24  C   UNL     1       4.112   5.826  18.282  0.00  0.00    +0.000 C 
ATOM     25  C   UNL     1       3.724   5.478  19.724  0.00  0.00    +0.000 C 
ATOM     26  C   UNL     1       2.202   5.484  19.880  0.00  0.00    +0.000 C 
ATOM     27  C   UNL     1       3.715   4.675  17.325  0.00  0.00    +0.000 C 
ATOM     28  C   UNL     1       4.865   4.727  16.401  0.00  0.00    +0.000 A 
ATOM     29  C   UNL     1       5.017   4.128  15.165  0.00  0.00    +0.000 A 
ATOM     30  C   UNL     1       6.240   4.299  14.507  0.00  0.00    +0.000 A 
ATOM     31 CL   UNL     1       6.467   3.587  12.960  0.00  0.00    +0.000 Cl
ATOM     32  C   UNL     1       7.275   5.044  15.094  0.00  0.00    +0.000 A 
ATOM     33  C   UNL     1       7.103   5.631  16.352  0.00  0.00    +0.000 A 
ATOM     34  C   UNL     1       5.887   5.462  16.979  0.00  0.00    +0.000 A 
ATOM     35  O   UNL     1       5.559   5.985  18.203  0.00  0.00    +0.000 OA
ENDBRANCH  20  21
ENDBRANCH   1  20
TORSDOF 7
ENDMDL
MODEL 9
REMARK VINA RESULT:      -7.5      2.197      2.834
REMARK  Name = 
REMARK  7 active torsions:
REMARK  status: ('A' for Active; 'I' for Inactive)
REMARK    1  A    between atoms: N_4  and  C_5
REMARK    2  A    between atoms: C_11  and  O_12
REMARK    3  A    between atoms: O_12  and  C_13
REMARK    4  A    between atoms: C_13  and  C_14
REMARK    5  A    between atoms: C_14  and  O_15
REMARK    6  A    between atoms: C_14  and  C_16
REMARK    7  A    between atoms: C_16  and  N_17
REMARK                            x       y       z     vdW  Elec       q    Type
REMARK                         _______ _______ _______ _____ _____    ______ ____
ROOT
ATOM      1  C   UNL     1       1.760   7.650  19.541  0.00  0.00    +0.000 C 
ENDROOT
BRANCH   1   2
ATOM      2  O   UNL     1       2.202   7.485  20.892  0.00  0.00    +0.000 OA
ATOM      3  H   UNL     1       3.171   7.381  20.858  0.00  0.00    +0.000 HD
ENDBRANCH   1   2
BRANCH   1   4
ATOM      4  C   UNL     1       2.799   7.087  18.564  0.00  0.00    +0.000 C 
BRANCH   4   5
ATOM      5  O   UNL     1       3.491   6.000  19.160  0.00  0.00    +0.000 OA
BRANCH   5  12
ATOM      6  C   UNL     1       4.279   3.826  18.110  0.00  0.00    +0.000 A 
ATOM      7  C   UNL     1       3.820   2.551  17.722  0.00  0.00    +0.000 A 
ATOM      8  C   UNL     1       2.489   2.161  17.887  0.00  0.00    +0.000 A 
ATOM      9  C   UNL     1       1.592   3.049  18.445  0.00  0.00    +0.000 A 
ATOM     10  F   UNL     1       0.310   2.691  18.599  0.00  0.00    +0.000 F 
ATOM     11  C   UNL     1       2.009   4.308  18.850  0.00  0.00    +0.000 A 
ATOM     12  C   UNL     1       3.348   4.717  18.698  0.00  0.00    +0.000 A 
BRANCH   6  16
ATOM     13  N   UNL     1       7.654   4.623  17.009  0.00  0.00    +0.000 N 
ATOM     14  C   UNL     1       6.316   4.458  16.792  0.00  0.00    +0.000 C 
ATOM     15  O   UNL     1       5.869   4.602  15.665  0.00  0.00    +0.000 OA
ATOM     16  N   UNL     1       5.649   4.137  17.939  0.00  0.00    +0.000 N 
ATOM     17  H   UNL     1       8.144   4.975  16.192  0.00  0.00    +0.000 HD
ATOM     18  H   UNL     1       7.983   4.991  17.888  0.00  0.00    +0.000 HD
ATOM     19  H   UNL     1       6.240   4.131  18.744  0.00  0.00    +0.000 HD
ENDBRANCH   6  16
ENDBRANCH   5  12
ENDBRANCH   4   5
ENDBRANCH   1   4
BRANCH   1  20
ATOM     20  C   UNL     1       1.462   9.140  19.275  0.00  0.00    +0.000 C 
BRANCH  20  21
ATOM     21  N   UNL     1       0.454   9.739  20.174  0.00  0.00    +0.000 NA
ATOM     22  C   UNL     1       0.942  10.912  20.913  0.00  0.00    +0.000 C 
ATOM     23  C   UNL     1       1.107  12.157  20.046  0.00  0.00    +0.000 C 
ATOM     24  C   UNL     1      -0.184  12.484  19.270  0.00  0.00    +0.000 C 
ATOM     25  C   UNL     1      -0.633  11.240  18.493  0.00  0.00    +0.000 C 
ATOM     26  C   UNL     1      -0.785  10.049  19.441  0.00  0.00    +0.000 C 
ATOM     27  C   UNL     1      -1.325  12.985  20.190  0.00  0.00    +0.000 C 
ATOM     28  C   UNL     1      -1.118  14.440  20.054  0.00  0.00    +0.000 A 
ATOM     29  C   UNL     1      -1.643  15.470  20.812  0.00  0.00    +0.000 A 
ATOM     30  C   UNL     1      -1.322  16.779  20.439  0.00  0.00    +0.000 A 
ATOM     31 CL   UNL     1      -1.939  18.090  21.363  0.00  0.00    +0.000 Cl
ATOM     32  C   UNL     1      -0.505  17.031  19.325  0.00  0.00    +0.000 A 
ATOM     33  C   UNL     1       0.005  15.974  18.564  0.00  0.00    +0.000 A 
ATOM     34  C   UNL     1      -0.311  14.689  18.955  0.00  0.00    +0.000 A 
ATOM     35  O   UNL     1       0.121  13.552  18.325  0.00  0.00    +0.000 OA
ENDBRANCH  20  21
ENDBRANCH   1  20
TORSDOF 7
ENDMDL
