MODEL 1
REMARK VINA RESULT:      -7.6      0.000      0.000
REMARK  Name = 
REMARK  13 active torsions:
REMARK  status: ('A' for Active; 'I' for Inactive)
REMARK    1  A    between atoms: C_1  and  C_2
REMARK    2  A    between atoms: C_2  and  C_3
REMARK    3  A    between atoms: C_4  and  C_5
REMARK    4  A    between atoms: C_5  and  C_6
REMARK    5  A    between atoms: C_6  and  C_7
REMARK    6  A    between atoms: C_7  and  C_8
REMARK    7  A    between atoms: C_9  and  C_10
REMARK    8  A    between atoms: C_10  and  C_11
REMARK    9  A    between atoms: C_11  and  C_12
REMARK   10  A    between atoms: C_12  and  C_13
REMARK   11  A    between atoms: C_14  and  C_15
REMARK   12  A    between atoms: C_15  and  C_16
REMARK   13  A    between atoms: C_20  and  C_21
REMARK                            x       y       z     vdW  Elec       q    Type
REMARK                         _______ _______ _______ _____ _____    ______ ____
ROOT
ATOM      1  C   UNL     1       7.743   4.600  17.475  0.00  0.00    +0.000 C 
ENDROOT
BRANCH   1   2
ATOM      2  C   UNL     1       6.438   4.321  16.747  0.00  0.00    +0.000 C 
ATOM      3  C   UNL     1       6.503   4.217  15.247  0.00  0.00    +0.000 C 
ATOM      4  C   UNL     1       5.300   4.104  17.432  0.00  0.00    +0.000 C 
BRANCH   4   5
ATOM      5  C   UNL     1       3.963   3.729  16.846  0.00  0.00    +0.000 C 
BRANCH   5   6
ATOM      6  C   UNL     1       2.874   3.660  17.894  0.00  0.00    +0.000 A 
ATOM      7  C   UNL     1       2.015   2.555  17.955  0.00  0.00    +0.000 A 
ATOM      8  C   UNL     1       1.019   2.484  18.929  0.00  0.00    +0.000 A 
ATOM      9  C   UNL     1       0.869   3.515  19.855  0.00  0.00    +0.000 A 
ATOM     10  C   UNL     1       1.713   4.630  19.813  0.00  0.00    +0.000 A 
ATOM     11  C   UNL     1       1.578   5.741  20.811  0.00  0.00    +0.000 C 
ATOM     12  C   UNL     1       2.709   4.696  18.828  0.00  0.00    +0.000 A 
ENDBRANCH   5   6
ENDBRANCH   4   5
ENDBRANCH   1   2
BRANCH   1  13
ATOM     13  C   UNL     1       7.504   5.557  18.647  0.00  0.00    +0.000 C 
BRANCH  13  16
ATOM     14  C   UNL     1       7.551   7.941  17.869  0.00  0.00    +0.000 C 
ATOM     15  C   UNL     1       6.189   7.742  17.246  0.00  0.00    +0.000 C 
ATOM     16  C   UNL     1       8.151   6.912  18.510  0.00  0.00    +0.000 C 
BRANCH  14  17
ATOM     17  C   UNL     1       8.256   9.285  17.769  0.00  0.00    +0.000 C 
BRANCH  17  18
ATOM     18  C   UNL     1       9.137   9.665  18.965  0.00  0.00    +0.000 C 
BRANCH  18  22
ATOM     19  C   UNL     1      10.186  13.400  19.306  0.00  0.00    +0.000 C 
ATOM     20  C   UNL     1      10.280  11.914  19.102  0.00  0.00    +0.000 C 
ATOM     21  C   UNL     1      11.631  11.349  18.762  0.00  0.00    +0.000 C 
ATOM     22  C   UNL     1       9.185  11.143  19.233  0.00  0.00    +0.000 C 
ENDBRANCH  18  22
ENDBRANCH  17  18
ENDBRANCH  14  17
ENDBRANCH  13  16
ENDBRANCH   1  13
TORSDOF 8
ENDMDL
MODEL 2
REMARK VINA RESULT:      -7.4      1.362      8.852
REMARK  Name = 
REMARK  13 active torsions:
REMARK  status: ('A' for Active; 'I' for Inactive)
REMARK    1  A    between atoms: C_1  and  C_2
REMARK    2  A    between atoms: C_2  and  C_3
REMARK    3  A    between atoms: C_4  and  C_5
REMARK    4  A    between atoms: C_5  and  C_6
REMARK    5  A    between atoms: C_6  and  C_7
REMARK    6  A    between atoms: C_7  and  C_8
REMARK    7  A    between atoms: C_9  and  C_10
REMARK    8  A    between atoms: C_10  and  C_11
REMARK    9  A    between atoms: C_11  and  C_12
REMARK   10  A    between atoms: C_12  and  C_13
REMARK   11  A    between atoms: C_14  and  C_15
REMARK   12  A    between atoms: C_15  and  C_16
REMARK   13  A    between atoms: C_20  and  C_21
REMARK                            x       y       z     vdW  Elec       q    Type
REMARK                         _______ _______ _______ _____ _____    ______ ____
ROOT
ATOM      1  C   UNL     1       6.436   7.144  16.865  0.00  0.00    +0.000 C 
ENDROOT
BRANCH   1   2
ATOM      2  C   UNL     1       7.498   7.612  17.846  0.00  0.00    +0.000 C 
ATOM      3  C   UNL     1       8.072   6.575  18.775  0.00  0.00    +0.000 C 
ATOM      4  C   UNL     1       7.949   8.879  17.820  0.00  0.00    +0.000 C 
BRANCH   4   5
ATOM      5  C   UNL     1       9.056   9.451  18.668  0.00  0.00    +0.000 C 
BRANCH   5   6
ATOM      6  C   UNL     1       9.418  10.864  18.267  0.00  0.00    +0.000 A 
ATOM      7  C   UNL     1      10.735  11.189  17.921  0.00  0.00    +0.000 A 
ATOM      8  C   UNL     1      11.068  12.489  17.539  0.00  0.00    +0.000 A 
ATOM      9  C   UNL     1      10.088  13.479  17.496  0.00  0.00    +0.000 A 
ATOM     10  C   UNL     1       8.765  13.180  17.839  0.00  0.00    +0.000 A 
ATOM     11  C   UNL     1       7.695  14.228  17.783  0.00  0.00    +0.000 C 
ATOM     12  C   UNL     1       8.440  11.872  18.227  0.00  0.00    +0.000 A 
ENDBRANCH   5   6
ENDBRANCH   4   5
ENDBRANCH   1   2
BRANCH   1  13
ATOM     13  C   UNL     1       6.581   5.642  16.599  0.00  0.00    +0.000 C 
BRANCH  13  16
ATOM     14  C   UNL     1       4.690   4.184  17.364  0.00  0.00    +0.000 C 
ATOM     15  C   UNL     1       5.336   4.096  18.727  0.00  0.00    +0.000 C 
ATOM     16  C   UNL     1       5.286   4.901  16.385  0.00  0.00    +0.000 C 
BRANCH  14  17
ATOM     17  C   UNL     1       3.381   3.461  17.083  0.00  0.00    +0.000 C 
BRANCH  17  18
ATOM     18  C   UNL     1       2.179   3.908  17.923  0.00  0.00    +0.000 C 
BRANCH  18  22
ATOM     19  C   UNL     1       2.218   7.418  19.611  0.00  0.00    +0.000 C 
ATOM     20  C   UNL     1       2.139   5.926  19.443  0.00  0.00    +0.000 C 
ATOM     21  C   UNL     1       2.032   5.096  20.692  0.00  0.00    +0.000 C 
ATOM     22  C   UNL     1       2.159   5.382  18.212  0.00  0.00    +0.000 C 
ENDBRANCH  18  22
ENDBRANCH  17  18
ENDBRANCH  14  17
ENDBRANCH  13  16
ENDBRANCH   1  13
TORSDOF 8
ENDMDL
MODEL 3
REMARK VINA RESULT:      -7.1      1.845      3.738
REMARK  Name = 
REMARK  13 active torsions:
REMARK  status: ('A' for Active; 'I' for Inactive)
REMARK    1  A    between atoms: C_1  and  C_2
REMARK    2  A    between atoms: C_2  and  C_3
REMARK    3  A    between atoms: C_4  and  C_5
REMARK    4  A    between atoms: C_5  and  C_6
REMARK    5  A    between atoms: C_6  and  C_7
REMARK    6  A    between atoms: C_7  and  C_8
REMARK    7  A    between atoms: C_9  and  C_10
REMARK    8  A    between atoms: C_10  and  C_11
REMARK    9  A    between atoms: C_11  and  C_12
REMARK   10  A    between atoms: C_12  and  C_13
REMARK   11  A    between atoms: C_14  and  C_15
REMARK   12  A    between atoms: C_15  and  C_16
REMARK   13  A    between atoms: C_20  and  C_21
REMARK                            x       y       z     vdW  Elec       q    Type
REMARK                         _______ _______ _______ _____ _____    ______ ____
ROOT
ATOM      1  C   UNL     1       8.528   8.384  18.924  0.00  0.00    +0.000 C 
ENDROOT
BRANCH   1   2
ATOM      2  C   UNL     1       7.859   7.186  18.270  0.00  0.00    +0.000 C 
ATOM      3  C   UNL     1       7.957   5.870  18.996  0.00  0.00    +0.000 C 
ATOM      4  C   UNL     1       7.152   7.326  17.134  0.00  0.00    +0.000 C 
BRANCH   4   5
ATOM      5  C   UNL     1       6.366   6.249  16.432  0.00  0.00    +0.000 C 
BRANCH   5   6
ATOM      6  C   UNL     1       4.977   6.081  17.007  0.00  0.00    +0.000 A 
ATOM      7  C   UNL     1       4.430   4.803  17.181  0.00  0.00    +0.000 A 
ATOM      8  C   UNL     1       3.154   4.646  17.723  0.00  0.00    +0.000 A 
ATOM      9  C   UNL     1       2.410   5.763  18.099  0.00  0.00    +0.000 A 
ATOM     10  C   UNL     1       2.934   7.049  17.934  0.00  0.00    +0.000 A 
ATOM     11  C   UNL     1       2.155   8.261  18.348  0.00  0.00    +0.000 C 
ATOM     12  C   UNL     1       4.215   7.199  17.384  0.00  0.00    +0.000 A 
ENDBRANCH   5   6
ENDBRANCH   4   5
ENDBRANCH   1   2
BRANCH   1  13
ATOM     13  C   UNL     1       8.449   9.605  18.002  0.00  0.00    +0.000 C 
BRANCH  13  16
ATOM     14  C   UNL     1       9.491  11.882  17.871  0.00  0.00    +0.000 C 
ATOM     15  C   UNL     1       8.144  12.454  17.498  0.00  0.00    +0.000 C 
ATOM     16  C   UNL     1       9.616  10.554  18.095  0.00  0.00    +0.000 C 
BRANCH  14  17
ATOM     17  C   UNL     1      10.709  12.786  17.984  0.00  0.00    +0.000 C 
BRANCH  17  18
ATOM     18  C   UNL     1      11.406  12.798  19.350  0.00  0.00    +0.000 C 
BRANCH  18  22
ATOM     19  C   UNL     1       9.582  14.654  22.247  0.00  0.00    +0.000 C 
ATOM     20  C   UNL     1       9.990  13.563  21.298  0.00  0.00    +0.000 C 
ATOM     21  C   UNL     1       9.389  12.202  21.512  0.00  0.00    +0.000 C 
ATOM     22  C   UNL     1      10.856  13.823  20.300  0.00  0.00    +0.000 C 
ENDBRANCH  18  22
ENDBRANCH  17  18
ENDBRANCH  14  17
ENDBRANCH  13  16
ENDBRANCH   1  13
TORSDOF 8
ENDMDL
MODEL 4
REMARK VINA RESULT:      -7.1      2.785      6.158
REMARK  Name = 
REMARK  13 active torsions:
REMARK  status: ('A' for Active; 'I' for Inactive)
REMARK    1  A    between atoms: C_1  and  C_2
REMARK    2  A    between atoms: C_2  and  C_3
REMARK    3  A    between atoms: C_4  and  C_5
REMARK    4  A    between atoms: C_5  and  C_6
REMARK    5  A    between atoms: C_6  and  C_7
REMARK    6  A    between atoms: C_7  and  C_8
REMARK    7  A    between atoms: C_9  and  C_10
REMARK    8  A    between atoms: C_10  and  C_11
REMARK    9  A    between atoms: C_11  and  C_12
REMARK   10  A    between atoms: C_12  and  C_13
REMARK   11  A    between atoms: C_14  and  C_15
REMARK   12  A    between atoms: C_15  and  C_16
REMARK   13  A    between atoms: C_20  and  C_21
REMARK                            x       y       z     vdW  Elec       q    Type
REMARK                         _______ _______ _______ _____ _____    ______ ____
ROOT
ATOM      1  C   UNL     1       0.631   2.452  19.214  0.00  0.00    +0.000 C 
ENDROOT
BRANCH   1   2
ATOM      2  C   UNL     1       1.145   3.391  20.292  0.00  0.00    +0.000 C 
ATOM      3  C   UNL     1       1.483   2.779  21.626  0.00  0.00    +0.000 C 
ATOM      4  C   UNL     1       1.355   4.694  20.028  0.00  0.00    +0.000 C 
BRANCH   4   5
ATOM      5  C   UNL     1       1.944   5.713  20.970  0.00  0.00    +0.000 C 
BRANCH   5   6
ATOM      6  C   UNL     1       1.578   7.130  20.588  0.00  0.00    +0.000 A 
ATOM      7  C   UNL     1       0.832   7.931  21.462  0.00  0.00    +0.000 A 
ATOM      8  C   UNL     1       0.505   9.243  21.117  0.00  0.00    +0.000 A 
ATOM      9  C   UNL     1       0.919   9.770  19.895  0.00  0.00    +0.000 A 
ATOM     10  C   UNL     1       1.663   8.989  19.004  0.00  0.00    +0.000 A 
ATOM     11  C   UNL     1       2.132   9.545  17.692  0.00  0.00    +0.000 C 
ATOM     12  C   UNL     1       1.984   7.670  19.356  0.00  0.00    +0.000 A 
ENDBRANCH   5   6
ENDBRANCH   4   5
ENDBRANCH   1   2
BRANCH   1  13
ATOM     13  C   UNL     1       1.795   1.923  18.370  0.00  0.00    +0.000 C 
BRANCH  13  16
ATOM     14  C   UNL     1       3.909   3.258  18.173  0.00  0.00    +0.000 C 
ATOM     15  C   UNL     1       3.370   3.885  16.909  0.00  0.00    +0.000 C 
ATOM     16  C   UNL     1       3.166   2.341  18.835  0.00  0.00    +0.000 C 
BRANCH  14  17
ATOM     17  C   UNL     1       5.285   3.639  18.698  0.00  0.00    +0.000 C 
BRANCH  17  18
ATOM     18  C   UNL     1       5.403   5.044  19.299  0.00  0.00    +0.000 C 
BRANCH  18  22
ATOM     19  C   UNL     1       7.725   7.536  17.410  0.00  0.00    +0.000 C 
ATOM     20  C   UNL     1       6.505   6.743  17.788  0.00  0.00    +0.000 C 
ATOM     21  C   UNL     1       5.241   7.014  17.020  0.00  0.00    +0.000 C 
ATOM     22  C   UNL     1       6.572   5.828  18.773  0.00  0.00    +0.000 C 
ENDBRANCH  18  22
ENDBRANCH  17  18
ENDBRANCH  14  17
ENDBRANCH  13  16
ENDBRANCH   1  13
TORSDOF 8
ENDMDL
MODEL 5
REMARK VINA RESULT:      -7.1      3.106      6.272
REMARK  Name = 
REMARK  13 active torsions:
REMARK  status: ('A' for Active; 'I' for Inactive)
REMARK    1  A    between atoms: C_1  and  C_2
REMARK    2  A    between atoms: C_2  and  C_3
REMARK    3  A    between atoms: C_4  and  C_5
REMARK    4  A    between atoms: C_5  and  C_6
REMARK    5  A    between atoms: C_6  and  C_7
REMARK    6  A    between atoms: C_7  and  C_8
REMARK    7  A    between atoms: C_9  and  C_10
REMARK    8  A    between atoms: C_10  and  C_11
REMARK    9  A    between atoms: C_11  and  C_12
REMARK   10  A    between atoms: C_12  and  C_13
REMARK   11  A    between atoms: C_14  and  C_15
REMARK   12  A    between atoms: C_15  and  C_16
REMARK   13  A    between atoms: C_20  and  C_21
REMARK                            x       y       z     vdW  Elec       q    Type
REMARK                         _______ _______ _______ _____ _____    ______ ____
ROOT
ATOM      1  C   UNL     1       1.015   2.755  19.904  0.00  0.00    +0.000 C 
ENDROOT
BRANCH   1   2
ATOM      2  C   UNL     1       1.739   3.951  20.500  0.00  0.00    +0.000 C 
ATOM      3  C   UNL     1       3.151   3.727  20.972  0.00  0.00    +0.000 C 
ATOM      4  C   UNL     1       1.158   5.164  20.528  0.00  0.00    +0.000 C 
BRANCH   4   5
ATOM      5  C   UNL     1       1.791   6.447  21.002  0.00  0.00    +0.000 C 
BRANCH   5   6
ATOM      6  C   UNL     1       1.854   7.496  19.914  0.00  0.00    +0.000 A 
ATOM      7  C   UNL     1       2.587   7.263  18.744  0.00  0.00    +0.000 A 
ATOM      8  C   UNL     1       2.635   8.224  17.734  0.00  0.00    +0.000 A 
ATOM      9  C   UNL     1       1.950   9.429  17.880  0.00  0.00    +0.000 A 
ATOM     10  C   UNL     1       1.212   9.686  19.041  0.00  0.00    +0.000 A 
ATOM     11  C   UNL     1       0.455  10.970  19.208  0.00  0.00    +0.000 C 
ATOM     12  C   UNL     1       1.173   8.717  20.053  0.00  0.00    +0.000 A 
ENDBRANCH   5   6
ENDBRANCH   4   5
ENDBRANCH   1   2
BRANCH   1  13
ATOM     13  C   UNL     1       0.960   2.873  18.378  0.00  0.00    +0.000 C 
BRANCH  13  16
ATOM     14  C   UNL     1       3.163   3.596  17.421  0.00  0.00    +0.000 C 
ATOM     15  C   UNL     1       3.691   2.197  17.634  0.00  0.00    +0.000 C 
ATOM     16  C   UNL     1       1.893   3.895  17.780  0.00  0.00    +0.000 C 
BRANCH  14  17
ATOM     17  C   UNL     1       4.052   4.673  16.819  0.00  0.00    +0.000 C 
BRANCH  17  18
ATOM     18  C   UNL     1       5.524   4.291  16.624  0.00  0.00    +0.000 C 
BRANCH  18  22
ATOM     19  C   UNL     1       7.763   5.729  19.467  0.00  0.00    +0.000 C 
ATOM     20  C   UNL     1       7.028   5.616  18.161  0.00  0.00    +0.000 C 
ATOM     21  C   UNL     1       7.079   6.801  17.237  0.00  0.00    +0.000 C 
ATOM     22  C   UNL     1       6.366   4.486  17.852  0.00  0.00    +0.000 C 
ENDBRANCH  18  22
ENDBRANCH  17  18
ENDBRANCH  14  17
ENDBRANCH  13  16
ENDBRANCH   1  13
TORSDOF 8
ENDMDL
MODEL 6
REMARK VINA RESULT:      -7.1      4.329      8.697
REMARK  Name = 
REMARK  13 active torsions:
REMARK  status: ('A' for Active; 'I' for Inactive)
REMARK    1  A    between atoms: C_1  and  C_2
REMARK    2  A    between atoms: C_2  and  C_3
REMARK    3  A    between atoms: C_4  and  C_5
REMARK    4  A    between atoms: C_5  and  C_6
REMARK    5  A    between atoms: C_6  and  C_7
REMARK    6  A    between atoms: C_7  and  C_8
REMARK    7  A    between atoms: C_9  and  C_10
REMARK    8  A    between atoms: C_10  and  C_11
REMARK    9  A    between atoms: C_11  and  C_12
REMARK   10  A    between atoms: C_12  and  C_13
REMARK   11  A    between atoms: C_14  and  C_15
REMARK   12  A    between atoms: C_15  and  C_16
REMARK   13  A    between atoms: C_20  and  C_21
REMARK                            x       y       z     vdW  Elec       q    Type
REMARK                         _______ _______ _______ _____ _____    ______ ____
ROOT
ATOM      1  C   UNL     1       2.577   8.658  17.680  0.00  0.00    +0.000 C 
ENDROOT
BRANCH   1   2
ATOM      2  C   UNL     1       1.642   9.804  18.030  0.00  0.00    +0.000 C 
ATOM      3  C   UNL     1       2.239  11.186  18.058  0.00  0.00    +0.000 C 
ATOM      4  C   UNL     1       0.330   9.586  18.229  0.00  0.00    +0.000 C 
BRANCH   4   5
ATOM      5  C   UNL     1      -0.720  10.636  18.491  0.00  0.00    +0.000 C 
BRANCH   5   6
ATOM      6  C   UNL     1      -0.858  10.959  19.963  0.00  0.00    +0.000 A 
ATOM      7  C   UNL     1      -1.513  12.126  20.375  0.00  0.00    +0.000 A 
ATOM      8  C   UNL     1      -1.652  12.418  21.732  0.00  0.00    +0.000 A 
ATOM      9  C   UNL     1      -1.140  11.548  22.693  0.00  0.00    +0.000 A 
ATOM     10  C   UNL     1      -0.480  10.377  22.306  0.00  0.00    +0.000 A 
ATOM     11  C   UNL     1       0.062   9.421  23.325  0.00  0.00    +0.000 C 
ATOM     12  C   UNL     1      -0.341  10.092  20.940  0.00  0.00    +0.000 A 
ENDBRANCH   5   6
ENDBRANCH   4   5
ENDBRANCH   1   2
BRANCH   1  13
ATOM     13  C   UNL     1       2.438   7.526  18.704  0.00  0.00    +0.000 C 
BRANCH  13  16
ATOM     14  C   UNL     1       3.422   5.363  17.903  0.00  0.00    +0.000 C 
ATOM     15  C   UNL     1       4.798   5.889  18.239  0.00  0.00    +0.000 C 
ATOM     16  C   UNL     1       2.337   6.141  18.118  0.00  0.00    +0.000 C 
BRANCH  14  17
ATOM     17  C   UNL     1       3.251   3.972  17.312  0.00  0.00    +0.000 C 
BRANCH  17  18
ATOM     18  C   UNL     1       3.621   2.806  18.236  0.00  0.00    +0.000 C 
BRANCH  18  22
ATOM     19  C   UNL     1       1.373   2.777  21.417  0.00  0.00    +0.000 C 
ATOM     20  C   UNL     1       1.790   2.703  19.975  0.00  0.00    +0.000 C 
ATOM     21  C   UNL     1       0.727   2.367  18.966  0.00  0.00    +0.000 C 
ATOM     22  C   UNL     1       3.069   2.940  19.627  0.00  0.00    +0.000 C 
ENDBRANCH  18  22
ENDBRANCH  17  18
ENDBRANCH  14  17
ENDBRANCH  13  16
ENDBRANCH   1  13
TORSDOF 8
ENDMDL
MODEL 7
REMARK VINA RESULT:      -7.1      1.523      9.274
REMARK  Name = 
REMARK  13 active torsions:
REMARK  status: ('A' for Active; 'I' for Inactive)
REMARK    1  A    between atoms: C_1  and  C_2
REMARK    2  A    between atoms: C_2  and  C_3
REMARK    3  A    between atoms: C_4  and  C_5
REMARK    4  A    between atoms: C_5  and  C_6
REMARK    5  A    between atoms: C_6  and  C_7
REMARK    6  A    between atoms: C_7  and  C_8
REMARK    7  A    between atoms: C_9  and  C_10
REMARK    8  A    between atoms: C_10  and  C_11
REMARK    9  A    between atoms: C_11  and  C_12
REMARK   10  A    between atoms: C_12  and  C_13
REMARK   11  A    between atoms: C_14  and  C_15
REMARK   12  A    between atoms: C_15  and  C_16
REMARK   13  A    between atoms: C_20  and  C_21
REMARK                            x       y       z     vdW  Elec       q    Type
REMARK                         _______ _______ _______ _____ _____    ______ ____
ROOT
ATOM      1  C   UNL     1       6.455   7.422  16.781  0.00  0.00    +0.000 C 
ENDROOT
BRANCH   1   2
ATOM      2  C   UNL     1       7.504   7.683  17.849  0.00  0.00    +0.000 C 
ATOM      3  C   UNL     1       7.957   6.501  18.664  0.00  0.00    +0.000 C 
ATOM      4  C   UNL     1       8.049   8.905  17.996  0.00  0.00    +0.000 C 
BRANCH   4   5
ATOM      5  C   UNL     1       9.157   9.281  18.945  0.00  0.00    +0.000 C 
BRANCH   5   6
ATOM      6  C   UNL     1       9.363  10.778  19.026  0.00  0.00    +0.000 A 
ATOM      7  C   UNL     1       9.489  11.542  17.859  0.00  0.00    +0.000 A 
ATOM      8  C   UNL     1       9.666  12.923  17.932  0.00  0.00    +0.000 A 
ATOM      9  C   UNL     1       9.719  13.559  19.171  0.00  0.00    +0.000 A 
ATOM     10  C   UNL     1       9.599  12.818  20.351  0.00  0.00    +0.000 A 
ATOM     11  C   UNL     1       9.636  13.487  21.693  0.00  0.00    +0.000 C 
ATOM     12  C   UNL     1       9.425  11.429  20.270  0.00  0.00    +0.000 A 
ENDBRANCH   5   6
ENDBRANCH   4   5
ENDBRANCH   1   2
BRANCH   1  13
ATOM     13  C   UNL     1       5.876   6.013  16.937  0.00  0.00    +0.000 C 
BRANCH  13  16
ATOM     14  C   UNL     1       3.707   5.744  18.166  0.00  0.00    +0.000 C 
ATOM     15  C   UNL     1       4.480   5.572  19.452  0.00  0.00    +0.000 C 
ATOM     16  C   UNL     1       4.372   5.941  17.005  0.00  0.00    +0.000 C 
BRANCH  14  17
ATOM     17  C   UNL     1       2.187   5.685  18.166  0.00  0.00    +0.000 C 
BRANCH  17  18
ATOM     18  C   UNL     1       1.570   4.392  17.619  0.00  0.00    +0.000 C 
BRANCH  18  22
ATOM     19  C   UNL     1       3.656   1.192  18.377  0.00  0.00    +0.000 C 
ATOM     20  C   UNL     1       2.738   2.365  18.574  0.00  0.00    +0.000 C 
ATOM     21  C   UNL     1       2.085   2.511  19.920  0.00  0.00    +0.000 C 
ATOM     22  C   UNL     1       2.532   3.239  17.571  0.00  0.00    +0.000 C 
ENDBRANCH  18  22
ENDBRANCH  17  18
ENDBRANCH  14  17
ENDBRANCH  13  16
ENDBRANCH   1  13
TORSDOF 8
ENDMDL
MODEL 8
REMARK VINA RESULT:      -7.0      1.530      9.210
REMARK  Name = 
REMARK  13 active torsions:
REMARK  status: ('A' for Active; 'I' for Inactive)
REMARK    1  A    between atoms: C_1  and  C_2
REMARK    2  A    between atoms: C_2  and  C_3
REMARK    3  A    between atoms: C_4  and  C_5
REMARK    4  A    between atoms: C_5  and  C_6
REMARK    5  A    between atoms: C_6  and  C_7
REMARK    6  A    between atoms: C_7  and  C_8
REMARK    7  A    between atoms: C_9  and  C_10
REMARK    8  A    between atoms: C_10  and  C_11
REMARK    9  A    between atoms: C_11  and  C_12
REMARK   10  A    between atoms: C_12  and  C_13
REMARK   11  A    between atoms: C_14  and  C_15
REMARK   12  A    between atoms: C_15  and  C_16
REMARK   13  A    between atoms: C_20  and  C_21
REMARK                            x       y       z     vdW  Elec       q    Type
REMARK                         _______ _______ _______ _____ _____    ______ ____
ROOT
ATOM      1  C   UNL     1       6.036   6.878  17.026  0.00  0.00    +0.000 C 
ENDROOT
BRANCH   1   2
ATOM      2  C   UNL     1       7.230   7.227  17.899  0.00  0.00    +0.000 C 
ATOM      3  C   UNL     1       7.822   6.114  18.723  0.00  0.00    +0.000 C 
ATOM      4  C   UNL     1       7.769   8.459  17.867  0.00  0.00    +0.000 C 
BRANCH   4   5
ATOM      5  C   UNL     1       9.002   8.915  18.606  0.00  0.00    +0.000 C 
BRANCH   5   6
ATOM      6  C   UNL     1       9.031  10.414  18.809  0.00  0.00    +0.000 A 
ATOM      7  C   UNL     1       8.722  11.280  17.752  0.00  0.00    +0.000 A 
ATOM      8  C   UNL     1       8.736  12.662  17.942  0.00  0.00    +0.000 A 
ATOM      9  C   UNL     1       9.057  13.195  19.189  0.00  0.00    +0.000 A 
ATOM     10  C   UNL     1       9.371  12.351  20.259  0.00  0.00    +0.000 A 
ATOM     11  C   UNL     1       9.702  12.907  21.612  0.00  0.00    +0.000 C 
ATOM     12  C   UNL     1       9.359  10.963  20.060  0.00  0.00    +0.000 A 
ENDBRANCH   5   6
ENDBRANCH   4   5
ENDBRANCH   1   2
BRANCH   1  13
ATOM     13  C   UNL     1       4.934   6.228  17.868  0.00  0.00    +0.000 C 
BRANCH  13  16
ATOM     14  C   UNL     1       3.181   4.496  17.402  0.00  0.00    +0.000 C 
ATOM     15  C   UNL     1       2.129   5.452  17.914  0.00  0.00    +0.000 C 
ATOM     16  C   UNL     1       4.481   4.871  17.395  0.00  0.00    +0.000 C 
BRANCH  14  17
ATOM     17  C   UNL     1       2.790   3.112  16.907  0.00  0.00    +0.000 C 
BRANCH  17  18
ATOM     18  C   UNL     1       2.077   2.217  17.928  0.00  0.00    +0.000 C 
BRANCH  18  22
ATOM     19  C   UNL     1       2.633   2.698  21.752  0.00  0.00    +0.000 C 
ATOM     20  C   UNL     1       1.985   2.745  20.397  0.00  0.00    +0.000 C 
ATOM     21  C   UNL     1       0.591   3.302  20.318  0.00  0.00    +0.000 C 
ATOM     22  C   UNL     1       2.651   2.304  19.313  0.00  0.00    +0.000 C 
ENDBRANCH  18  22
ENDBRANCH  17  18
ENDBRANCH  14  17
ENDBRANCH  13  16
ENDBRANCH   1  13
TORSDOF 8
ENDMDL
MODEL 9
REMARK VINA RESULT:      -7.0      3.855      7.406
REMARK  Name = 
REMARK  13 active torsions:
REMARK  status: ('A' for Active; 'I' for Inactive)
REMARK    1  A    between atoms: C_1  and  C_2
REMARK    2  A    between atoms: C_2  and  C_3
REMARK    3  A    between atoms: C_4  and  C_5
REMARK    4  A    between atoms: C_5  and  C_6
REMARK    5  A    between atoms: C_6  and  C_7
REMARK    6  A    between atoms: C_7  and  C_8
REMARK    7  A    between atoms: C_9  and  C_10
REMARK    8  A    between atoms: C_10  and  C_11
REMARK    9  A    between atoms: C_11  and  C_12
REMARK   10  A    between atoms: C_12  and  C_13
REMARK   11  A    between atoms: C_14  and  C_15
REMARK   12  A    between atoms: C_15  and  C_16
REMARK   13  A    between atoms: C_20  and  C_21
REMARK                            x       y       z     vdW  Elec       q    Type
REMARK                         _______ _______ _______ _____ _____    ______ ____
ROOT
ATOM      1  C   UNL     1       5.923   5.812  17.624  0.00  0.00    +0.000 C 
ENDROOT
BRANCH   1   2
ATOM      2  C   UNL     1       4.831   6.709  17.064  0.00  0.00    +0.000 C 
ATOM      3  C   UNL     1       4.858   6.974  15.582  0.00  0.00    +0.000 C 
ATOM      4  C   UNL     1       3.848   7.175  17.857  0.00  0.00    +0.000 C 
BRANCH   4   5
ATOM      5  C   UNL     1       2.660   7.993  17.421  0.00  0.00    +0.000 C 
BRANCH   5   6
ATOM      6  C   UNL     1       1.855   8.511  18.593  0.00  0.00    +0.000 A 
ATOM      7  C   UNL     1       1.957   7.900  19.849  0.00  0.00    +0.000 A 
ATOM      8  C   UNL     1       1.225   8.384  20.933  0.00  0.00    +0.000 A 
ATOM      9  C   UNL     1       0.384   9.485  20.776  0.00  0.00    +0.000 A 
ATOM     10  C   UNL     1       0.263  10.110  19.531  0.00  0.00    +0.000 A 
ATOM     11  C   UNL     1      -0.623  11.305  19.347  0.00  0.00    +0.000 C 
ATOM     12  C   UNL     1       0.999   9.614  18.445  0.00  0.00    +0.000 A 
ENDBRANCH   5   6
ENDBRANCH   4   5
ENDBRANCH   1   2
BRANCH   1  13
ATOM     13  C   UNL     1       5.902   4.449  16.924  0.00  0.00    +0.000 C 
BRANCH  13  16
ATOM     14  C   UNL     1       3.885   3.186  17.715  0.00  0.00    +0.000 C 
ATOM     15  C   UNL     1       4.545   3.016  19.063  0.00  0.00    +0.000 C 
ATOM     16  C   UNL     1       4.533   3.849  16.730  0.00  0.00    +0.000 C 
BRANCH  14  17
ATOM     17  C   UNL     1       2.503   2.607  17.454  0.00  0.00    +0.000 C 
BRANCH  17  18
ATOM     18  C   UNL     1       1.363   3.198  18.293  0.00  0.00    +0.000 C 
BRANCH  18  22
ATOM     19  C   UNL     1       1.198   2.523  22.126  0.00  0.00    +0.000 C 
ATOM     20  C   UNL     1       1.451   3.220  20.819  0.00  0.00    +0.000 C 
ATOM     21  C   UNL     1       1.955   4.636  20.878  0.00  0.00    +0.000 C 
ATOM     22  C   UNL     1       1.234   2.578  19.656  0.00  0.00    +0.000 C 
ENDBRANCH  18  22
ENDBRANCH  17  18
ENDBRANCH  14  17
ENDBRANCH  13  16
ENDBRANCH   1  13
TORSDOF 8
ENDMDL
