MODEL 1
REMARK VINA RESULT:      -7.9      0.000      0.000
REMARK  Name = 
REMARK  4 active torsions:
REMARK  status: ('A' for Active; 'I' for Inactive)
REMARK    1  A    between atoms: N_7  and  C_8
REMARK    2  A    between atoms: C_11  and  S_12
REMARK    3  A    between atoms: S_12  and  C_13
REMARK    4  A    between atoms: C_13  and  C_14
REMARK                            x       y       z     vdW  Elec       q    Type
REMARK                         _______ _______ _______ _____ _____    ______ ____
ROOT
ATOM      1  C   UNL     1       2.572   6.140  18.979  0.00  0.00    +0.000 A 
ATOM      2  C   UNL     1       2.528   7.371  18.293  0.00  0.00    +0.000 A 
ATOM      3  C   UNL     1       1.950   8.497  18.882  0.00  0.00    +0.000 A 
ATOM      4  C   UNL     1       1.402   8.423  20.167  0.00  0.00    +0.000 A 
ATOM      5  C   UNL     1       1.443   7.205  20.861  0.00  0.00    +0.000 A 
ATOM      6  C   UNL     1       2.013   6.068  20.268  0.00  0.00    +0.000 A 
ENDROOT
BRANCH   1  13
ATOM      7  N   UNL     1       4.704   2.794  19.199  0.00  0.00    +0.000 NA
ATOM      8  C   UNL     1       3.929   2.019  18.526  0.00  0.00    +0.000 C 
ATOM      9  N   UNL     1       4.174   0.620  18.513  0.00  0.00    +0.000 N 
ATOM     10  N   UNL     1       2.791   2.535  17.831  0.00  0.00    +0.000 N 
ATOM     11  C   UNL     1       2.317   3.889  17.872  0.00  0.00    +0.000 C 
ATOM     12  N   UNL     1       1.148   4.151  17.401  0.00  0.00    +0.000 NA
ATOM     13  N   UNL     1       3.120   4.966  18.372  0.00  0.00    +0.000 N 
ATOM     14  H   UNL     1       5.516   2.423  19.717  0.00  0.00    +0.000 HD
ATOM     15  H   UNL     1       4.968   0.219  19.031  0.00  0.00    +0.000 HD
ATOM     16  H   UNL     1       3.537  -0.017  18.015  0.00  0.00    +0.000 HD
ATOM     17  H   UNL     1       2.191   1.839  17.362  0.00  0.00    +0.000 HD
ATOM     18  H   UNL     1       0.542   3.419  17.002  0.00  0.00    +0.000 HD
ATOM     19  H   UNL     1       4.140   4.920  18.244  0.00  0.00    +0.000 HD
ENDBRANCH   1  13
BRANCH   4  20
ATOM     20  S   UNL     1       0.682   9.887  20.941  0.00  0.00    +0.000 S 
BRANCH  20  21
ATOM     21  C   UNL     1       0.658  10.954  19.450  0.00  0.00    +0.000 C 
BRANCH  21  22
ATOM     22  C   UNL     1      -0.760  11.111  18.946  0.00  0.00    +0.000 A 
ATOM     23  C   UNL     1      -1.155  10.554  17.712  0.00  0.00    +0.000 A 
ATOM     24  C   UNL     1      -2.468  10.706  17.253  0.00  0.00    +0.000 A 
ATOM     25 BR   UNL     1      -2.993   9.953  15.577  0.00  0.00    +0.000 Br
ATOM     26  C   UNL     1      -3.401  11.408  18.021  0.00  0.00    +0.000 A 
ATOM     27  C   UNL     1      -3.023  11.960  19.248  0.00  0.00    +0.000 A 
ATOM     28 BR   UNL     1      -4.304  12.916  20.294  0.00  0.00    +0.000 Br
ATOM     29  C   UNL     1      -1.710  11.813  19.710  0.00  0.00    +0.000 A 
ENDBRANCH  21  22
ENDBRANCH  20  21
ENDBRANCH   4  20
TORSDOF 4
ENDMDL
MODEL 2
REMARK VINA RESULT:      -7.7      1.132      2.694
REMARK  Name = 
REMARK  4 active torsions:
REMARK  status: ('A' for Active; 'I' for Inactive)
REMARK    1  A    between atoms: N_7  and  C_8
REMARK    2  A    between atoms: C_11  and  S_12
REMARK    3  A    between atoms: S_12  and  C_13
REMARK    4  A    between atoms: C_13  and  C_14
REMARK                            x       y       z     vdW  Elec       q    Type
REMARK                         _______ _______ _______ _____ _____    ______ ____
ROOT
ATOM      1  C   UNL     1       2.571   6.161  19.402  0.00  0.00    +0.000 A 
ATOM      2  C   UNL     1       1.972   6.968  20.391  0.00  0.00    +0.000 A 
ATOM      3  C   UNL     1       1.600   8.284  20.112  0.00  0.00    +0.000 A 
ATOM      4  C   UNL     1       1.815   8.826  18.840  0.00  0.00    +0.000 A 
ATOM      5  C   UNL     1       2.406   8.032  17.847  0.00  0.00    +0.000 A 
ATOM      6  C   UNL     1       2.791   6.713  18.128  0.00  0.00    +0.000 A 
ENDROOT
BRANCH   1  13
ATOM      7  N   UNL     1       2.407   2.248  18.728  0.00  0.00    +0.000 NA
ATOM      8  C   UNL     1       3.667   1.988  18.755  0.00  0.00    +0.000 C 
ATOM      9  N   UNL     1       4.129   0.711  18.338  0.00  0.00    +0.000 N 
ATOM     10  N   UNL     1       4.617   2.982  19.148  0.00  0.00    +0.000 N 
ATOM     11  C   UNL     1       4.331   4.356  19.444  0.00  0.00    +0.000 C 
ATOM     12  N   UNL     1       5.310   5.186  19.539  0.00  0.00    +0.000 NA
ATOM     13  N   UNL     1       2.999   4.826  19.687  0.00  0.00    +0.000 N 
ATOM     14  H   UNL     1       1.720   1.539  18.428  0.00  0.00    +0.000 HD
ATOM     15  H   UNL     1       3.469  -0.011  18.021  0.00  0.00    +0.000 HD
ATOM     16  H   UNL     1       5.137   0.505  18.313  0.00  0.00    +0.000 HD
ATOM     17  H   UNL     1       5.611   2.709  19.088  0.00  0.00    +0.000 HD
ATOM     18  H   UNL     1       6.290   4.896  19.404  0.00  0.00    +0.000 HD
ATOM     19  H   UNL     1       2.326   4.189  20.135  0.00  0.00    +0.000 HD
ENDBRANCH   1  13
BRANCH   4  20
ATOM     20  S   UNL     1       1.305  10.518  18.469  0.00  0.00    +0.000 S 
BRANCH  20  21
ATOM     21  C   UNL     1      -0.086  10.612  19.659  0.00  0.00    +0.000 C 
BRANCH  21  22
ATOM     22  C   UNL     1      -1.381  10.886  18.925  0.00  0.00    +0.000 A 
ATOM     23  C   UNL     1      -2.431  11.592  19.548  0.00  0.00    +0.000 A 
ATOM     24  C   UNL     1      -3.625  11.839  18.862  0.00  0.00    +0.000 A 
ATOM     25 BR   UNL     1      -5.044  12.791  19.718  0.00  0.00    +0.000 Br
ATOM     26  C   UNL     1      -3.783  11.391  17.549  0.00  0.00    +0.000 A 
ATOM     27  C   UNL     1      -2.748  10.695  16.918  0.00  0.00    +0.000 A 
ATOM     28 BR   UNL     1      -2.969  10.087  15.120  0.00  0.00    +0.000 Br
ATOM     29  C   UNL     1      -1.552  10.443  17.600  0.00  0.00    +0.000 A 
ENDBRANCH  21  22
ENDBRANCH  20  21
ENDBRANCH   4  20
TORSDOF 4
ENDMDL
MODEL 3
REMARK VINA RESULT:      -7.6      1.185      2.564
REMARK  Name = 
REMARK  4 active torsions:
REMARK  status: ('A' for Active; 'I' for Inactive)
REMARK    1  A    between atoms: N_7  and  C_8
REMARK    2  A    between atoms: C_11  and  S_12
REMARK    3  A    between atoms: S_12  and  C_13
REMARK    4  A    between atoms: C_13  and  C_14
REMARK                            x       y       z     vdW  Elec       q    Type
REMARK                         _______ _______ _______ _____ _____    ______ ____
ROOT
ATOM      1  C   UNL     1       2.696   6.307  19.412  0.00  0.00    +0.000 A 
ATOM      2  C   UNL     1       2.880   6.917  18.154  0.00  0.00    +0.000 A 
ATOM      3  C   UNL     1       2.387   8.199  17.902  0.00  0.00    +0.000 A 
ATOM      4  C   UNL     1       1.699   8.903  18.898  0.00  0.00    +0.000 A 
ATOM      5  C   UNL     1       1.514   8.307  20.154  0.00  0.00    +0.000 A 
ATOM      6  C   UNL     1       1.998   7.015  20.407  0.00  0.00    +0.000 A 
ENDROOT
BRANCH   1  13
ATOM      7  N   UNL     1       2.432   2.380  18.871  0.00  0.00    +0.000 NA
ATOM      8  C   UNL     1       3.683   2.113  18.732  0.00  0.00    +0.000 C 
ATOM      9  N   UNL     1       4.080   0.822  18.290  0.00  0.00    +0.000 N 
ATOM     10  N   UNL     1       4.680   3.110  18.965  0.00  0.00    +0.000 N 
ATOM     11  C   UNL     1       4.441   4.494  19.260  0.00  0.00    +0.000 C 
ATOM     12  N   UNL     1       5.426   5.320  19.199  0.00  0.00    +0.000 NA
ATOM     13  N   UNL     1       3.156   4.978  19.671  0.00  0.00    +0.000 N 
ATOM     14  H   UNL     1       1.708   1.668  18.686  0.00  0.00    +0.000 HD
ATOM     15  H   UNL     1       3.381   0.096  18.086  0.00  0.00    +0.000 HD
ATOM     16  H   UNL     1       5.075   0.609  18.133  0.00  0.00    +0.000 HD
ATOM     17  H   UNL     1       5.656   2.830  18.777  0.00  0.00    +0.000 HD
ATOM     18  H   UNL     1       6.377   5.020  18.939  0.00  0.00    +0.000 HD
ATOM     19  H   UNL     1       2.549   4.357  20.223  0.00  0.00    +0.000 HD
ENDBRANCH   1  13
BRANCH   4  20
ATOM     20  S   UNL     1       1.088  10.572  18.582  0.00  0.00    +0.000 S 
BRANCH  20  21
ATOM     21  C   UNL     1      -0.413  10.476  19.630  0.00  0.00    +0.000 C 
BRANCH  21  22
ATOM     22  C   UNL     1      -1.645  10.779  18.805  0.00  0.00    +0.000 A 
ATOM     23  C   UNL     1      -2.715  11.520  19.348  0.00  0.00    +0.000 A 
ATOM     24  C   UNL     1      -3.850  11.794  18.577  0.00  0.00    +0.000 A 
ATOM     25 BR   UNL     1      -5.298  12.793  19.323  0.00  0.00    +0.000 Br
ATOM     26  C   UNL     1      -3.928  11.338  17.259  0.00  0.00    +0.000 A 
ATOM     27  C   UNL     1      -2.871  10.607  16.708  0.00  0.00    +0.000 A 
ATOM     28 BR   UNL     1      -2.983   9.990  14.904  0.00  0.00    +0.000 Br
ATOM     29  C   UNL     1      -1.734  10.329  17.475  0.00  0.00    +0.000 A 
ENDBRANCH  21  22
ENDBRANCH  20  21
ENDBRANCH   4  20
TORSDOF 4
ENDMDL
MODEL 4
REMARK VINA RESULT:      -7.6      1.124      1.852
REMARK  Name = 
REMARK  4 active torsions:
REMARK  status: ('A' for Active; 'I' for Inactive)
REMARK    1  A    between atoms: N_7  and  C_8
REMARK    2  A    between atoms: C_11  and  S_12
REMARK    3  A    between atoms: S_12  and  C_13
REMARK    4  A    between atoms: C_13  and  C_14
REMARK                            x       y       z     vdW  Elec       q    Type
REMARK                         _______ _______ _______ _____ _____    ______ ____
ROOT
ATOM      1  C   UNL     1       2.590   6.164  19.362  0.00  0.00    +0.000 A 
ATOM      2  C   UNL     1       1.998   6.987  20.341  0.00  0.00    +0.000 A 
ATOM      3  C   UNL     1       1.639   8.304  20.046  0.00  0.00    +0.000 A 
ATOM      4  C   UNL     1       1.863   8.831  18.769  0.00  0.00    +0.000 A 
ATOM      5  C   UNL     1       2.448   8.020  17.786  0.00  0.00    +0.000 A 
ATOM      6  C   UNL     1       2.820   6.700  18.082  0.00  0.00    +0.000 A 
ENDROOT
BRANCH   1  13
ATOM      7  N   UNL     1       2.415   2.249  18.707  0.00  0.00    +0.000 NA
ATOM      8  C   UNL     1       3.672   1.981  18.759  0.00  0.00    +0.000 C 
ATOM      9  N   UNL     1       4.134   0.699  18.358  0.00  0.00    +0.000 N 
ATOM     10  N   UNL     1       4.621   2.971  19.164  0.00  0.00    +0.000 N 
ATOM     11  C   UNL     1       4.338   4.349  19.446  0.00  0.00    +0.000 C 
ATOM     12  N   UNL     1       5.321   5.173  19.555  0.00  0.00    +0.000 NA
ATOM     13  N   UNL     1       3.005   4.828  19.662  0.00  0.00    +0.000 N 
ATOM     14  H   UNL     1       1.728   1.542  18.399  0.00  0.00    +0.000 HD
ATOM     15  H   UNL     1       3.474  -0.022  18.033  0.00  0.00    +0.000 HD
ATOM     16  H   UNL     1       5.140   0.485  18.353  0.00  0.00    +0.000 HD
ATOM     17  H   UNL     1       5.614   2.691  19.124  0.00  0.00    +0.000 HD
ATOM     18  H   UNL     1       6.301   4.876  19.440  0.00  0.00    +0.000 HD
ATOM     19  H   UNL     1       2.320   4.198  20.101  0.00  0.00    +0.000 HD
ENDBRANCH   1  13
BRANCH   4  20
ATOM     20  S   UNL     1       1.371  10.523  18.378  0.00  0.00    +0.000 S 
BRANCH  20  21
ATOM     21  C   UNL     1       0.017  10.666  19.606  0.00  0.00    +0.000 C 
BRANCH  21  22
ATOM     22  C   UNL     1      -1.298  10.922  18.903  0.00  0.00    +0.000 A 
ATOM     23  C   UNL     1      -1.519  10.460  17.590  0.00  0.00    +0.000 A 
ATOM     24  C   UNL     1      -2.738  10.703  16.948  0.00  0.00    +0.000 A 
ATOM     25 BR   UNL     1      -3.026  10.078  15.165  0.00  0.00    +0.000 Br
ATOM     26  C   UNL     1      -3.750  11.403  17.610  0.00  0.00    +0.000 A 
ATOM     27  C   UNL     1      -3.546  11.861  18.914  0.00  0.00    +0.000 A 
ATOM     28 BR   UNL     1      -4.935  12.814  19.815  0.00  0.00    +0.000 Br
ATOM     29  C   UNL     1      -2.327  11.622  19.560  0.00  0.00    +0.000 A 
ENDBRANCH  21  22
ENDBRANCH  20  21
ENDBRANCH   4  20
TORSDOF 4
ENDMDL
MODEL 5
REMARK VINA RESULT:      -7.6      1.168      1.673
REMARK  Name = 
REMARK  4 active torsions:
REMARK  status: ('A' for Active; 'I' for Inactive)
REMARK    1  A    between atoms: N_7  and  C_8
REMARK    2  A    between atoms: C_11  and  S_12
REMARK    3  A    between atoms: S_12  and  C_13
REMARK    4  A    between atoms: C_13  and  C_14
REMARK                            x       y       z     vdW  Elec       q    Type
REMARK                         _______ _______ _______ _____ _____    ______ ____
ROOT
ATOM      1  C   UNL     1       2.947   6.052  19.289  0.00  0.00    +0.000 A 
ATOM      2  C   UNL     1       3.284   6.626  18.046  0.00  0.00    +0.000 A 
ATOM      3  C   UNL     1       2.855   7.913  17.712  0.00  0.00    +0.000 A 
ATOM      4  C   UNL     1       2.079   8.656  18.609  0.00  0.00    +0.000 A 
ATOM      5  C   UNL     1       1.740   8.097  19.850  0.00  0.00    +0.000 A 
ATOM      6  C   UNL     1       2.161   6.801  20.184  0.00  0.00    +0.000 A 
ENDROOT
BRANCH   1  13
ATOM      7  N   UNL     1       2.613   2.119  18.841  0.00  0.00    +0.000 NA
ATOM      8  C   UNL     1       3.862   1.813  18.825  0.00  0.00    +0.000 C 
ATOM      9  N   UNL     1       4.258   0.499  18.458  0.00  0.00    +0.000 N 
ATOM     10  N   UNL     1       4.864   2.789  19.117  0.00  0.00    +0.000 N 
ATOM     11  C   UNL     1       4.642   4.188  19.349  0.00  0.00    +0.000 C 
ATOM     12  N   UNL     1       5.654   4.984  19.353  0.00  0.00    +0.000 NA
ATOM     13  N   UNL     1       3.340   4.719  19.627  0.00  0.00    +0.000 N 
ATOM     14  H   UNL     1       1.887   1.421  18.613  0.00  0.00    +0.000 HD
ATOM     15  H   UNL     1       3.558  -0.214  18.212  0.00  0.00    +0.000 HD
ATOM     16  H   UNL     1       5.256   0.253  18.398  0.00  0.00    +0.000 HD
ATOM     17  H   UNL     1       5.844   2.476  19.027  0.00  0.00    +0.000 HD
ATOM     18  H   UNL     1       6.614   4.650  19.189  0.00  0.00    +0.000 HD
ATOM     19  H   UNL     1       2.668   4.133  20.140  0.00  0.00    +0.000 HD
ENDBRANCH   1  13
BRANCH   4  20
ATOM     20  S   UNL     1       1.550  10.331  18.190  0.00  0.00    +0.000 S 
BRANCH  20  21
ATOM     21  C   UNL     1       0.288  10.516  19.508  0.00  0.00    +0.000 C 
BRANCH  21  22
ATOM     22  C   UNL     1      -1.059  10.836  18.897  0.00  0.00    +0.000 A 
ATOM     23  C   UNL     1      -1.391  10.387  17.602  0.00  0.00    +0.000 A 
ATOM     24  C   UNL     1      -2.639  10.689  17.045  0.00  0.00    +0.000 A 
ATOM     25 BR   UNL     1      -3.077  10.082  15.287  0.00  0.00    +0.000 Br
ATOM     26  C   UNL     1      -3.568  11.434  17.774  0.00  0.00    +0.000 A 
ATOM     27  C   UNL     1      -3.254  11.880  19.061  0.00  0.00    +0.000 A 
ATOM     28 BR   UNL     1      -4.531  12.896  20.054  0.00  0.00    +0.000 Br
ATOM     29  C   UNL     1      -2.006  11.582  19.622  0.00  0.00    +0.000 A 
ENDBRANCH  21  22
ENDBRANCH  20  21
ENDBRANCH   4  20
TORSDOF 4
ENDMDL
MODEL 6
REMARK VINA RESULT:      -7.5      5.865      9.080
REMARK  Name = 
REMARK  4 active torsions:
REMARK  status: ('A' for Active; 'I' for Inactive)
REMARK    1  A    between atoms: N_7  and  C_8
REMARK    2  A    between atoms: C_11  and  S_12
REMARK    3  A    between atoms: S_12  and  C_13
REMARK    4  A    between atoms: C_13  and  C_14
REMARK                            x       y       z     vdW  Elec       q    Type
REMARK                         _______ _______ _______ _____ _____    ______ ____
ROOT
ATOM      1  C   UNL     1       1.207   9.624  18.645  0.00  0.00    +0.000 A 
ATOM      2  C   UNL     1       1.091   9.225  19.992  0.00  0.00    +0.000 A 
ATOM      3  C   UNL     1       1.569   7.982  20.413  0.00  0.00    +0.000 A 
ATOM      4  C   UNL     1       2.174   7.109  19.502  0.00  0.00    +0.000 A 
ATOM      5  C   UNL     1       2.297   7.498  18.160  0.00  0.00    +0.000 A 
ATOM      6  C   UNL     1       1.808   8.741  17.731  0.00  0.00    +0.000 A 
ENDROOT
BRANCH   1  13
ATOM      7  N   UNL     1      -1.206  12.747  19.108  0.00  0.00    +0.000 NA
ATOM      8  C   UNL     1      -0.390  13.682  18.769  0.00  0.00    +0.000 C 
ATOM      9  N   UNL     1      -0.747  15.039  18.989  0.00  0.00    +0.000 N 
ATOM     10  N   UNL     1       0.895  13.377  18.222  0.00  0.00    +0.000 N 
ATOM     11  C   UNL     1       1.467  12.068  18.083  0.00  0.00    +0.000 C 
ATOM     12  N   UNL     1       2.720  11.966  17.808  0.00  0.00    +0.000 NA
ATOM     13  N   UNL     1       0.681  10.875  18.190  0.00  0.00    +0.000 N 
ATOM     14  H   UNL     1      -2.128  12.963  19.520  0.00  0.00    +0.000 HD
ATOM     15  H   UNL     1      -1.653  15.285  19.411  0.00  0.00    +0.000 HD
ATOM     16  H   UNL     1      -0.086  15.795  18.764  0.00  0.00    +0.000 HD
ATOM     17  H   UNL     1       1.510  14.183  18.030  0.00  0.00    +0.000 HD
ATOM     18  H   UNL     1       3.325  12.792  17.691  0.00  0.00    +0.000 HD
ATOM     19  H   UNL     1      -0.299  10.900  17.877  0.00  0.00    +0.000 HD
ENDBRANCH   1  13
BRANCH   4  20
ATOM     20  S   UNL     1       2.820   5.516  20.052  0.00  0.00    +0.000 S 
BRANCH  20  21
ATOM     21  C   UNL     1       2.880   4.706  18.408  0.00  0.00    +0.000 C 
BRANCH  21  22
ATOM     22  C   UNL     1       4.287   4.760  17.852  0.00  0.00    +0.000 A 
ATOM     23  C   UNL     1       4.548   4.413  16.511  0.00  0.00    +0.000 A 
ATOM     24  C   UNL     1       5.852   4.465  16.006  0.00  0.00    +0.000 A 
ATOM     25 BR   UNL     1       6.198   3.987  14.188  0.00  0.00    +0.000 Br
ATOM     26  C   UNL     1       6.906   4.868  16.830  0.00  0.00    +0.000 A 
ATOM     27  C   UNL     1       6.659   5.219  18.160  0.00  0.00    +0.000 A 
ATOM     28 BR   UNL     1       8.104   5.772  19.281  0.00  0.00    +0.000 Br
ATOM     29  C   UNL     1       5.356   5.167  18.670  0.00  0.00    +0.000 A 
ENDBRANCH  21  22
ENDBRANCH  20  21
ENDBRANCH   4  20
TORSDOF 4
ENDMDL
MODEL 7
REMARK VINA RESULT:      -7.5      1.394      1.752
REMARK  Name = 
REMARK  4 active torsions:
REMARK  status: ('A' for Active; 'I' for Inactive)
REMARK    1  A    between atoms: N_7  and  C_8
REMARK    2  A    between atoms: C_11  and  S_12
REMARK    3  A    between atoms: S_12  and  C_13
REMARK    4  A    between atoms: C_13  and  C_14
REMARK                            x       y       z     vdW  Elec       q    Type
REMARK                         _______ _______ _______ _____ _____    ______ ____
ROOT
ATOM      1  C   UNL     1       2.332   7.700  18.933  0.00  0.00    +0.000 A 
ATOM      2  C   UNL     1       1.932   8.704  18.027  0.00  0.00    +0.000 A 
ATOM      3  C   UNL     1       1.086   9.738  18.433  0.00  0.00    +0.000 A 
ATOM      4  C   UNL     1       0.620   9.796  19.751  0.00  0.00    +0.000 A 
ATOM      5  C   UNL     1       1.014   8.805  20.662  0.00  0.00    +0.000 A 
ATOM      6  C   UNL     1       1.854   7.759  20.254  0.00  0.00    +0.000 A 
ENDROOT
BRANCH   1  13
ATOM      7  N   UNL     1       5.257   5.107  19.641  0.00  0.00    +0.000 NA
ATOM      8  C   UNL     1       4.706   4.048  19.164  0.00  0.00    +0.000 C 
ATOM      9  N   UNL     1       5.304   2.779  19.393  0.00  0.00    +0.000 N 
ATOM     10  N   UNL     1       3.469   4.118  18.450  0.00  0.00    +0.000 N 
ATOM     11  C   UNL     1       2.661   5.290  18.269  0.00  0.00    +0.000 C 
ATOM     12  N   UNL     1       1.462   5.154  17.823  0.00  0.00    +0.000 NA
ATOM     13  N   UNL     1       3.161   6.610  18.520  0.00  0.00    +0.000 N 
ATOM     14  H   UNL     1       6.141   5.058  20.173  0.00  0.00    +0.000 HD
ATOM     15  H   UNL     1       6.178   2.698  19.930  0.00  0.00    +0.000 HD
ATOM     16  H   UNL     1       4.850   1.920  19.054  0.00  0.00    +0.000 HD
ATOM     17  H   UNL     1       3.066   3.217  18.149  0.00  0.00    +0.000 HD
ATOM     18  H   UNL     1       1.062   4.231  17.598  0.00  0.00    +0.000 HD
ATOM     19  H   UNL     1       4.158   6.800  18.348  0.00  0.00    +0.000 HD
ENDBRANCH   1  13
BRANCH   4  20
ATOM     20  S   UNL     1      -0.449  11.150  20.284  0.00  0.00    +0.000 S 
BRANCH  20  21
ATOM     21  C   UNL     1      -0.629  11.966  18.652  0.00  0.00    +0.000 C 
BRANCH  21  22
ATOM     22  C   UNL     1      -1.991  11.663  18.066  0.00  0.00    +0.000 A 
ATOM     23  C   UNL     1      -2.117  11.124  16.770  0.00  0.00    +0.000 A 
ATOM     24  C   UNL     1      -3.381  10.849  16.236  0.00  0.00    +0.000 A 
ATOM     25 BR   UNL     1      -3.541  10.123  14.475  0.00  0.00    +0.000 Br
ATOM     26  C   UNL     1      -4.529  11.103  16.990  0.00  0.00    +0.000 A 
ATOM     27  C   UNL     1      -4.417  11.632  18.278  0.00  0.00    +0.000 A 
ATOM     28 BR   UNL     1      -5.992  11.974  19.305  0.00  0.00    +0.000 Br
ATOM     29  C   UNL     1      -3.155  11.911  18.816  0.00  0.00    +0.000 A 
ENDBRANCH  21  22
ENDBRANCH  20  21
ENDBRANCH   4  20
TORSDOF 4
ENDMDL
MODEL 8
REMARK VINA RESULT:      -7.5      1.359      2.745
REMARK  Name = 
REMARK  4 active torsions:
REMARK  status: ('A' for Active; 'I' for Inactive)
REMARK    1  A    between atoms: N_7  and  C_8
REMARK    2  A    between atoms: C_11  and  S_12
REMARK    3  A    between atoms: S_12  and  C_13
REMARK    4  A    between atoms: C_13  and  C_14
REMARK                            x       y       z     vdW  Elec       q    Type
REMARK                         _______ _______ _______ _____ _____    ______ ____
ROOT
ATOM      1  C   UNL     1       2.289   7.589  18.972  0.00  0.00    +0.000 A 
ATOM      2  C   UNL     1       1.803   7.691  20.291  0.00  0.00    +0.000 A 
ATOM      3  C   UNL     1       1.021   8.779  20.683  0.00  0.00    +0.000 A 
ATOM      4  C   UNL     1       0.705   9.791  19.769  0.00  0.00    +0.000 A 
ATOM      5  C   UNL     1       1.180   9.699  18.453  0.00  0.00    +0.000 A 
ATOM      6  C   UNL     1       1.975   8.612  18.059  0.00  0.00    +0.000 A 
ENDROOT
BRANCH   1  13
ATOM      7  N   UNL     1       5.209   5.000  19.717  0.00  0.00    +0.000 NA
ATOM      8  C   UNL     1       4.669   3.942  19.223  0.00  0.00    +0.000 C 
ATOM      9  N   UNL     1       5.267   2.675  19.456  0.00  0.00    +0.000 N 
ATOM     10  N   UNL     1       3.445   4.013  18.488  0.00  0.00    +0.000 N 
ATOM     11  C   UNL     1       2.637   5.184  18.300  0.00  0.00    +0.000 C 
ATOM     12  N   UNL     1       1.446   5.047  17.832  0.00  0.00    +0.000 NA
ATOM     13  N   UNL     1       3.129   6.504  18.568  0.00  0.00    +0.000 N 
ATOM     14  H   UNL     1       6.083   4.951  20.264  0.00  0.00    +0.000 HD
ATOM     15  H   UNL     1       6.131   2.593  20.008  0.00  0.00    +0.000 HD
ATOM     16  H   UNL     1       4.822   1.816  19.104  0.00  0.00    +0.000 HD
ATOM     17  H   UNL     1       3.050   3.113  18.175  0.00  0.00    +0.000 HD
ATOM     18  H   UNL     1       1.054   4.124  17.594  0.00  0.00    +0.000 HD
ATOM     19  H   UNL     1       4.127   6.698  18.414  0.00  0.00    +0.000 HD
ENDBRANCH   1  13
BRANCH   4  20
ATOM     20  S   UNL     1      -0.332  11.183  20.267  0.00  0.00    +0.000 S 
BRANCH  20  21
ATOM     21  C   UNL     1      -0.539  11.929  18.605  0.00  0.00    +0.000 C 
BRANCH  21  22
ATOM     22  C   UNL     1      -1.924  11.635  18.071  0.00  0.00    +0.000 A 
ATOM     23  C   UNL     1      -3.069  11.882  18.856  0.00  0.00    +0.000 A 
ATOM     24  C   UNL     1      -4.345  11.605  18.354  0.00  0.00    +0.000 A 
ATOM     25 BR   UNL     1      -5.892  11.937  19.427  0.00  0.00    +0.000 Br
ATOM     26  C   UNL     1      -4.493  11.087  17.065  0.00  0.00    +0.000 A 
ATOM     27  C   UNL     1      -3.366  10.844  16.275  0.00  0.00    +0.000 A 
ATOM     28 BR   UNL     1      -3.576  10.138  14.513  0.00  0.00    +0.000 Br
ATOM     29  C   UNL     1      -2.087  11.117  16.774  0.00  0.00    +0.000 A 
ENDBRANCH  21  22
ENDBRANCH  20  21
ENDBRANCH   4  20
TORSDOF 4
ENDMDL
MODEL 9
REMARK VINA RESULT:      -7.5      1.345      1.931
REMARK  Name = 
REMARK  4 active torsions:
REMARK  status: ('A' for Active; 'I' for Inactive)
REMARK    1  A    between atoms: N_7  and  C_8
REMARK    2  A    between atoms: C_11  and  S_12
REMARK    3  A    between atoms: S_12  and  C_13
REMARK    4  A    between atoms: C_13  and  C_14
REMARK                            x       y       z     vdW  Elec       q    Type
REMARK                         _______ _______ _______ _____ _____    ______ ____
ROOT
ATOM      1  C   UNL     1       2.288   7.584  18.986  0.00  0.00    +0.000 A 
ATOM      2  C   UNL     1       1.818   7.692  20.310  0.00  0.00    +0.000 A 
ATOM      3  C   UNL     1       1.041   8.782  20.707  0.00  0.00    +0.000 A 
ATOM      4  C   UNL     1       0.715   9.790  19.793  0.00  0.00    +0.000 A 
ATOM      5  C   UNL     1       1.174   9.692  18.471  0.00  0.00    +0.000 A 
ATOM      6  C   UNL     1       1.964   8.603  18.072  0.00  0.00    +0.000 A 
ENDROOT
BRANCH   1  13
ATOM      7  N   UNL     1       5.193   4.974  19.720  0.00  0.00    +0.000 NA
ATOM      8  C   UNL     1       4.648   3.922  19.218  0.00  0.00    +0.000 C 
ATOM      9  N   UNL     1       5.239   2.650  19.444  0.00  0.00    +0.000 N 
ATOM     10  N   UNL     1       3.426   4.005  18.481  0.00  0.00    +0.000 N 
ATOM     11  C   UNL     1       2.624   5.181  18.299  0.00  0.00    +0.000 C 
ATOM     12  N   UNL     1       1.434   5.053  17.828  0.00  0.00    +0.000 NA
ATOM     13  N   UNL     1       3.123   6.497  18.576  0.00  0.00    +0.000 N 
ATOM     14  H   UNL     1       6.066   4.916  20.268  0.00  0.00    +0.000 HD
ATOM     15  H   UNL     1       6.101   2.560  19.997  0.00  0.00    +0.000 HD
ATOM     16  H   UNL     1       4.789   1.796  19.086  0.00  0.00    +0.000 HD
ATOM     17  H   UNL     1       3.026   3.108  18.161  0.00  0.00    +0.000 HD
ATOM     18  H   UNL     1       1.037   4.135  17.583  0.00  0.00    +0.000 HD
ATOM     19  H   UNL     1       4.123   6.686  18.426  0.00  0.00    +0.000 HD
ENDBRANCH   1  13
BRANCH   4  20
ATOM     20  S   UNL     1      -0.316  11.184  20.297  0.00  0.00    +0.000 S 
BRANCH  20  21
ATOM     21  C   UNL     1      -0.513  11.944  18.640  0.00  0.00    +0.000 C 
BRANCH  21  22
ATOM     22  C   UNL     1      -1.891  11.645  18.091  0.00  0.00    +0.000 A 
ATOM     23  C   UNL     1      -2.054  11.113  16.795  0.00  0.00    +0.000 A 
ATOM     24  C   UNL     1      -3.332  10.841  16.296  0.00  0.00    +0.000 A 
ATOM     25 BR   UNL     1      -3.543  10.126  14.536  0.00  0.00    +0.000 Br
ATOM     26  C   UNL     1      -4.458  11.091  17.083  0.00  0.00    +0.000 A 
ATOM     27  C   UNL     1      -4.310  11.613  18.371  0.00  0.00    +0.000 A 
ATOM     28 BR   UNL     1      -5.855  11.950  19.443  0.00  0.00    +0.000 Br
ATOM     29  C   UNL     1      -3.033  11.889  18.874  0.00  0.00    +0.000 A 
ENDBRANCH  21  22
ENDBRANCH  20  21
ENDBRANCH   4  20
TORSDOF 4
ENDMDL
