MODEL 1
REMARK VINA RESULT:      -7.8      0.000      0.000
REMARK  Name = 
REMARK  13 active torsions:
REMARK  status: ('A' for Active; 'I' for Inactive)
REMARK    1  A    between atoms: C_1  and  C_2
REMARK    2  A    between atoms: C_2  and  C_3
REMARK    3  A    between atoms: C_3  and  C_4
REMARK    4  A    between atoms: C_4  and  C_5
REMARK    5  A    between atoms: C_5  and  C_6
REMARK    6  A    between atoms: C_6  and  C_7
REMARK    7  A    between atoms: C_7  and  C_8
REMARK    8  A    between atoms: C_8  and  O_9
REMARK    9  A    between atoms: O_9  and  C_10
REMARK   10  A    between atoms: N_12  and  S_13
REMARK   11  A    between atoms: S_13  and  N_16
REMARK   12  A    between atoms: N_16  and  C_17
REMARK   13  A    between atoms: C_21  and  C_22
REMARK                            x       y       z     vdW  Elec       q    Type
REMARK                         _______ _______ _______ _____ _____    ______ ____
ROOT
ATOM      1  N   UNL     1       3.179   4.899  20.537  0.00  0.00    +0.000 N 
ATOM      2  H   UNL     1       3.771   5.043  21.357  0.00  0.00    +0.000 HD
ENDROOT
BRANCH   1   3
ATOM      3  C   UNL     1       2.773   6.103  19.871  0.00  0.00    +0.000 A 
ATOM      4  C   UNL     1       3.182   6.310  18.551  0.00  0.00    +0.000 A 
ATOM      5  C   UNL     1       2.815   7.479  17.899  0.00  0.00    +0.000 A 
ATOM      6  C   UNL     1       2.032   8.422  18.565  0.00  0.00    +0.000 A 
ATOM      7  C   UNL     1       1.587   8.241  19.891  0.00  0.00    +0.000 A 
ATOM      8  C   UNL     1       1.994   7.068  20.547  0.00  0.00    +0.000 A 
BRANCH   7   9
ATOM      9  C   UNL     1       0.691   9.272  20.472  0.00  0.00    +0.000 A 
ATOM     10  C   UNL     1       0.095  10.342  19.817  0.00  0.00    +0.000 A 
ATOM     11  C   UNL     1      -0.757  11.036  20.699  0.00  0.00    +0.000 A 
ATOM     12  C   UNL     1      -1.649  12.112  20.534  0.00  0.00    +0.000 A 
ATOM     13  C   UNL     1      -2.276  12.658  21.653  0.00  0.00    +0.000 A 
ATOM     14  C   UNL     1      -2.010  12.147  22.921  0.00  0.00    +0.000 A 
ATOM     15  C   UNL     1      -1.173  11.032  23.099  0.00  0.00    +0.000 A 
ATOM     16  C   UNL     1      -0.575  10.471  21.959  0.00  0.00    +0.000 A 
ATOM     17  N   UNL     1       0.235   9.356  21.781  0.00  0.00    +0.000 N 
ATOM     18  H   UNL     1       0.445   8.695  22.515  0.00  0.00    +0.000 HD
ENDBRANCH   7   9
ENDBRANCH   1   3
BRANCH   1  19
ATOM     19  S   UNL     1       2.007   3.738  20.909  0.00  0.00    +0.000 S 
ATOM     20  O   UNL     1       0.730   4.264  20.486  0.00  0.00    +0.000 OA
ATOM     21  O   UNL     1       2.199   3.267  22.259  0.00  0.00    +0.000 OA
BRANCH  19  24
ATOM     22  C   UNL     1       3.778   2.290  19.540  0.00  0.00    +0.000 C 
ATOM     23  O   UNL     1       4.724   2.408  20.308  0.00  0.00    +0.000 OA
ATOM     24  N   UNL     1       2.443   2.484  19.915  0.00  0.00    +0.000 N 
ATOM     25  H   UNL     1       1.814   2.436  19.119  0.00  0.00    +0.000 HD
BRANCH  22  26
ATOM     26  O   UNL     1       3.879   1.991  18.223  0.00  0.00    +0.000 OA
BRANCH  26  27
ATOM     27  C   UNL     1       2.868   2.569  17.388  0.00  0.00    +0.000 C 
BRANCH  27  28
ATOM     28  C   UNL     1       3.399   3.527  16.315  0.00  0.00    +0.000 C 
BRANCH  28  29
ATOM     29  C   UNL     1       4.891   3.835  16.560  0.00  0.00    +0.000 C 
BRANCH  29  30
ATOM     30  C   UNL     1       5.456   4.912  15.625  0.00  0.00    +0.000 C 
BRANCH  30  31
ATOM     31  C   UNL     1       6.093   6.074  16.406  0.00  0.00    +0.000 C 
BRANCH  31  32
ATOM     32  C   UNL     1       7.231   5.589  17.313  0.00  0.00    +0.000 C 
BRANCH  32  34
ATOM     33  C   UNL     1       7.824   8.022  17.641  0.00  0.00    +0.000 C 
ATOM     34  C   UNL     1       7.671   6.663  18.312  0.00  0.00    +0.000 C 
ENDBRANCH  32  34
ENDBRANCH  31  32
ENDBRANCH  30  31
ENDBRANCH  29  30
ENDBRANCH  28  29
ENDBRANCH  27  28
ENDBRANCH  26  27
ENDBRANCH  22  26
ENDBRANCH  19  24
ENDBRANCH   1  19
TORSDOF 12
ENDMDL
MODEL 2
REMARK VINA RESULT:      -7.7      0.819      1.178
REMARK  Name = 
REMARK  13 active torsions:
REMARK  status: ('A' for Active; 'I' for Inactive)
REMARK    1  A    between atoms: C_1  and  C_2
REMARK    2  A    between atoms: C_2  and  C_3
REMARK    3  A    between atoms: C_3  and  C_4
REMARK    4  A    between atoms: C_4  and  C_5
REMARK    5  A    between atoms: C_5  and  C_6
REMARK    6  A    between atoms: C_6  and  C_7
REMARK    7  A    between atoms: C_7  and  C_8
REMARK    8  A    between atoms: C_8  and  O_9
REMARK    9  A    between atoms: O_9  and  C_10
REMARK   10  A    between atoms: N_12  and  S_13
REMARK   11  A    between atoms: S_13  and  N_16
REMARK   12  A    between atoms: N_16  and  C_17
REMARK   13  A    between atoms: C_21  and  C_22
REMARK                            x       y       z     vdW  Elec       q    Type
REMARK                         _______ _______ _______ _____ _____    ______ ____
ROOT
ATOM      1  N   UNL     1       3.126   5.127  20.377  0.00  0.00    +0.000 N 
ATOM      2  H   UNL     1       3.720   5.268  21.195  0.00  0.00    +0.000 HD
ENDROOT
BRANCH   1   3
ATOM      3  C   UNL     1       2.657   6.335  19.762  0.00  0.00    +0.000 A 
ATOM      4  C   UNL     1       2.866   6.515  18.391  0.00  0.00    +0.000 A 
ATOM      5  C   UNL     1       2.435   7.686  17.785  0.00  0.00    +0.000 A 
ATOM      6  C   UNL     1       1.787   8.659  18.547  0.00  0.00    +0.000 A 
ATOM      7  C   UNL     1       1.543   8.505  19.928  0.00  0.00    +0.000 A 
ATOM      8  C   UNL     1       2.014   7.329  20.532  0.00  0.00    +0.000 A 
BRANCH   7   9
ATOM      9  C   UNL     1       0.773   9.568  20.621  0.00  0.00    +0.000 A 
ATOM     10  C   UNL     1      -0.138   9.414  21.658  0.00  0.00    +0.000 A 
ATOM     11  C   UNL     1      -0.584  10.674  22.103  0.00  0.00    +0.000 A 
ATOM     12  C   UNL     1      -1.418  11.086  23.159  0.00  0.00    +0.000 A 
ATOM     13  C   UNL     1      -1.768  12.431  23.269  0.00  0.00    +0.000 A 
ATOM     14  C   UNL     1      -1.304  13.352  22.332  0.00  0.00    +0.000 A 
ATOM     15  C   UNL     1      -0.418  12.971  21.308  0.00  0.00    +0.000 A 
ATOM     16  C   UNL     1      -0.048  11.619  21.231  0.00  0.00    +0.000 A 
ATOM     17  N   UNL     1       0.835  10.938  20.401  0.00  0.00    +0.000 N 
ATOM     18  H   UNL     1       1.445  11.395  19.739  0.00  0.00    +0.000 HD
ENDBRANCH   7   9
ENDBRANCH   1   3
BRANCH   1  19
ATOM     19  S   UNL     1       2.015   3.898  20.717  0.00  0.00    +0.000 S 
ATOM     20  O   UNL     1       0.716   4.365  20.292  0.00  0.00    +0.000 OA
ATOM     21  O   UNL     1       2.222   3.413  22.059  0.00  0.00    +0.000 OA
BRANCH  19  24
ATOM     22  C   UNL     1       3.850   2.635  19.252  0.00  0.00    +0.000 C 
ATOM     23  O   UNL     1       4.820   2.861  19.963  0.00  0.00    +0.000 OA
ATOM     24  N   UNL     1       2.526   2.689  19.703  0.00  0.00    +0.000 N 
ATOM     25  H   UNL     1       1.860   2.567  18.945  0.00  0.00    +0.000 HD
BRANCH  22  26
ATOM     26  O   UNL     1       3.907   2.336  17.932  0.00  0.00    +0.000 OA
BRANCH  26  27
ATOM     27  C   UNL     1       3.257   3.276  17.066  0.00  0.00    +0.000 C 
BRANCH  27  28
ATOM     28  C   UNL     1       4.207   4.236  16.341  0.00  0.00    +0.000 C 
BRANCH  28  29
ATOM     29  C   UNL     1       5.608   3.605  16.204  0.00  0.00    +0.000 C 
BRANCH  29  30
ATOM     30  C   UNL     1       6.752   4.623  16.310  0.00  0.00    +0.000 C 
BRANCH  30  31
ATOM     31  C   UNL     1       6.235   6.034  16.638  0.00  0.00    +0.000 C 
BRANCH  31  32
ATOM     32  C   UNL     1       6.490   6.404  18.104  0.00  0.00    +0.000 C 
BRANCH  32  34
ATOM     33  C   UNL     1       8.052   8.352  17.727  0.00  0.00    +0.000 C 
ATOM     34  C   UNL     1       7.900   6.959  18.323  0.00  0.00    +0.000 C 
ENDBRANCH  32  34
ENDBRANCH  31  32
ENDBRANCH  30  31
ENDBRANCH  29  30
ENDBRANCH  28  29
ENDBRANCH  27  28
ENDBRANCH  26  27
ENDBRANCH  22  26
ENDBRANCH  19  24
ENDBRANCH   1  19
TORSDOF 12
ENDMDL
MODEL 3
REMARK VINA RESULT:      -7.5      2.234      3.333
REMARK  Name = 
REMARK  13 active torsions:
REMARK  status: ('A' for Active; 'I' for Inactive)
REMARK    1  A    between atoms: C_1  and  C_2
REMARK    2  A    between atoms: C_2  and  C_3
REMARK    3  A    between atoms: C_3  and  C_4
REMARK    4  A    between atoms: C_4  and  C_5
REMARK    5  A    between atoms: C_5  and  C_6
REMARK    6  A    between atoms: C_6  and  C_7
REMARK    7  A    between atoms: C_7  and  C_8
REMARK    8  A    between atoms: C_8  and  O_9
REMARK    9  A    between atoms: O_9  and  C_10
REMARK   10  A    between atoms: N_12  and  S_13
REMARK   11  A    between atoms: S_13  and  N_16
REMARK   12  A    between atoms: N_16  and  C_17
REMARK   13  A    between atoms: C_21  and  C_22
REMARK                            x       y       z     vdW  Elec       q    Type
REMARK                         _______ _______ _______ _____ _____    ______ ____
ROOT
ATOM      1  N   UNL     1       3.156   5.402  20.221  0.00  0.00    +0.000 N 
ATOM      2  H   UNL     1       3.263   5.438  21.235  0.00  0.00    +0.000 HD
ENDROOT
BRANCH   1   3
ATOM      3  C   UNL     1       2.661   6.610  19.626  0.00  0.00    +0.000 A 
ATOM      4  C   UNL     1       3.012   6.901  18.305  0.00  0.00    +0.000 A 
ATOM      5  C   UNL     1       2.555   8.074  17.722  0.00  0.00    +0.000 A 
ATOM      6  C   UNL     1       1.743   8.939  18.456  0.00  0.00    +0.000 A 
ATOM      7  C   UNL     1       1.355   8.671  19.786  0.00  0.00    +0.000 A 
ATOM      8  C   UNL     1       1.851   7.494  20.371  0.00  0.00    +0.000 A 
BRANCH   7   9
ATOM      9  C   UNL     1       0.421   9.619  20.443  0.00  0.00    +0.000 A 
ATOM     10  C   UNL     1      -0.022   9.596  21.759  0.00  0.00    +0.000 A 
ATOM     11  C   UNL     1      -0.826  10.724  22.019  0.00  0.00    +0.000 A 
ATOM     12  C   UNL     1      -1.439  11.225  23.182  0.00  0.00    +0.000 A 
ATOM     13  C   UNL     1      -2.286  12.328  23.087  0.00  0.00    +0.000 A 
ATOM     14  C   UNL     1      -2.530  12.916  21.848  0.00  0.00    +0.000 A 
ATOM     15  C   UNL     1      -1.877  12.471  20.686  0.00  0.00    +0.000 A 
ATOM     16  C   UNL     1      -1.000  11.380  20.803  0.00  0.00    +0.000 A 
ATOM     17  N   UNL     1      -0.169  10.746  19.887  0.00  0.00    +0.000 N 
ATOM     18  H   UNL     1      -0.016  11.082  18.947  0.00  0.00    +0.000 HD
ENDBRANCH   7   9
ENDBRANCH   1   3
BRANCH   1  19
ATOM     19  S   UNL     1       2.437   3.930  19.801  0.00  0.00    +0.000 S 
ATOM     20  O   UNL     1       1.055   4.203  19.482  0.00  0.00    +0.000 OA
ATOM     21  O   UNL     1       2.785   2.924  20.775  0.00  0.00    +0.000 OA
BRANCH  19  24
ATOM     22  C   UNL     1       4.595   3.900  18.237  0.00  0.00    +0.000 C 
ATOM     23  O   UNL     1       5.442   3.827  19.117  0.00  0.00    +0.000 OA
ATOM     24  N   UNL     1       3.256   3.535  18.414  0.00  0.00    +0.000 N 
ATOM     25  H   UNL     1       2.689   3.758  17.601  0.00  0.00    +0.000 HD
BRANCH  22  26
ATOM     26  O   UNL     1       4.814   4.370  16.985  0.00  0.00    +0.000 OA
BRANCH  26  27
ATOM     27  C   UNL     1       5.989   3.863  16.341  0.00  0.00    +0.000 C 
BRANCH  27  28
ATOM     28  C   UNL     1       6.919   4.941  15.771  0.00  0.00    +0.000 C 
BRANCH  28  29
ATOM     29  C   UNL     1       6.951   4.863  14.231  0.00  0.00    +0.000 C 
BRANCH  29  30
ATOM     30  C   UNL     1       5.859   3.962  13.639  0.00  0.00    +0.000 C 
BRANCH  30  31
ATOM     31  C   UNL     1       6.168   3.563  12.186  0.00  0.00    +0.000 C 
BRANCH  31  32
ATOM     32  C   UNL     1       5.333   2.357  11.740  0.00  0.00    +0.000 C 
BRANCH  32  34
ATOM     33  C   UNL     1       7.637   1.730  10.919  0.00  0.00    +0.000 C 
ATOM     34  C   UNL     1       6.181   1.299  11.028  0.00  0.00    +0.000 C 
ENDBRANCH  32  34
ENDBRANCH  31  32
ENDBRANCH  30  31
ENDBRANCH  29  30
ENDBRANCH  28  29
ENDBRANCH  27  28
ENDBRANCH  26  27
ENDBRANCH  22  26
ENDBRANCH  19  24
ENDBRANCH   1  19
TORSDOF 12
ENDMDL
MODEL 4
REMARK VINA RESULT:      -7.5      3.857      5.826
REMARK  Name = 
REMARK  13 active torsions:
REMARK  status: ('A' for Active; 'I' for Inactive)
REMARK    1  A    between atoms: C_1  and  C_2
REMARK    2  A    between atoms: C_2  and  C_3
REMARK    3  A    between atoms: C_3  and  C_4
REMARK    4  A    between atoms: C_4  and  C_5
REMARK    5  A    between atoms: C_5  and  C_6
REMARK    6  A    between atoms: C_6  and  C_7
REMARK    7  A    between atoms: C_7  and  C_8
REMARK    8  A    between atoms: C_8  and  O_9
REMARK    9  A    between atoms: O_9  and  C_10
REMARK   10  A    between atoms: N_12  and  S_13
REMARK   11  A    between atoms: S_13  and  N_16
REMARK   12  A    between atoms: N_16  and  C_17
REMARK   13  A    between atoms: C_21  and  C_22
REMARK                            x       y       z     vdW  Elec       q    Type
REMARK                         _______ _______ _______ _____ _____    ______ ____
ROOT
ATOM      1  N   UNL     1       6.255   4.152  18.772  0.00  0.00    +0.000 N 
ATOM      2  H   UNL     1       6.429   3.174  19.009  0.00  0.00    +0.000 HD
ENDROOT
BRANCH   1   3
ATOM      3  C   UNL     1       4.875   4.482  18.560  0.00  0.00    +0.000 A 
ATOM      4  C   UNL     1       4.096   3.633  17.768  0.00  0.00    +0.000 A 
ATOM      5  C   UNL     1       2.764   3.948  17.538  0.00  0.00    +0.000 A 
ATOM      6  C   UNL     1       2.219   5.097  18.111  0.00  0.00    +0.000 A 
ATOM      7  C   UNL     1       2.969   5.968  18.930  0.00  0.00    +0.000 A 
ATOM      8  C   UNL     1       4.323   5.652  19.126  0.00  0.00    +0.000 A 
BRANCH   7   9
ATOM      9  C   UNL     1       2.265   7.116  19.553  0.00  0.00    +0.000 A 
ATOM     10  C   UNL     1       1.892   8.310  18.950  0.00  0.00    +0.000 A 
ATOM     11  C   UNL     1       1.161   9.104  19.856  0.00  0.00    +0.000 A 
ATOM     12  C   UNL     1       0.488  10.334  19.737  0.00  0.00    +0.000 A 
ATOM     13  C   UNL     1      -0.055  10.928  20.876  0.00  0.00    +0.000 A 
ATOM     14  C   UNL     1       0.082  10.313  22.117  0.00  0.00    +0.000 A 
ATOM     15  C   UNL     1       0.695   9.054  22.246  0.00  0.00    +0.000 A 
ATOM     16  C   UNL     1       1.206   8.452  21.086  0.00  0.00    +0.000 A 
ATOM     17  N   UNL     1       1.801   7.216  20.858  0.00  0.00    +0.000 N 
ATOM     18  H   UNL     1       1.868   6.491  21.558  0.00  0.00    +0.000 HD
ENDBRANCH   7   9
ENDBRANCH   1   3
BRANCH   1  19
ATOM     19  S   UNL     1       7.397   4.647  17.628  0.00  0.00    +0.000 S 
ATOM     20  O   UNL     1       6.765   4.577  16.331  0.00  0.00    +0.000 OA
ATOM     21  O   UNL     1       8.652   3.979  17.873  0.00  0.00    +0.000 OA
BRANCH  19  24
ATOM     22  C   UNL     1       7.156   7.272  17.229  0.00  0.00    +0.000 C 
ATOM     23  O   UNL     1       6.061   7.260  16.681  0.00  0.00    +0.000 OA
ATOM     24  N   UNL     1       7.629   6.236  18.043  0.00  0.00    +0.000 N 
ATOM     25  H   UNL     1       8.593   6.384  18.327  0.00  0.00    +0.000 HD
BRANCH  22  26
ATOM     26  O   UNL     1       8.076   8.258  17.106  0.00  0.00    +0.000 OA
BRANCH  26  27
ATOM     27  C   UNL     1       8.173   9.144  18.229  0.00  0.00    +0.000 C 
BRANCH  27  28
ATOM     28  C   UNL     1       9.294  10.184  18.125  0.00  0.00    +0.000 C 
BRANCH  28  29
ATOM     29  C   UNL     1       9.048  11.340  19.118  0.00  0.00    +0.000 C 
BRANCH  29  30
ATOM     30  C   UNL     1      10.337  11.917  19.718  0.00  0.00    +0.000 C 
BRANCH  30  31
ATOM     31  C   UNL     1      10.176  12.250  21.211  0.00  0.00    +0.000 C 
BRANCH  31  32
ATOM     32  C   UNL     1       8.921  11.599  21.805  0.00  0.00    +0.000 C 
BRANCH  32  34
ATOM     33  C   UNL     1       7.097  13.092  22.711  0.00  0.00    +0.000 C 
ATOM     34  C   UNL     1       8.396  12.362  23.024  0.00  0.00    +0.000 C 
ENDBRANCH  32  34
ENDBRANCH  31  32
ENDBRANCH  30  31
ENDBRANCH  29  30
ENDBRANCH  28  29
ENDBRANCH  27  28
ENDBRANCH  26  27
ENDBRANCH  22  26
ENDBRANCH  19  24
ENDBRANCH   1  19
TORSDOF 12
ENDMDL
MODEL 5
REMARK VINA RESULT:      -7.5      2.451      3.513
REMARK  Name = 
REMARK  13 active torsions:
REMARK  status: ('A' for Active; 'I' for Inactive)
REMARK    1  A    between atoms: C_1  and  C_2
REMARK    2  A    between atoms: C_2  and  C_3
REMARK    3  A    between atoms: C_3  and  C_4
REMARK    4  A    between atoms: C_4  and  C_5
REMARK    5  A    between atoms: C_5  and  C_6
REMARK    6  A    between atoms: C_6  and  C_7
REMARK    7  A    between atoms: C_7  and  C_8
REMARK    8  A    between atoms: C_8  and  O_9
REMARK    9  A    between atoms: O_9  and  C_10
REMARK   10  A    between atoms: N_12  and  S_13
REMARK   11  A    between atoms: S_13  and  N_16
REMARK   12  A    between atoms: N_16  and  C_17
REMARK   13  A    between atoms: C_21  and  C_22
REMARK                            x       y       z     vdW  Elec       q    Type
REMARK                         _______ _______ _______ _____ _____    ______ ____
ROOT
ATOM      1  N   UNL     1       3.407   5.612  19.883  0.00  0.00    +0.000 N 
ATOM      2  H   UNL     1       3.475   5.606  20.901  0.00  0.00    +0.000 HD
ENDROOT
BRANCH   1   3
ATOM      3  C   UNL     1       2.816   6.796  19.329  0.00  0.00    +0.000 A 
ATOM      4  C   UNL     1       3.052   7.098  17.985  0.00  0.00    +0.000 A 
ATOM      5  C   UNL     1       2.503   8.250  17.439  0.00  0.00    +0.000 A 
ATOM      6  C   UNL     1       1.713   9.081  18.234  0.00  0.00    +0.000 A 
ATOM      7  C   UNL     1       1.439   8.800  19.589  0.00  0.00    +0.000 A 
ATOM      8  C   UNL     1       2.028   7.647  20.134  0.00  0.00    +0.000 A 
BRANCH   7   9
ATOM      9  C   UNL     1       0.520   9.710  20.317  0.00  0.00    +0.000 A 
ATOM     10  C   UNL     1      -0.187  10.789  19.802  0.00  0.00    +0.000 A 
ATOM     11  C   UNL     1      -1.021  11.341  20.795  0.00  0.00    +0.000 A 
ATOM     12  C   UNL     1      -1.988  12.362  20.785  0.00  0.00    +0.000 A 
ATOM     13  C   UNL     1      -2.573  12.761  21.986  0.00  0.00    +0.000 A 
ATOM     14  C   UNL     1      -2.190  12.159  23.183  0.00  0.00    +0.000 A 
ATOM     15  C   UNL     1      -1.273  11.094  23.205  0.00  0.00    +0.000 A 
ATOM     16  C   UNL     1      -0.718  10.681  21.983  0.00  0.00    +0.000 A 
ATOM     17  N   UNL     1       0.148   9.646  21.653  0.00  0.00    +0.000 N 
ATOM     18  H   UNL     1       0.449   8.938  22.309  0.00  0.00    +0.000 HD
ENDBRANCH   7   9
ENDBRANCH   1   3
BRANCH   1  19
ATOM     19  S   UNL     1       2.848   4.102  19.365  0.00  0.00    +0.000 S 
ATOM     20  O   UNL     1       1.459   4.259  19.002  0.00  0.00    +0.000 OA
ATOM     21  O   UNL     1       3.255   3.085  20.304  0.00  0.00    +0.000 OA
BRANCH  19  24
ATOM     22  C   UNL     1       5.087   4.270  17.928  0.00  0.00    +0.000 C 
ATOM     23  O   UNL     1       5.888   4.139  18.844  0.00  0.00    +0.000 OA
ATOM     24  N   UNL     1       3.752   3.856  17.996  0.00  0.00    +0.000 N 
ATOM     25  H   UNL     1       3.223   4.138  17.176  0.00  0.00    +0.000 HD
BRANCH  22  26
ATOM     26  O   UNL     1       5.358   4.859  16.738  0.00  0.00    +0.000 OA
BRANCH  26  27
ATOM     27  C   UNL     1       6.421   4.256  15.989  0.00  0.00    +0.000 C 
BRANCH  27  28
ATOM     28  C   UNL     1       5.988   3.634  14.656  0.00  0.00    +0.000 C 
BRANCH  28  29
ATOM     29  C   UNL     1       7.017   3.957  13.553  0.00  0.00    +0.000 C 
BRANCH  29  30
ATOM     30  C   UNL     1       6.396   4.098  12.158  0.00  0.00    +0.000 C 
BRANCH  30  31
ATOM     31  C   UNL     1       5.379   2.982  11.866  0.00  0.00    +0.000 C 
BRANCH  31  32
ATOM     32  C   UNL     1       3.966   3.543  11.659  0.00  0.00    +0.000 C 
BRANCH  32  34
ATOM     33  C   UNL     1       2.918   4.337   9.503  0.00  0.00    +0.000 C 
ATOM     34  C   UNL     1       3.373   3.128  10.309  0.00  0.00    +0.000 C 
ENDBRANCH  32  34
ENDBRANCH  31  32
ENDBRANCH  30  31
ENDBRANCH  29  30
ENDBRANCH  28  29
ENDBRANCH  27  28
ENDBRANCH  26  27
ENDBRANCH  22  26
ENDBRANCH  19  24
ENDBRANCH   1  19
TORSDOF 12
ENDMDL
MODEL 6
REMARK VINA RESULT:      -7.2      1.244      1.870
REMARK  Name = 
REMARK  13 active torsions:
REMARK  status: ('A' for Active; 'I' for Inactive)
REMARK    1  A    between atoms: C_1  and  C_2
REMARK    2  A    between atoms: C_2  and  C_3
REMARK    3  A    between atoms: C_3  and  C_4
REMARK    4  A    between atoms: C_4  and  C_5
REMARK    5  A    between atoms: C_5  and  C_6
REMARK    6  A    between atoms: C_6  and  C_7
REMARK    7  A    between atoms: C_7  and  C_8
REMARK    8  A    between atoms: C_8  and  O_9
REMARK    9  A    between atoms: O_9  and  C_10
REMARK   10  A    between atoms: N_12  and  S_13
REMARK   11  A    between atoms: S_13  and  N_16
REMARK   12  A    between atoms: N_16  and  C_17
REMARK   13  A    between atoms: C_21  and  C_22
REMARK                            x       y       z     vdW  Elec       q    Type
REMARK                         _______ _______ _______ _____ _____    ______ ____
ROOT
ATOM      1  N   UNL     1       2.444   5.034  20.867  0.00  0.00    +0.000 N 
ATOM      2  H   UNL     1       2.362   5.102  21.882  0.00  0.00    +0.000 HD
ENDROOT
BRANCH   1   3
ATOM      3  C   UNL     1       2.212   6.262  20.163  0.00  0.00    +0.000 A 
ATOM      4  C   UNL     1       2.739   6.408  18.876  0.00  0.00    +0.000 A 
ATOM      5  C   UNL     1       2.539   7.597  18.190  0.00  0.00    +0.000 A 
ATOM      6  C   UNL     1       1.805   8.623  18.786  0.00  0.00    +0.000 A 
ATOM      7  C   UNL     1       1.244   8.506  20.075  0.00  0.00    +0.000 A 
ATOM      8  C   UNL     1       1.482   7.308  20.769  0.00  0.00    +0.000 A 
BRANCH   7   9
ATOM      9  C   UNL     1       0.413   9.628  20.577  0.00  0.00    +0.000 A 
ATOM     10  C   UNL     1      -0.121  10.680  19.844  0.00  0.00    +0.000 A 
ATOM     11  C   UNL     1      -0.928  11.486  20.671  0.00  0.00    +0.000 A 
ATOM     12  C   UNL     1      -1.755  12.598  20.426  0.00  0.00    +0.000 A 
ATOM     13  C   UNL     1      -2.345  13.261  21.501  0.00  0.00    +0.000 A 
ATOM     14  C   UNL     1      -2.105  12.831  22.804  0.00  0.00    +0.000 A 
ATOM     15  C   UNL     1      -1.335  11.684  23.065  0.00  0.00    +0.000 A 
ATOM     16  C   UNL     1      -0.775  11.006  21.970  0.00  0.00    +0.000 A 
ATOM     17  N   UNL     1      -0.033   9.835  21.875  0.00  0.00    +0.000 N 
ATOM     18  H   UNL     1       0.140   9.219  22.657  0.00  0.00    +0.000 HD
ENDBRANCH   7   9
ENDBRANCH   1   3
BRANCH   1  19
ATOM     19  S   UNL     1       1.650   3.633  20.350  0.00  0.00    +0.000 S 
ATOM     20  O   UNL     1       0.670   4.033  19.367  0.00  0.00    +0.000 OA
ATOM     21  O   UNL     1       1.267   2.841  21.493  0.00  0.00    +0.000 OA
BRANCH  19  24
ATOM     22  C   UNL     1       4.071   2.521  20.271  0.00  0.00    +0.000 C 
ATOM     23  O   UNL     1       4.126   2.151  21.437  0.00  0.00    +0.000 OA
ATOM     24  N   UNL     1       2.876   2.804  19.601  0.00  0.00    +0.000 N 
ATOM     25  H   UNL     1       3.040   3.189  18.675  0.00  0.00    +0.000 HD
BRANCH  22  26
ATOM     26  O   UNL     1       5.145   2.742  19.475  0.00  0.00    +0.000 OA
BRANCH  26  27
ATOM     27  C   UNL     1       5.135   3.992  18.773  0.00  0.00    +0.000 C 
BRANCH  27  28
ATOM     28  C   UNL     1       5.903   5.120  19.471  0.00  0.00    +0.000 C 
BRANCH  28  29
ATOM     29  C   UNL     1       7.062   5.613  18.579  0.00  0.00    +0.000 C 
BRANCH  29  30
ATOM     30  C   UNL     1       7.624   4.528  17.650  0.00  0.00    +0.000 C 
BRANCH  30  31
ATOM     31  C   UNL     1       7.498   4.920  16.168  0.00  0.00    +0.000 C 
BRANCH  31  32
ATOM     32  C   UNL     1       6.393   4.123  15.464  0.00  0.00    +0.000 C 
BRANCH  32  34
ATOM     33  C   UNL     1       5.097   6.285  15.615  0.00  0.00    +0.000 C 
ATOM     34  C   UNL     1       5.365   5.035  14.788  0.00  0.00    +0.000 C 
ENDBRANCH  32  34
ENDBRANCH  31  32
ENDBRANCH  30  31
ENDBRANCH  29  30
ENDBRANCH  28  29
ENDBRANCH  27  28
ENDBRANCH  26  27
ENDBRANCH  22  26
ENDBRANCH  19  24
ENDBRANCH   1  19
TORSDOF 12
ENDMDL
MODEL 7
REMARK VINA RESULT:      -7.1      1.335      2.450
REMARK  Name = 
REMARK  13 active torsions:
REMARK  status: ('A' for Active; 'I' for Inactive)
REMARK    1  A    between atoms: C_1  and  C_2
REMARK    2  A    between atoms: C_2  and  C_3
REMARK    3  A    between atoms: C_3  and  C_4
REMARK    4  A    between atoms: C_4  and  C_5
REMARK    5  A    between atoms: C_5  and  C_6
REMARK    6  A    between atoms: C_6  and  C_7
REMARK    7  A    between atoms: C_7  and  C_8
REMARK    8  A    between atoms: C_8  and  O_9
REMARK    9  A    between atoms: O_9  and  C_10
REMARK   10  A    between atoms: N_12  and  S_13
REMARK   11  A    between atoms: S_13  and  N_16
REMARK   12  A    between atoms: N_16  and  C_17
REMARK   13  A    between atoms: C_21  and  C_22
REMARK                            x       y       z     vdW  Elec       q    Type
REMARK                         _______ _______ _______ _____ _____    ______ ____
ROOT
ATOM      1  N   UNL     1       2.869   5.552  20.686  0.00  0.00    +0.000 N 
ATOM      2  H   UNL     1       3.168   5.728  21.646  0.00  0.00    +0.000 HD
ENDROOT
BRANCH   1   3
ATOM      3  C   UNL     1       2.389   6.709  19.986  0.00  0.00    +0.000 A 
ATOM      4  C   UNL     1       2.724   6.865  18.637  0.00  0.00    +0.000 A 
ATOM      5  C   UNL     1       2.284   7.988  17.952  0.00  0.00    +0.000 A 
ATOM      6  C   UNL     1       1.504   8.937  18.612  0.00  0.00    +0.000 A 
ATOM      7  C   UNL     1       1.132   8.806  19.967  0.00  0.00    +0.000 A 
ATOM      8  C   UNL     1       1.612   7.680  20.655  0.00  0.00    +0.000 A 
BRANCH   7   9
ATOM      9  C   UNL     1       0.232   9.835  20.544  0.00  0.00    +0.000 A 
ATOM     10  C   UNL     1      -0.089  10.025  21.883  0.00  0.00    +0.000 A 
ATOM     11  C   UNL     1      -0.903  11.166  22.028  0.00  0.00    +0.000 A 
ATOM     12  C   UNL     1      -1.424  11.844  23.146  0.00  0.00    +0.000 A 
ATOM     13  C   UNL     1      -2.313  12.900  22.951  0.00  0.00    +0.000 A 
ATOM     14  C   UNL     1      -2.688  13.268  21.661  0.00  0.00    +0.000 A 
ATOM     15  C   UNL     1      -2.129  12.646  20.531  0.00  0.00    +0.000 A 
ATOM     16  C   UNL     1      -1.209  11.606  20.743  0.00  0.00    +0.000 A 
ATOM     17  N   UNL     1      -0.445  10.842  19.869  0.00  0.00    +0.000 N 
ATOM     18  H   UNL     1      -0.389  11.018  18.876  0.00  0.00    +0.000 HD
ENDBRANCH   7   9
ENDBRANCH   1   3
BRANCH   1  19
ATOM     19  S   UNL     1       1.943   4.137  20.654  0.00  0.00    +0.000 S 
ATOM     20  O   UNL     1       0.587   4.518  20.332  0.00  0.00    +0.000 OA
ATOM     21  O   UNL     1       2.228   3.344  21.825  0.00  0.00    +0.000 OA
BRANCH  19  24
ATOM     22  C   UNL     1       3.994   3.181  19.246  0.00  0.00    +0.000 C 
ATOM     23  O   UNL     1       4.738   2.922  20.183  0.00  0.00    +0.000 OA
ATOM     24  N   UNL     1       2.608   3.325  19.370  0.00  0.00    +0.000 N 
ATOM     25  H   UNL     1       2.178   3.634  18.503  0.00  0.00    +0.000 HD
BRANCH  22  26
ATOM     26  O   UNL     1       4.398   3.398  17.971  0.00  0.00    +0.000 OA
BRANCH  26  27
ATOM     27  C   UNL     1       5.722   3.931  17.834  0.00  0.00    +0.000 C 
BRANCH  27  28
ATOM     28  C   UNL     1       5.817   5.451  18.001  0.00  0.00    +0.000 C 
BRANCH  28  29
ATOM     29  C   UNL     1       6.352   6.101  16.707  0.00  0.00    +0.000 C 
BRANCH  29  30
ATOM     30  C   UNL     1       5.315   6.164  15.578  0.00  0.00    +0.000 C 
BRANCH  30  31
ATOM     31  C   UNL     1       5.477   5.002  14.584  0.00  0.00    +0.000 C 
BRANCH  31  32
ATOM     32  C   UNL     1       6.910   4.916  14.043  0.00  0.00    +0.000 C 
BRANCH  32  34
ATOM     33  C   UNL     1       5.787   3.235  12.529  0.00  0.00    +0.000 C 
ATOM     34  C   UNL     1       6.980   4.164  12.711  0.00  0.00    +0.000 C 
ENDBRANCH  32  34
ENDBRANCH  31  32
ENDBRANCH  30  31
ENDBRANCH  29  30
ENDBRANCH  28  29
ENDBRANCH  27  28
ENDBRANCH  26  27
ENDBRANCH  22  26
ENDBRANCH  19  24
ENDBRANCH   1  19
TORSDOF 12
ENDMDL
MODEL 8
REMARK VINA RESULT:      -7.1      4.165      6.112
REMARK  Name = 
REMARK  13 active torsions:
REMARK  status: ('A' for Active; 'I' for Inactive)
REMARK    1  A    between atoms: C_1  and  C_2
REMARK    2  A    between atoms: C_2  and  C_3
REMARK    3  A    between atoms: C_3  and  C_4
REMARK    4  A    between atoms: C_4  and  C_5
REMARK    5  A    between atoms: C_5  and  C_6
REMARK    6  A    between atoms: C_6  and  C_7
REMARK    7  A    between atoms: C_7  and  C_8
REMARK    8  A    between atoms: C_8  and  O_9
REMARK    9  A    between atoms: O_9  and  C_10
REMARK   10  A    between atoms: N_12  and  S_13
REMARK   11  A    between atoms: S_13  and  N_16
REMARK   12  A    between atoms: N_16  and  C_17
REMARK   13  A    between atoms: C_21  and  C_22
REMARK                            x       y       z     vdW  Elec       q    Type
REMARK                         _______ _______ _______ _____ _____    ______ ____
ROOT
ATOM      1  N   UNL     1       5.664   5.489  16.844  0.00  0.00    +0.000 N 
ATOM      2  H   UNL     1       5.876   6.379  16.392  0.00  0.00    +0.000 HD
ENDROOT
BRANCH   1   3
ATOM      3  C   UNL     1       4.356   5.411  17.430  0.00  0.00    +0.000 A 
ATOM      4  C   UNL     1       3.638   4.218  17.312  0.00  0.00    +0.000 A 
ATOM      5  C   UNL     1       2.365   4.133  17.857  0.00  0.00    +0.000 A 
ATOM      6  C   UNL     1       1.826   5.232  18.525  0.00  0.00    +0.000 A 
ATOM      7  C   UNL     1       2.527   6.447  18.679  0.00  0.00    +0.000 A 
ATOM      8  C   UNL     1       3.802   6.527  18.094  0.00  0.00    +0.000 A 
BRANCH   7   9
ATOM      9  C   UNL     1       1.890   7.523  19.479  0.00  0.00    +0.000 A 
ATOM     10  C   UNL     1       1.420   8.749  19.027  0.00  0.00    +0.000 A 
ATOM     11  C   UNL     1       0.800   9.448  20.082  0.00  0.00    +0.000 A 
ATOM     12  C   UNL     1       0.095  10.663  20.151  0.00  0.00    +0.000 A 
ATOM     13  C   UNL     1      -0.305  11.152  21.395  0.00  0.00    +0.000 A 
ATOM     14  C   UNL     1       0.005  10.445  22.554  0.00  0.00    +0.000 A 
ATOM     15  C   UNL     1       0.652   9.198  22.501  0.00  0.00    +0.000 A 
ATOM     16  C   UNL     1       1.018   8.703  21.238  0.00  0.00    +0.000 A 
ATOM     17  N   UNL     1       1.600   7.507  20.837  0.00  0.00    +0.000 N 
ATOM     18  H   UNL     1       1.771   6.731  21.461  0.00  0.00    +0.000 HD
ENDBRANCH   7   9
ENDBRANCH   1   3
BRANCH   1  19
ATOM     19  S   UNL     1       7.000   5.011  17.764  0.00  0.00    +0.000 S 
ATOM     20  O   UNL     1       8.058   4.671  16.840  0.00  0.00    +0.000 OA
ATOM     21  O   UNL     1       6.582   4.079  18.782  0.00  0.00    +0.000 OA
BRANCH  19  24
ATOM     22  C   UNL     1       7.638   7.598  17.845  0.00  0.00    +0.000 C 
ATOM     23  O   UNL     1       6.976   7.967  16.883  0.00  0.00    +0.000 OA
ATOM     24  N   UNL     1       7.389   6.417  18.553  0.00  0.00    +0.000 N 
ATOM     25  H   UNL     1       8.102   6.236  19.254  0.00  0.00    +0.000 HD
BRANCH  22  26
ATOM     26  O   UNL     1       8.716   8.251  18.341  0.00  0.00    +0.000 OA
BRANCH  26  27
ATOM     27  C   UNL     1       8.530   9.656  18.560  0.00  0.00    +0.000 C 
BRANCH  27  28
ATOM     28  C   UNL     1       9.678  10.536  18.055  0.00  0.00    +0.000 C 
BRANCH  28  29
ATOM     29  C   UNL     1      10.403  11.206  19.242  0.00  0.00    +0.000 C 
BRANCH  29  30
ATOM     30  C   UNL     1      10.676  12.701  19.029  0.00  0.00    +0.000 C 
BRANCH  30  31
ATOM     31  C   UNL     1      10.461  13.121  17.564  0.00  0.00    +0.000 C 
BRANCH  31  32
ATOM     32  C   UNL     1      11.234  14.401  17.224  0.00  0.00    +0.000 C 
BRANCH  32  34
ATOM     33  C   UNL     1      10.665  16.399  18.660  0.00  0.00    +0.000 C 
ATOM     34  C   UNL     1      10.366  15.654  17.366  0.00  0.00    +0.000 C 
ENDBRANCH  32  34
ENDBRANCH  31  32
ENDBRANCH  30  31
ENDBRANCH  29  30
ENDBRANCH  28  29
ENDBRANCH  27  28
ENDBRANCH  26  27
ENDBRANCH  22  26
ENDBRANCH  19  24
ENDBRANCH   1  19
TORSDOF 12
ENDMDL
MODEL 9
REMARK VINA RESULT:      -7.0      4.071      6.063
REMARK  Name = 
REMARK  13 active torsions:
REMARK  status: ('A' for Active; 'I' for Inactive)
REMARK    1  A    between atoms: C_1  and  C_2
REMARK    2  A    between atoms: C_2  and  C_3
REMARK    3  A    between atoms: C_3  and  C_4
REMARK    4  A    between atoms: C_4  and  C_5
REMARK    5  A    between atoms: C_5  and  C_6
REMARK    6  A    between atoms: C_6  and  C_7
REMARK    7  A    between atoms: C_7  and  C_8
REMARK    8  A    between atoms: C_8  and  O_9
REMARK    9  A    between atoms: O_9  and  C_10
REMARK   10  A    between atoms: N_12  and  S_13
REMARK   11  A    between atoms: S_13  and  N_16
REMARK   12  A    between atoms: N_16  and  C_17
REMARK   13  A    between atoms: C_21  and  C_22
REMARK                            x       y       z     vdW  Elec       q    Type
REMARK                         _______ _______ _______ _____ _____    ______ ____
ROOT
ATOM      1  N   UNL     1       6.162   5.159  17.667  0.00  0.00    +0.000 N 
ATOM      2  H   UNL     1       6.606   4.281  17.941  0.00  0.00    +0.000 HD
ENDROOT
BRANCH   1   3
ATOM      3  C   UNL     1       4.742   5.202  17.872  0.00  0.00    +0.000 A 
ATOM      4  C   UNL     1       3.967   4.126  17.429  0.00  0.00    +0.000 A 
ATOM      5  C   UNL     1       2.591   4.162  17.603  0.00  0.00    +0.000 A 
ATOM      6  C   UNL     1       2.003   5.261  18.229  0.00  0.00    +0.000 A 
ATOM      7  C   UNL     1       2.754   6.357  18.704  0.00  0.00    +0.000 A 
ATOM      8  C   UNL     1       4.142   6.320  18.492  0.00  0.00    +0.000 A 
BRANCH   7   9
ATOM      9  C   UNL     1       2.033   7.434  19.428  0.00  0.00    +0.000 A 
ATOM     10  C   UNL     1       1.552   7.404  20.730  0.00  0.00    +0.000 A 
ATOM     11  C   UNL     1       1.010   8.658  21.076  0.00  0.00    +0.000 A 
ATOM     12  C   UNL     1       0.485   9.187  22.268  0.00  0.00    +0.000 A 
ATOM     13  C   UNL     1      -0.093  10.456  22.257  0.00  0.00    +0.000 A 
ATOM     14  C   UNL     1      -0.158  11.183  21.071  0.00  0.00    +0.000 A 
ATOM     15  C   UNL     1       0.418  10.698  19.883  0.00  0.00    +0.000 A 
ATOM     16  C   UNL     1       1.027   9.433  19.919  0.00  0.00    +0.000 A 
ATOM     17  N   UNL     1       1.727   8.706  18.963  0.00  0.00    +0.000 N 
ATOM     18  H   UNL     1       1.983   9.074  18.058  0.00  0.00    +0.000 HD
ENDBRANCH   7   9
ENDBRANCH   1   3
BRANCH   1  19
ATOM     19  S   UNL     1       6.786   5.642  16.171  0.00  0.00    +0.000 S 
ATOM     20  O   UNL     1       5.663   5.977  15.326  0.00  0.00    +0.000 OA
ATOM     21  O   UNL     1       7.784   4.697  15.733  0.00  0.00    +0.000 OA
BRANCH  19  24
ATOM     22  C   UNL     1       7.809   7.380  17.914  0.00  0.00    +0.000 C 
ATOM     23  O   UNL     1       8.119   6.581  18.789  0.00  0.00    +0.000 OA
ATOM     24  N   UNL     1       7.604   7.027  16.576  0.00  0.00    +0.000 N 
ATOM     25  H   UNL     1       7.259   7.807  16.025  0.00  0.00    +0.000 HD
BRANCH  22  26
ATOM     26  O   UNL     1       7.587   8.701  18.113  0.00  0.00    +0.000 OA
BRANCH  26  27
ATOM     27  C   UNL     1       8.746   9.537  17.996  0.00  0.00    +0.000 C 
BRANCH  27  28
ATOM     28  C   UNL     1       9.234  10.140  19.318  0.00  0.00    +0.000 C 
BRANCH  28  29
ATOM     29  C   UNL     1       9.205  11.681  19.249  0.00  0.00    +0.000 C 
BRANCH  29  30
ATOM     30  C   UNL     1       9.146  12.230  17.818  0.00  0.00    +0.000 C 
BRANCH  30  31
ATOM     31  C   UNL     1       8.100  13.349  17.674  0.00  0.00    +0.000 C 
BRANCH  31  32
ATOM     32  C   UNL     1       8.445  14.562  18.548  0.00  0.00    +0.000 C 
BRANCH  32  34
ATOM     33  C   UNL     1       7.896  15.410  20.862  0.00  0.00    +0.000 C 
ATOM     34  C   UNL     1       7.332  14.888  19.548  0.00  0.00    +0.000 C 
ENDBRANCH  32  34
ENDBRANCH  31  32
ENDBRANCH  30  31
ENDBRANCH  29  30
ENDBRANCH  28  29
ENDBRANCH  27  28
ENDBRANCH  26  27
ENDBRANCH  22  26
ENDBRANCH  19  24
ENDBRANCH   1  19
TORSDOF 12
ENDMDL
