MODEL 1
REMARK VINA RESULT:      -8.6      0.000      0.000
REMARK  Name = 
REMARK  7 active torsions:
REMARK  status: ('A' for Active; 'I' for Inactive)
REMARK    1  A    between atoms: N_1  and  C_2
REMARK    2  A    between atoms: C_2  and  C_3
REMARK    3  A    between atoms: C_2  and  C_11
REMARK    4  A    between atoms: C_11  and  C_12
REMARK    5  A    between atoms: C_11  and  C_15
REMARK    6  A    between atoms: C_12  and  O_14
REMARK    7  A    between atoms: C_18  and  C_19
REMARK                            x       y       z     vdW  Elec       q    Type
REMARK                         _______ _______ _______ _____ _____    ______ ____
ROOT
ATOM      1  C   UNL     1       6.266   5.096  17.205  0.00  0.00    +0.000 C 
ENDROOT
BRANCH   1   2
ATOM      2  C   UNL     1       7.020   6.374  17.707  0.00  0.00    +0.000 A 
ATOM      3  C   UNL     1       6.864   7.602  17.038  0.00  0.00    +0.000 A 
ATOM      4  C   UNL     1       7.575   8.765  17.438  0.00  0.00    +0.000 A 
ATOM      5  C   UNL     1       8.453   8.765  18.529  0.00  0.00    +0.000 A 
ATOM      6  C   UNL     1       8.598   7.540  19.204  0.00  0.00    +0.000 A 
ATOM      7  C   UNL     1       7.887   6.373  18.808  0.00  0.00    +0.000 A 
BRANCH   5   8
ATOM      8  C   UNL     1       9.201  10.010  18.905  0.00  0.00    +0.000 A 
ATOM      9  C   UNL     1       9.323  10.405  20.257  0.00  0.00    +0.000 A 
ATOM     10  C   UNL     1       9.912  11.620  20.630  0.00  0.00    +0.000 A 
ATOM     11  C   UNL     1      10.417  12.463  19.652  0.00  0.00    +0.000 A 
ATOM     12  F   UNL     1      10.957  13.638  20.002  0.00  0.00    +0.000 F 
ATOM     13  C   UNL     1      10.357  12.102  18.314  0.00  0.00    +0.000 A 
ATOM     14  C   UNL     1       9.762  10.882  17.944  0.00  0.00    +0.000 A 
ENDBRANCH   5   8
ENDBRANCH   1   2
BRANCH   1  15
ATOM     15  C   UNL     1       6.465   4.855  15.709  0.00  0.00    +0.000 C 
ATOM     16  O   UNL     1       7.547   4.706  15.156  0.00  0.00    +0.000 OA
BRANCH  15  17
ATOM     17  O   UNL     1       5.311   4.825  14.995  0.00  0.00    +0.000 OA
ATOM     18  H   UNL     1       5.310   4.221  14.209  0.00  0.00    +0.000 HD
ENDBRANCH  15  17
ENDBRANCH   1  15
BRANCH   1  19
ATOM     19  C   UNL     1       4.702   5.013  17.515  0.00  0.00    +0.000 C 
BRANCH  19  20
ATOM     20  C   UNL     1       4.414   4.140  18.842  0.00  0.00    +0.000 C 
ATOM     21  O   UNL     1       5.410   3.659  19.415  0.00  0.00    +0.000 OA
ATOM     22  N   UNL     1       3.148   3.850  19.357  0.00  0.00    +0.000 N 
ATOM     23  C   UNL     1       3.014   3.027  20.571  0.00  0.00    +0.000 C 
ATOM     24  C   UNL     1       1.515   2.827  20.828  0.00  0.00    +0.000 C 
ATOM     25  C   UNL     1       0.909   3.010  19.451  0.00  0.00    +0.000 C 
ATOM     26  F   UNL     1       1.020   1.848  18.756  0.00  0.00    +0.000 F 
ATOM     27  C   UNL     1       1.801   4.087  18.815  0.00  0.00    +0.000 C 
ENDBRANCH  19  20
BRANCH  19  28
ATOM     28  N   UNL     1       4.210   6.400  17.695  0.00  0.00    +0.000 NA
ATOM     29  H   UNL     1       5.016   7.019  17.814  0.00  0.00    +0.000 HD
ATOM     30  H   UNL     1       3.733   6.483  18.607  0.00  0.00    +0.000 HD
ENDBRANCH  19  28
ENDBRANCH   1  19
TORSDOF 7
ENDMDL
MODEL 2
REMARK VINA RESULT:      -8.5      0.264      1.328
REMARK  Name = 
REMARK  7 active torsions:
REMARK  status: ('A' for Active; 'I' for Inactive)
REMARK    1  A    between atoms: N_1  and  C_2
REMARK    2  A    between atoms: C_2  and  C_3
REMARK    3  A    between atoms: C_2  and  C_11
REMARK    4  A    between atoms: C_11  and  C_12
REMARK    5  A    between atoms: C_11  and  C_15
REMARK    6  A    between atoms: C_12  and  O_14
REMARK    7  A    between atoms: C_18  and  C_19
REMARK                            x       y       z     vdW  Elec       q    Type
REMARK                         _______ _______ _______ _____ _____    ______ ____
ROOT
ATOM      1  C   UNL     1       6.327   5.151  17.307  0.00  0.00    +0.000 C 
ENDROOT
BRANCH   1   2
ATOM      2  C   UNL     1       7.088   6.469  17.678  0.00  0.00    +0.000 A 
ATOM      3  C   UNL     1       7.982   6.492  18.765  0.00  0.00    +0.000 A 
ATOM      4  C   UNL     1       8.647   7.684  19.158  0.00  0.00    +0.000 A 
ATOM      5  C   UNL     1       8.471   8.897  18.479  0.00  0.00    +0.000 A 
ATOM      6  C   UNL     1       7.587   8.868  17.385  0.00  0.00    +0.000 A 
ATOM      7  C   UNL     1       6.919   7.676  16.988  0.00  0.00    +0.000 A 
BRANCH   5   8
ATOM      8  C   UNL     1       9.176  10.138  18.940  0.00  0.00    +0.000 A 
ATOM      9  C   UNL     1       9.864  10.967  18.024  0.00  0.00    +0.000 A 
ATOM     10  C   UNL     1      10.628  12.066  18.439  0.00  0.00    +0.000 A 
ATOM     11  C   UNL     1      10.703  12.375  19.788  0.00  0.00    +0.000 A 
ATOM     12  F   UNL     1      11.455  13.408  20.191  0.00  0.00    +0.000 F 
ATOM     13  C   UNL     1      10.014  11.615  20.721  0.00  0.00    +0.000 A 
ATOM     14  C   UNL     1       9.250  10.511  20.301  0.00  0.00    +0.000 A 
ENDBRANCH   5   8
ENDBRANCH   1   2
BRANCH   1  15
ATOM     15  C   UNL     1       6.514   4.766  15.840  0.00  0.00    +0.000 C 
ATOM     16  O   UNL     1       7.471   5.080  15.144  0.00  0.00    +0.000 OA
BRANCH  15  17
ATOM     17  O   UNL     1       5.497   4.027  15.328  0.00  0.00    +0.000 OA
ATOM     18  H   UNL     1       5.717   3.502  14.516  0.00  0.00    +0.000 HD
ENDBRANCH  15  17
ENDBRANCH   1  15
BRANCH   1  19
ATOM     19  C   UNL     1       4.765   5.103  17.636  0.00  0.00    +0.000 C 
BRANCH  19  20
ATOM     20  C   UNL     1       4.461   4.133  18.889  0.00  0.00    +0.000 C 
ATOM     21  O   UNL     1       5.447   3.587  19.420  0.00  0.00    +0.000 OA
ATOM     22  N   UNL     1       3.189   3.829  19.382  0.00  0.00    +0.000 N 
ATOM     23  C   UNL     1       3.039   2.915  20.527  0.00  0.00    +0.000 C 
ATOM     24  C   UNL     1       1.537   2.726  20.771  0.00  0.00    +0.000 C 
ATOM     25  C   UNL     1       0.933   3.031  19.414  0.00  0.00    +0.000 C 
ATOM     26  F   UNL     1       1.019   1.925  18.629  0.00  0.00    +0.000 F 
ATOM     27  C   UNL     1       1.847   4.136  18.864  0.00  0.00    +0.000 C 
ENDBRANCH  19  20
BRANCH  19  28
ATOM     28  N   UNL     1       4.332   6.488  17.939  0.00  0.00    +0.000 NA
ATOM     29  H   UNL     1       3.343   6.581  17.694  0.00  0.00    +0.000 HD
ATOM     30  H   UNL     1       4.784   7.144  17.282  0.00  0.00    +0.000 HD
ENDBRANCH  19  28
ENDBRANCH   1  19
TORSDOF 7
ENDMDL
MODEL 3
REMARK VINA RESULT:      -8.4      4.428      7.103
REMARK  Name = 
REMARK  7 active torsions:
REMARK  status: ('A' for Active; 'I' for Inactive)
REMARK    1  A    between atoms: N_1  and  C_2
REMARK    2  A    between atoms: C_2  and  C_3
REMARK    3  A    between atoms: C_2  and  C_11
REMARK    4  A    between atoms: C_11  and  C_12
REMARK    5  A    between atoms: C_11  and  C_15
REMARK    6  A    between atoms: C_12  and  O_14
REMARK    7  A    between atoms: C_18  and  C_19
REMARK                            x       y       z     vdW  Elec       q    Type
REMARK                         _______ _______ _______ _____ _____    ______ ____
ROOT
ATOM      1  C   UNL     1       2.844   3.487  17.837  0.00  0.00    +0.000 C 
ENDROOT
BRANCH   1   2
ATOM      2  C   UNL     1       2.468   4.830  18.549  0.00  0.00    +0.000 A 
ATOM      3  C   UNL     1       1.933   4.820  19.851  0.00  0.00    +0.000 A 
ATOM      4  C   UNL     1       1.534   6.018  20.503  0.00  0.00    +0.000 A 
ATOM      5  C   UNL     1       1.668   7.276  19.902  0.00  0.00    +0.000 A 
ATOM      6  C   UNL     1       2.215   7.284  18.606  0.00  0.00    +0.000 A 
ATOM      7  C   UNL     1       2.617   6.088  17.949  0.00  0.00    +0.000 A 
BRANCH   5   8
ATOM      8  C   UNL     1       1.215   8.514  20.616  0.00  0.00    +0.000 A 
ATOM      9  C   UNL     1       1.021   8.516  22.017  0.00  0.00    +0.000 A 
ATOM     10  C   UNL     1       0.488   9.620  22.696  0.00  0.00    +0.000 A 
ATOM     11  C   UNL     1       0.155  10.763  21.985  0.00  0.00    +0.000 A 
ATOM     12  F   UNL     1      -0.381  11.810  22.627  0.00  0.00    +0.000 F 
ATOM     13  C   UNL     1       0.363  10.824  20.616  0.00  0.00    +0.000 A 
ATOM     14  C   UNL     1       0.897   9.712  19.938  0.00  0.00    +0.000 A 
ENDBRANCH   5   8
ENDBRANCH   1   2
BRANCH   1  15
ATOM     15  C   UNL     1       1.962   2.323  18.290  0.00  0.00    +0.000 C 
ATOM     16  O   UNL     1       0.738   2.338  18.329  0.00  0.00    +0.000 OA
BRANCH  15  17
ATOM     17  O   UNL     1       2.656   1.222  18.676  0.00  0.00    +0.000 OA
ATOM     18  H   UNL     1       2.750   1.098  19.655  0.00  0.00    +0.000 HD
ENDBRANCH  15  17
ENDBRANCH   1  15
BRANCH   1  19
ATOM     19  C   UNL     1       4.367   3.020  17.934  0.00  0.00    +0.000 C 
BRANCH  19  20
ATOM     20  C   UNL     1       5.342   4.039  17.148  0.00  0.00    +0.000 C 
ATOM     21  O   UNL     1       5.456   3.861  15.920  0.00  0.00    +0.000 OA
ATOM     22  N   UNL     1       6.091   5.057  17.743  0.00  0.00    +0.000 N 
ATOM     23  C   UNL     1       6.959   5.915  16.918  0.00  0.00    +0.000 C 
ATOM     24  C   UNL     1       7.697   6.869  17.866  0.00  0.00    +0.000 C 
ATOM     25  C   UNL     1       7.685   6.115  19.181  0.00  0.00    +0.000 C 
ATOM     26  F   UNL     1       8.698   5.209  19.185  0.00  0.00    +0.000 F 
ATOM     27  C   UNL     1       6.332   5.388  19.156  0.00  0.00    +0.000 C 
ENDBRANCH  19  20
BRANCH  19  28
ATOM     28  N   UNL     1       4.726   2.969  19.372  0.00  0.00    +0.000 NA
ATOM     29  H   UNL     1       4.913   1.996  19.626  0.00  0.00    +0.000 HD
ATOM     30  H   UNL     1       3.896   3.190  19.944  0.00  0.00    +0.000 HD
ENDBRANCH  19  28
ENDBRANCH   1  19
TORSDOF 7
ENDMDL
MODEL 4
REMARK VINA RESULT:      -8.4      5.033      7.090
REMARK  Name = 
REMARK  7 active torsions:
REMARK  status: ('A' for Active; 'I' for Inactive)
REMARK    1  A    between atoms: N_1  and  C_2
REMARK    2  A    between atoms: C_2  and  C_3
REMARK    3  A    between atoms: C_2  and  C_11
REMARK    4  A    between atoms: C_11  and  C_12
REMARK    5  A    between atoms: C_11  and  C_15
REMARK    6  A    between atoms: C_12  and  O_14
REMARK    7  A    between atoms: C_18  and  C_19
REMARK                            x       y       z     vdW  Elec       q    Type
REMARK                         _______ _______ _______ _____ _____    ______ ____
ROOT
ATOM      1  C   UNL     1       4.774   4.493  17.657  0.00  0.00    +0.000 C 
ENDROOT
BRANCH   1   2
ATOM      2  C   UNL     1       3.899   5.718  18.091  0.00  0.00    +0.000 A 
ATOM      3  C   UNL     1       3.129   5.660  19.268  0.00  0.00    +0.000 A 
ATOM      4  C   UNL     1       2.286   6.734  19.660  0.00  0.00    +0.000 A 
ATOM      5  C   UNL     1       2.188   7.917  18.916  0.00  0.00    +0.000 A 
ATOM      6  C   UNL     1       2.969   7.977  17.748  0.00  0.00    +0.000 A 
ATOM      7  C   UNL     1       3.815   6.904  17.352  0.00  0.00    +0.000 A 
BRANCH   5   8
ATOM      8  C   UNL     1       1.269   9.019  19.355  0.00  0.00    +0.000 A 
ATOM      9  C   UNL     1       0.983   9.226  20.724  0.00  0.00    +0.000 A 
ATOM     10  C   UNL     1       0.040  10.169  21.156  0.00  0.00    +0.000 A 
ATOM     11  C   UNL     1      -0.624  10.947  20.221  0.00  0.00    +0.000 A 
ATOM     12  F   UNL     1      -1.546  11.831  20.628  0.00  0.00    +0.000 F 
ATOM     13  C   UNL     1      -0.349  10.810  18.869  0.00  0.00    +0.000 A 
ATOM     14  C   UNL     1       0.596   9.860  18.440  0.00  0.00    +0.000 A 
ENDBRANCH   5   8
ENDBRANCH   1   2
BRANCH   1  15
ATOM     15  C   UNL     1       4.422   3.224  18.433  0.00  0.00    +0.000 C 
ATOM     16  O   UNL     1       3.499   2.466  18.167  0.00  0.00    +0.000 OA
BRANCH  15  17
ATOM     17  O   UNL     1       5.232   2.985  19.497  0.00  0.00    +0.000 OA
ATOM     18  H   UNL     1       4.840   2.422  20.213  0.00  0.00    +0.000 HD
ENDBRANCH  15  17
ENDBRANCH   1  15
BRANCH   1  19
ATOM     19  C   UNL     1       6.358   4.682  17.709  0.00  0.00    +0.000 C 
BRANCH  19  20
ATOM     20  C   UNL     1       6.925   5.261  16.313  0.00  0.00    +0.000 C 
ATOM     21  O   UNL     1       7.426   6.400  16.348  0.00  0.00    +0.000 OA
ATOM     22  N   UNL     1       6.852   4.606  15.081  0.00  0.00    +0.000 N 
ATOM     23  C   UNL     1       7.394   5.246  13.870  0.00  0.00    +0.000 C 
ATOM     24  C   UNL     1       7.091   4.320  12.685  0.00  0.00    +0.000 C 
ATOM     25  C   UNL     1       5.889   3.534  13.170  0.00  0.00    +0.000 C 
ATOM     26  F   UNL     1       4.765   4.272  12.975  0.00  0.00    +0.000 F 
ATOM     27  C   UNL     1       6.156   3.375  14.674  0.00  0.00    +0.000 C 
ENDBRANCH  19  20
BRANCH  19  28
ATOM     28  N   UNL     1       6.657   5.623  18.816  0.00  0.00    +0.000 NA
ATOM     29  H   UNL     1       7.147   6.434  18.430  0.00  0.00    +0.000 HD
ATOM     30  H   UNL     1       7.370   5.210  19.438  0.00  0.00    +0.000 HD
ENDBRANCH  19  28
ENDBRANCH   1  19
TORSDOF 7
ENDMDL
MODEL 5
REMARK VINA RESULT:      -8.3      5.193      7.280
REMARK  Name = 
REMARK  7 active torsions:
REMARK  status: ('A' for Active; 'I' for Inactive)
REMARK    1  A    between atoms: N_1  and  C_2
REMARK    2  A    between atoms: C_2  and  C_3
REMARK    3  A    between atoms: C_2  and  C_11
REMARK    4  A    between atoms: C_11  and  C_12
REMARK    5  A    between atoms: C_11  and  C_15
REMARK    6  A    between atoms: C_12  and  O_14
REMARK    7  A    between atoms: C_18  and  C_19
REMARK                            x       y       z     vdW  Elec       q    Type
REMARK                         _______ _______ _______ _____ _____    ______ ____
ROOT
ATOM      1  C   UNL     1       4.020   4.787  17.270  0.00  0.00    +0.000 C 
ENDROOT
BRANCH   1   2
ATOM      2  C   UNL     1       3.299   5.873  18.140  0.00  0.00    +0.000 A 
ATOM      3  C   UNL     1       2.807   5.549  19.418  0.00  0.00    +0.000 A 
ATOM      4  C   UNL     1       2.103   6.496  20.208  0.00  0.00    +0.000 A 
ATOM      5  C   UNL     1       1.877   7.810  19.776  0.00  0.00    +0.000 A 
ATOM      6  C   UNL     1       2.381   8.134  18.503  0.00  0.00    +0.000 A 
ATOM      7  C   UNL     1       3.087   7.189  17.709  0.00  0.00    +0.000 A 
BRANCH   5   8
ATOM      8  C   UNL     1       1.111   8.773  20.633  0.00  0.00    +0.000 A 
ATOM      9  C   UNL     1       1.143   8.676  22.043  0.00  0.00    +0.000 A 
ATOM     10  C   UNL     1       0.347   9.486  22.865  0.00  0.00    +0.000 A 
ATOM     11  C   UNL     1      -0.487  10.432  22.290  0.00  0.00    +0.000 A 
ATOM     12  F   UNL     1      -1.269  11.189  23.072  0.00  0.00    +0.000 F 
ATOM     13  C   UNL     1      -0.524  10.592  20.913  0.00  0.00    +0.000 A 
ATOM     14  C   UNL     1       0.274   9.775  20.092  0.00  0.00    +0.000 A 
ENDBRANCH   5   8
ENDBRANCH   1   2
BRANCH   1  15
ATOM     15  C   UNL     1       3.421   3.395  17.466  0.00  0.00    +0.000 C 
ATOM     16  O   UNL     1       2.330   3.029  17.047  0.00  0.00    +0.000 OA
BRANCH  15  17
ATOM     17  O   UNL     1       4.209   2.550  18.180  0.00  0.00    +0.000 OA
ATOM     18  H   UNL     1       5.169   2.796  18.224  0.00  0.00    +0.000 HD
ENDBRANCH  15  17
ENDBRANCH   1  15
BRANCH   1  19
ATOM     19  C   UNL     1       5.604   4.672  17.427  0.00  0.00    +0.000 C 
BRANCH  19  20
ATOM     20  C   UNL     1       6.365   5.266  16.134  0.00  0.00    +0.000 C 
ATOM     21  O   UNL     1       6.796   6.431  16.232  0.00  0.00    +0.000 OA
ATOM     22  N   UNL     1       6.531   4.597  14.919  0.00  0.00    +0.000 N 
ATOM     23  C   UNL     1       7.235   5.254  13.804  0.00  0.00    +0.000 C 
ATOM     24  C   UNL     1       7.180   4.302  12.602  0.00  0.00    +0.000 C 
ATOM     25  C   UNL     1       5.955   3.459  12.894  0.00  0.00    +0.000 C 
ATOM     26  F   UNL     1       4.843   4.136  12.502  0.00  0.00    +0.000 F 
ATOM     27  C   UNL     1       5.976   3.328  14.424  0.00  0.00    +0.000 C 
ENDBRANCH  19  20
BRANCH  19  28
ATOM     28  N   UNL     1       5.986   5.429  18.644  0.00  0.00    +0.000 NA
ATOM     29  H   UNL     1       5.314   6.187  18.780  0.00  0.00    +0.000 HD
ATOM     30  H   UNL     1       6.865   5.942  18.470  0.00  0.00    +0.000 HD
ENDBRANCH  19  28
ENDBRANCH   1  19
TORSDOF 7
ENDMDL
MODEL 6
REMARK VINA RESULT:      -8.3      4.618      7.002
REMARK  Name = 
REMARK  7 active torsions:
REMARK  status: ('A' for Active; 'I' for Inactive)
REMARK    1  A    between atoms: N_1  and  C_2
REMARK    2  A    between atoms: C_2  and  C_3
REMARK    3  A    between atoms: C_2  and  C_11
REMARK    4  A    between atoms: C_11  and  C_12
REMARK    5  A    between atoms: C_11  and  C_15
REMARK    6  A    between atoms: C_12  and  O_14
REMARK    7  A    between atoms: C_18  and  C_19
REMARK                            x       y       z     vdW  Elec       q    Type
REMARK                         _______ _______ _______ _____ _____    ______ ____
ROOT
ATOM      1  C   UNL     1       2.921   3.592  18.288  0.00  0.00    +0.000 C 
ENDROOT
BRANCH   1   2
ATOM      2  C   UNL     1       2.393   4.913  18.944  0.00  0.00    +0.000 A 
ATOM      3  C   UNL     1       2.506   6.140  18.264  0.00  0.00    +0.000 A 
ATOM      4  C   UNL     1       2.085   7.361  18.854  0.00  0.00    +0.000 A 
ATOM      5  C   UNL     1       1.515   7.415  20.133  0.00  0.00    +0.000 A 
ATOM      6  C   UNL     1       1.391   6.186  20.805  0.00  0.00    +0.000 A 
ATOM      7  C   UNL     1       1.811   4.960  20.217  0.00  0.00    +0.000 A 
BRANCH   5   8
ATOM      8  C   UNL     1       1.103   8.729  20.728  0.00  0.00    +0.000 A 
ATOM      9  C   UNL     1       0.724   8.825  22.087  0.00  0.00    +0.000 A 
ATOM     10  C   UNL     1       0.224  10.011  22.641  0.00  0.00    +0.000 A 
ATOM     11  C   UNL     1       0.111  11.141  21.847  0.00  0.00    +0.000 A 
ATOM     12  F   UNL     1      -0.393  12.269  22.366  0.00  0.00    +0.000 F 
ATOM     13  C   UNL     1       0.506  11.108  20.518  0.00  0.00    +0.000 A 
ATOM     14  C   UNL     1       1.006   9.915  19.965  0.00  0.00    +0.000 A 
ENDBRANCH   5   8
ENDBRANCH   1   2
BRANCH   1  15
ATOM     15  C   UNL     1       1.901   2.457  18.366  0.00  0.00    +0.000 C 
ATOM     16  O   UNL     1       0.688   2.589  18.262  0.00  0.00    +0.000 OA
BRANCH  15  17
ATOM     17  O   UNL     1       2.450   1.234  18.581  0.00  0.00    +0.000 OA
ATOM     18  H   UNL     1       3.402   1.141  18.320  0.00  0.00    +0.000 HD
ENDBRANCH  15  17
ENDBRANCH   1  15
BRANCH   1  19
ATOM     19  C   UNL     1       4.322   3.035  18.813  0.00  0.00    +0.000 C 
BRANCH  19  20
ATOM     20  C   UNL     1       5.519   4.070  18.496  0.00  0.00    +0.000 C 
ATOM     21  O   UNL     1       6.060   4.610  19.480  0.00  0.00    +0.000 OA
ATOM     22  N   UNL     1       5.953   4.433  17.218  0.00  0.00    +0.000 N 
ATOM     23  C   UNL     1       7.051   5.402  17.058  0.00  0.00    +0.000 C 
ATOM     24  C   UNL     1       7.232   5.647  15.554  0.00  0.00    +0.000 C 
ATOM     25  C   UNL     1       5.870   5.298  14.988  0.00  0.00    +0.000 C 
ATOM     26  F   UNL     1       5.040   6.364  15.136  0.00  0.00    +0.000 F 
ATOM     27  C   UNL     1       5.402   4.142  15.885  0.00  0.00    +0.000 C 
ENDBRANCH  19  20
BRANCH  19  28
ATOM     28  N   UNL     1       4.197   2.824  20.276  0.00  0.00    +0.000 NA
ATOM     29  H   UNL     1       4.992   3.271  20.738  0.00  0.00    +0.000 HD
ATOM     30  H   UNL     1       4.347   1.827  20.496  0.00  0.00    +0.000 HD
ENDBRANCH  19  28
ENDBRANCH   1  19
TORSDOF 7
ENDMDL
MODEL 7
REMARK VINA RESULT:      -8.2      4.664      7.119
REMARK  Name = 
REMARK  7 active torsions:
REMARK  status: ('A' for Active; 'I' for Inactive)
REMARK    1  A    between atoms: N_1  and  C_2
REMARK    2  A    between atoms: C_2  and  C_3
REMARK    3  A    between atoms: C_2  and  C_11
REMARK    4  A    between atoms: C_11  and  C_12
REMARK    5  A    between atoms: C_11  and  C_15
REMARK    6  A    between atoms: C_12  and  O_14
REMARK    7  A    between atoms: C_18  and  C_19
REMARK                            x       y       z     vdW  Elec       q    Type
REMARK                         _______ _______ _______ _____ _____    ______ ____
ROOT
ATOM      1  C   UNL     1       2.887   3.737  18.476  0.00  0.00    +0.000 C 
ENDROOT
BRANCH   1   2
ATOM      2  C   UNL     1       2.451   5.103  19.107  0.00  0.00    +0.000 A 
ATOM      3  C   UNL     1       1.783   5.134  20.345  0.00  0.00    +0.000 A 
ATOM      4  C   UNL     1       1.329   6.353  20.917  0.00  0.00    +0.000 A 
ATOM      5  C   UNL     1       1.537   7.592  20.297  0.00  0.00    +0.000 A 
ATOM      6  C   UNL     1       2.216   7.559  19.066  0.00  0.00    +0.000 A 
ATOM      7  C   UNL     1       2.673   6.341  18.490  0.00  0.00    +0.000 A 
BRANCH   5   8
ATOM      8  C   UNL     1       1.022   8.854  20.925  0.00  0.00    +0.000 A 
ATOM      9  C   UNL     1       0.563   8.866  22.262  0.00  0.00    +0.000 A 
ATOM     10  C   UNL     1      -0.030   9.997  22.838  0.00  0.00    +0.000 A 
ATOM     11  C   UNL     1      -0.158  11.157  22.089  0.00  0.00    +0.000 A 
ATOM     12  F   UNL     1      -0.750  12.232  22.627  0.00  0.00    +0.000 F 
ATOM     13  C   UNL     1       0.313  11.207  20.786  0.00  0.00    +0.000 A 
ATOM     14  C   UNL     1       0.906  10.068  20.211  0.00  0.00    +0.000 A 
ENDBRANCH   5   8
ENDBRANCH   1   2
BRANCH   1  15
ATOM     15  C   UNL     1       1.833   2.647  18.666  0.00  0.00    +0.000 C 
ATOM     16  O   UNL     1       1.984   1.626  19.325  0.00  0.00    +0.000 OA
BRANCH  15  17
ATOM     17  O   UNL     1       0.665   2.888  18.017  0.00  0.00    +0.000 OA
ATOM     18  H   UNL     1       0.552   3.810  17.670  0.00  0.00    +0.000 HD
ENDBRANCH  15  17
ENDBRANCH   1  15
BRANCH   1  19
ATOM     19  C   UNL     1       4.298   3.147  18.936  0.00  0.00    +0.000 C 
BRANCH  19  20
ATOM     20  C   UNL     1       5.506   4.140  18.537  0.00  0.00    +0.000 C 
ATOM     21  O   UNL     1       6.051   4.755  19.473  0.00  0.00    +0.000 OA
ATOM     22  N   UNL     1       5.945   4.391  17.235  0.00  0.00    +0.000 N 
ATOM     23  C   UNL     1       7.052   5.333  16.996  0.00  0.00    +0.000 C 
ATOM     24  C   UNL     1       7.238   5.449  15.478  0.00  0.00    +0.000 C 
ATOM     25  C   UNL     1       5.873   5.068  14.940  0.00  0.00    +0.000 C 
ATOM     26  F   UNL     1       5.054   6.151  14.996  0.00  0.00    +0.000 F 
ATOM     27  C   UNL     1       5.393   3.996  15.929  0.00  0.00    +0.000 C 
ENDBRANCH  19  20
BRANCH  19  28
ATOM     28  N   UNL     1       4.245   2.966  20.407  0.00  0.00    +0.000 NA
ATOM     29  H   UNL     1       4.536   2.010  20.628  0.00  0.00    +0.000 HD
ATOM     30  H   UNL     1       3.262   2.975  20.723  0.00  0.00    +0.000 HD
ENDBRANCH  19  28
ENDBRANCH   1  19
TORSDOF 7
ENDMDL
MODEL 8
REMARK VINA RESULT:      -8.2      4.887      6.904
REMARK  Name = 
REMARK  7 active torsions:
REMARK  status: ('A' for Active; 'I' for Inactive)
REMARK    1  A    between atoms: N_1  and  C_2
REMARK    2  A    between atoms: C_2  and  C_3
REMARK    3  A    between atoms: C_2  and  C_11
REMARK    4  A    between atoms: C_11  and  C_12
REMARK    5  A    between atoms: C_11  and  C_15
REMARK    6  A    between atoms: C_12  and  O_14
REMARK    7  A    between atoms: C_18  and  C_19
REMARK                            x       y       z     vdW  Elec       q    Type
REMARK                         _______ _______ _______ _____ _____    ______ ____
ROOT
ATOM      1  C   UNL     1       4.777   4.473  17.732  0.00  0.00    +0.000 C 
ENDROOT
BRANCH   1   2
ATOM      2  C   UNL     1       3.842   5.648  18.179  0.00  0.00    +0.000 A 
ATOM      3  C   UNL     1       3.771   6.829  17.417  0.00  0.00    +0.000 A 
ATOM      4  C   UNL     1       2.973   7.932  17.824  0.00  0.00    +0.000 A 
ATOM      5  C   UNL     1       2.196   7.903  18.990  0.00  0.00    +0.000 A 
ATOM      6  C   UNL     1       2.259   6.716  19.742  0.00  0.00    +0.000 A 
ATOM      7  C   UNL     1       3.056   5.609  19.338  0.00  0.00    +0.000 A 
BRANCH   5   8
ATOM      8  C   UNL     1       1.384   9.097  19.395  0.00  0.00    +0.000 A 
ATOM      9  C   UNL     1       1.103  10.132  18.473  0.00  0.00    +0.000 A 
ATOM     10  C   UNL     1       0.449  11.312  18.852  0.00  0.00    +0.000 A 
ATOM     11  C   UNL     1       0.039  11.474  20.166  0.00  0.00    +0.000 A 
ATOM     12  F   UNL     1      -0.562  12.612  20.538  0.00  0.00    +0.000 F 
ATOM     13  C   UNL     1       0.257  10.470  21.098  0.00  0.00    +0.000 A 
ATOM     14  C   UNL     1       0.916   9.288  20.714  0.00  0.00    +0.000 A 
ENDBRANCH   5   8
ENDBRANCH   1   2
BRANCH   1  15
ATOM     15  C   UNL     1       4.468   3.172  18.473  0.00  0.00    +0.000 C 
ATOM     16  O   UNL     1       3.566   2.395  18.190  0.00  0.00    +0.000 OA
BRANCH  15  17
ATOM     17  O   UNL     1       5.291   2.927  19.525  0.00  0.00    +0.000 OA
ATOM     18  H   UNL     1       5.996   2.247  19.366  0.00  0.00    +0.000 HD
ENDBRANCH  15  17
ENDBRANCH   1  15
BRANCH   1  19
ATOM     19  C   UNL     1       6.350   4.730  17.817  0.00  0.00    +0.000 C 
BRANCH  19  20
ATOM     20  C   UNL     1       6.921   5.327  16.431  0.00  0.00    +0.000 C 
ATOM     21  O   UNL     1       7.394   6.479  16.477  0.00  0.00    +0.000 OA
ATOM     22  N   UNL     1       6.881   4.676  15.196  0.00  0.00    +0.000 N 
ATOM     23  C   UNL     1       7.424   5.334  13.994  0.00  0.00    +0.000 C 
ATOM     24  C   UNL     1       7.160   4.405  12.802  0.00  0.00    +0.000 C 
ATOM     25  C   UNL     1       5.971   3.588  13.268  0.00  0.00    +0.000 C 
ATOM     26  F   UNL     1       4.832   4.299  13.060  0.00  0.00    +0.000 F 
ATOM     27  C   UNL     1       6.222   3.429  14.775  0.00  0.00    +0.000 C 
ENDBRANCH  19  20
BRANCH  19  28
ATOM     28  N   UNL     1       6.585   5.686  18.926  0.00  0.00    +0.000 NA
ATOM     29  H   UNL     1       6.979   5.174  19.719  0.00  0.00    +0.000 HD
ATOM     30  H   UNL     1       5.680   6.011  19.301  0.00  0.00    +0.000 HD
ENDBRANCH  19  28
ENDBRANCH   1  19
TORSDOF 7
ENDMDL
MODEL 9
REMARK VINA RESULT:      -8.2      5.028      7.162
REMARK  Name = 
REMARK  7 active torsions:
REMARK  status: ('A' for Active; 'I' for Inactive)
REMARK    1  A    between atoms: N_1  and  C_2
REMARK    2  A    between atoms: C_2  and  C_3
REMARK    3  A    between atoms: C_2  and  C_11
REMARK    4  A    between atoms: C_11  and  C_12
REMARK    5  A    between atoms: C_11  and  C_15
REMARK    6  A    between atoms: C_12  and  O_14
REMARK    7  A    between atoms: C_18  and  C_19
REMARK                            x       y       z     vdW  Elec       q    Type
REMARK                         _______ _______ _______ _____ _____    ______ ____
ROOT
ATOM      1  C   UNL     1       4.037   4.200  18.115  0.00  0.00    +0.000 C 
ENDROOT
BRANCH   1   2
ATOM      2  C   UNL     1       3.210   5.335  18.810  0.00  0.00    +0.000 A 
ATOM      3  C   UNL     1       3.090   6.600  18.206  0.00  0.00    +0.000 A 
ATOM      4  C   UNL     1       2.392   7.664  18.836  0.00  0.00    +0.000 A 
ATOM      5  C   UNL     1       1.765   7.513  20.080  0.00  0.00    +0.000 A 
ATOM      6  C   UNL     1       1.875   6.244  20.676  0.00  0.00    +0.000 A 
ATOM      7  C   UNL     1       2.574   5.175  20.048  0.00  0.00    +0.000 A 
BRANCH   5   8
ATOM      8  C   UNL     1       1.055   8.669  20.722  0.00  0.00    +0.000 A 
ATOM      9  C   UNL     1       0.679   8.626  22.084  0.00  0.00    +0.000 A 
ATOM     10  C   UNL     1      -0.086   9.637  22.680  0.00  0.00    +0.000 A 
ATOM     11  C   UNL     1      -0.475  10.733  21.925  0.00  0.00    +0.000 A 
ATOM     12  F   UNL     1      -1.230  11.689  22.484  0.00  0.00    +0.000 F 
ATOM     13  C   UNL     1      -0.098  10.840  20.595  0.00  0.00    +0.000 A 
ATOM     14  C   UNL     1       0.668   9.821  20.000  0.00  0.00    +0.000 A 
ENDBRANCH   5   8
ENDBRANCH   1   2
BRANCH   1  15
ATOM     15  C   UNL     1       3.589   2.806  18.550  0.00  0.00    +0.000 C 
ATOM     16  O   UNL     1       2.529   2.276  18.241  0.00  0.00    +0.000 OA
BRANCH  15  17
ATOM     17  O   UNL     1       4.479   2.163  19.349  0.00  0.00    +0.000 OA
ATOM     18  H   UNL     1       4.204   1.262  19.657  0.00  0.00    +0.000 HD
ENDBRANCH  15  17
ENDBRANCH   1  15
BRANCH   1  19
ATOM     19  C   UNL     1       5.626   4.276  18.254  0.00  0.00    +0.000 C 
BRANCH  19  20
ATOM     20  C   UNL     1       6.280   5.127  17.049  0.00  0.00    +0.000 C 
ATOM     21  O   UNL     1       6.551   6.317  17.294  0.00  0.00    +0.000 OA
ATOM     22  N   UNL     1       6.515   4.646  15.759  0.00  0.00    +0.000 N 
ATOM     23  C   UNL     1       7.106   5.527  14.737  0.00  0.00    +0.000 C 
ATOM     24  C   UNL     1       7.160   4.737  13.423  0.00  0.00    +0.000 C 
ATOM     25  C   UNL     1       6.065   3.705  13.604  0.00  0.00    +0.000 C 
ATOM     26  F   UNL     1       4.866   4.269  13.301  0.00  0.00    +0.000 F 
ATOM     27  C   UNL     1       6.128   3.385  15.105  0.00  0.00    +0.000 C 
ENDBRANCH  19  20
BRANCH  19  28
ATOM     28  N   UNL     1       5.928   4.915  19.559  0.00  0.00    +0.000 NA
ATOM     29  H   UNL     1       5.046   5.102  20.041  0.00  0.00    +0.000 HD
ATOM     30  H   UNL     1       6.299   5.865  19.401  0.00  0.00    +0.000 HD
ENDBRANCH  19  28
ENDBRANCH   1  19
TORSDOF 7
ENDMDL
