MODEL 1
REMARK VINA RESULT:      -8.4      0.000      0.000
REMARK  Name = 
REMARK  10 active torsions:
REMARK  status: ('A' for Active; 'I' for Inactive)
REMARK    1  A    between atoms: C_1  and  O_2
REMARK    2  A    between atoms: O_2  and  C_3
REMARK    3  A    between atoms: C_6  and  C_7
REMARK    4  A    between atoms: N_9  and  C_10
REMARK    5  A    between atoms: C_13  and  N_14
REMARK    6  A    between atoms: N_14  and  C_15
REMARK    7  A    between atoms: N_14  and  C_16
REMARK    8  A    between atoms: C_16  and  C_17
REMARK    9  A    between atoms: C_23  and  C_24
REMARK   10  A    between atoms: C_24  and  O_26
REMARK                            x       y       z     vdW  Elec       q    Type
REMARK                         _______ _______ _______ _____ _____    ______ ____
ROOT
ATOM      1  C   UNL     1       1.749   7.449  20.057  0.00  0.00    +0.000 A 
ATOM      2  C   UNL     1       2.294   7.334  18.793  0.00  0.00    +0.000 A 
ATOM      3  C   UNL     1       2.750   6.105  18.329  0.00  0.00    +0.000 A 
ATOM      4  C   UNL     1       2.694   4.915  19.086  0.00  0.00    +0.000 A 
ATOM      5  C   UNL     1       2.056   5.016  20.361  0.00  0.00    +0.000 A 
ATOM      6  C   UNL     1       1.625   6.292  20.829  0.00  0.00    +0.000 A 
ENDROOT
BRANCH   1   9
ATOM      7  C   UNL     1       0.109   8.864  21.244  0.00  0.00    +0.000 C 
ATOM      8  O   UNL     1      -0.686   7.976  21.546  0.00  0.00    +0.000 OA
ATOM      9  N   UNL     1       1.321   8.683  20.598  0.00  0.00    +0.000 N 
ATOM     10  H   UNL     1       1.974   9.449  20.608  0.00  0.00    +0.000 HD
BRANCH   7  14
ATOM     11  C   UNL     1      -0.614  12.885  22.455  0.00  0.00    +0.000 A 
ATOM     12  C   UNL     1       0.149  12.604  21.337  0.00  0.00    +0.000 A 
ATOM     13  C   UNL     1       0.337  11.284  20.925  0.00  0.00    +0.000 A 
ATOM     14  C   UNL     1      -0.238  10.238  21.661  0.00  0.00    +0.000 A 
ATOM     15  C   UNL     1      -1.000  10.514  22.796  0.00  0.00    +0.000 A 
ATOM     16  C   UNL     1      -1.189  11.843  23.193  0.00  0.00    +0.000 A 
BRANCH  11  18
ATOM     17  C   UNL     1      -1.458  14.526  23.931  0.00  0.00    +0.000 C 
ATOM     18  O   UNL     1      -0.683  14.212  22.782  0.00  0.00    +0.000 OA
ENDBRANCH  11  18
ENDBRANCH   7  14
ENDBRANCH   1   9
BRANCH   4  19
ATOM     19  N   UNL     1       3.304   3.789  18.532  0.00  0.00    +0.000 N 
ATOM     20  C   UNL     1       2.641   2.970  17.506  0.00  0.00    +0.000 C 
BRANCH  19  21
ATOM     21  C   UNL     1       4.734   3.497  18.727  0.00  0.00    +0.000 C 
BRANCH  21  22
ATOM     22  C   UNL     1       5.682   4.580  18.234  0.00  0.00    +0.000 A 
ATOM     23  C   UNL     1       6.487   5.342  19.092  0.00  0.00    +0.000 A 
ATOM     24  C   UNL     1       7.393   6.277  18.584  0.00  0.00    +0.000 A 
ATOM     25  C   UNL     1       7.519   6.454  17.210  0.00  0.00    +0.000 A 
ATOM     26  C   UNL     1       6.753   5.682  16.340  0.00  0.00    +0.000 A 
ATOM     27  C   UNL     1       5.849   4.748  16.848  0.00  0.00    +0.000 A 
ENDBRANCH  21  22
ENDBRANCH  19  21
ENDBRANCH   4  19
BRANCH   5  28
ATOM     28  C   UNL     1       1.678   3.797  21.182  0.00  0.00    +0.000 C 
ATOM     29  O   UNL     1       2.270   3.424  22.180  0.00  0.00    +0.000 OA
BRANCH  28  30
ATOM     30  O   UNL     1       0.627   3.059  20.739  0.00  0.00    +0.000 OA
ATOM     31  H   UNL     1      -0.241   3.139  21.155  0.00  0.00    +0.000 HD
ENDBRANCH  28  30
ENDBRANCH   5  28
TORSDOF 8
ENDMDL
MODEL 2
REMARK VINA RESULT:      -8.4      0.233      1.287
REMARK  Name = 
REMARK  10 active torsions:
REMARK  status: ('A' for Active; 'I' for Inactive)
REMARK    1  A    between atoms: C_1  and  O_2
REMARK    2  A    between atoms: O_2  and  C_3
REMARK    3  A    between atoms: C_6  and  C_7
REMARK    4  A    between atoms: N_9  and  C_10
REMARK    5  A    between atoms: C_13  and  N_14
REMARK    6  A    between atoms: N_14  and  C_15
REMARK    7  A    between atoms: N_14  and  C_16
REMARK    8  A    between atoms: C_16  and  C_17
REMARK    9  A    between atoms: C_23  and  C_24
REMARK   10  A    between atoms: C_24  and  O_26
REMARK                            x       y       z     vdW  Elec       q    Type
REMARK                         _______ _______ _______ _____ _____    ______ ____
ROOT
ATOM      1  C   UNL     1       1.894   7.507  19.965  0.00  0.00    +0.000 A 
ATOM      2  C   UNL     1       2.382   7.350  18.682  0.00  0.00    +0.000 A 
ATOM      3  C   UNL     1       2.756   6.093  18.218  0.00  0.00    +0.000 A 
ATOM      4  C   UNL     1       2.671   4.917  18.994  0.00  0.00    +0.000 A 
ATOM      5  C   UNL     1       2.091   5.066  20.292  0.00  0.00    +0.000 A 
ATOM      6  C   UNL     1       1.743   6.368  20.758  0.00  0.00    +0.000 A 
ENDROOT
BRANCH   1   9
ATOM      7  C   UNL     1       0.353   9.033  21.147  0.00  0.00    +0.000 C 
ATOM      8  O   UNL     1      -0.503   8.201  21.448  0.00  0.00    +0.000 OA
ATOM      9  N   UNL     1       1.550   8.768  20.504  0.00  0.00    +0.000 N 
ATOM     10  H   UNL     1       2.254   9.487  20.516  0.00  0.00    +0.000 HD
BRANCH   7  14
ATOM     11  C   UNL     1      -0.658  13.005  22.313  0.00  0.00    +0.000 A 
ATOM     12  C   UNL     1      -1.200  11.911  22.963  0.00  0.00    +0.000 A 
ATOM     13  C   UNL     1      -0.823  10.617  22.602  0.00  0.00    +0.000 A 
ATOM     14  C   UNL     1       0.099  10.428  21.563  0.00  0.00    +0.000 A 
ATOM     15  C   UNL     1       0.642  11.526  20.895  0.00  0.00    +0.000 A 
ATOM     16  C   UNL     1       0.262  12.819  21.274  0.00  0.00    +0.000 A 
BRANCH  11  18
ATOM     17  C   UNL     1      -1.445  14.318  24.113  0.00  0.00    +0.000 C 
ATOM     18  O   UNL     1      -1.144  14.215  22.728  0.00  0.00    +0.000 OA
ENDBRANCH  11  18
ENDBRANCH   7  14
ENDBRANCH   1   9
BRANCH   4  19
ATOM     19  N   UNL     1       3.200   3.755  18.433  0.00  0.00    +0.000 N 
ATOM     20  C   UNL     1       2.471   2.976  17.421  0.00  0.00    +0.000 C 
BRANCH  19  21
ATOM     21  C   UNL     1       4.613   3.376  18.603  0.00  0.00    +0.000 C 
BRANCH  21  22
ATOM     22  C   UNL     1       5.617   4.390  18.073  0.00  0.00    +0.000 A 
ATOM     23  C   UNL     1       5.777   4.669  16.708  0.00  0.00    +0.000 A 
ATOM     24  C   UNL     1       6.663   5.659  16.277  0.00  0.00    +0.000 A 
ATOM     25  C   UNL     1       7.393   6.397  17.205  0.00  0.00    +0.000 A 
ATOM     26  C   UNL     1       7.223   6.159  18.566  0.00  0.00    +0.000 A 
ATOM     27  C   UNL     1       6.336   5.170  18.996  0.00  0.00    +0.000 A 
ENDBRANCH  21  22
ENDBRANCH  19  21
ENDBRANCH   4  19
BRANCH   5  28
ATOM     28  C   UNL     1       1.685   3.879  21.145  0.00  0.00    +0.000 C 
ATOM     29  O   UNL     1       2.278   3.508  22.142  0.00  0.00    +0.000 OA
BRANCH  28  30
ATOM     30  O   UNL     1       0.605   3.165  20.731  0.00  0.00    +0.000 OA
ATOM     31  H   UNL     1      -0.132   3.602  20.285  0.00  0.00    +0.000 HD
ENDBRANCH  28  30
ENDBRANCH   5  28
TORSDOF 8
ENDMDL
MODEL 3
REMARK VINA RESULT:      -8.3      0.447      1.013
REMARK  Name = 
REMARK  10 active torsions:
REMARK  status: ('A' for Active; 'I' for Inactive)
REMARK    1  A    between atoms: C_1  and  O_2
REMARK    2  A    between atoms: O_2  and  C_3
REMARK    3  A    between atoms: C_6  and  C_7
REMARK    4  A    between atoms: N_9  and  C_10
REMARK    5  A    between atoms: C_13  and  N_14
REMARK    6  A    between atoms: N_14  and  C_15
REMARK    7  A    between atoms: N_14  and  C_16
REMARK    8  A    between atoms: C_16  and  C_17
REMARK    9  A    between atoms: C_23  and  C_24
REMARK   10  A    between atoms: C_24  and  O_26
REMARK                            x       y       z     vdW  Elec       q    Type
REMARK                         _______ _______ _______ _____ _____    ______ ____
ROOT
ATOM      1  C   UNL     1       1.771   7.493  20.045  0.00  0.00    +0.000 A 
ATOM      2  C   UNL     1       2.342   7.381  18.792  0.00  0.00    +0.000 A 
ATOM      3  C   UNL     1       2.803   6.152  18.333  0.00  0.00    +0.000 A 
ATOM      4  C   UNL     1       2.727   4.960  19.085  0.00  0.00    +0.000 A 
ATOM      5  C   UNL     1       2.063   5.058  20.347  0.00  0.00    +0.000 A 
ATOM      6  C   UNL     1       1.627   6.334  20.811  0.00  0.00    +0.000 A 
ENDROOT
BRANCH   1   9
ATOM      7  C   UNL     1       0.139   8.897  21.256  0.00  0.00    +0.000 C 
ATOM      8  O   UNL     1      -0.634   7.999  21.591  0.00  0.00    +0.000 OA
ATOM      9  N   UNL     1       1.336   8.727  20.581  0.00  0.00    +0.000 N 
ATOM     10  H   UNL     1       1.976   9.503  20.566  0.00  0.00    +0.000 HD
BRANCH   7  14
ATOM     11  C   UNL     1      -0.621  12.913  22.460  0.00  0.00    +0.000 A 
ATOM     12  C   UNL     1       0.202  12.635  21.385  0.00  0.00    +0.000 A 
ATOM     13  C   UNL     1       0.403  11.317  20.973  0.00  0.00    +0.000 A 
ATOM     14  C   UNL     1      -0.221  10.270  21.665  0.00  0.00    +0.000 A 
ATOM     15  C   UNL     1      -1.044  10.542  22.758  0.00  0.00    +0.000 A 
ATOM     16  C   UNL     1      -1.245  11.870  23.155  0.00  0.00    +0.000 A 
BRANCH  11  18
ATOM     17  C   UNL     1      -0.102  15.142  21.873  0.00  0.00    +0.000 C 
ATOM     18  O   UNL     1      -0.698  14.238  22.794  0.00  0.00    +0.000 OA
ENDBRANCH  11  18
ENDBRANCH   7  14
ENDBRANCH   1   9
BRANCH   4  19
ATOM     19  N   UNL     1       3.344   3.834  18.539  0.00  0.00    +0.000 N 
ATOM     20  C   UNL     1       2.716   3.043  17.470  0.00  0.00    +0.000 C 
BRANCH  19  21
ATOM     21  C   UNL     1       4.759   3.515  18.794  0.00  0.00    +0.000 C 
BRANCH  21  22
ATOM     22  C   UNL     1       5.754   4.507  18.210  0.00  0.00    +0.000 A 
ATOM     23  C   UNL     1       5.883   4.744  16.834  0.00  0.00    +0.000 A 
ATOM     24  C   UNL     1       6.763   5.716  16.353  0.00  0.00    +0.000 A 
ATOM     25  C   UNL     1       7.518   6.478  17.240  0.00  0.00    +0.000 A 
ATOM     26  C   UNL     1       7.379   6.282  18.612  0.00  0.00    +0.000 A 
ATOM     27  C   UNL     1       6.498   5.311  19.092  0.00  0.00    +0.000 A 
ENDBRANCH  21  22
ENDBRANCH  19  21
ENDBRANCH   4  19
BRANCH   5  28
ATOM     28  C   UNL     1       1.664   3.838  21.156  0.00  0.00    +0.000 C 
ATOM     29  O   UNL     1       2.237   3.457  22.161  0.00  0.00    +0.000 OA
BRANCH  28  30
ATOM     30  O   UNL     1       0.617   3.108  20.691  0.00  0.00    +0.000 OA
ATOM     31  H   UNL     1       0.491   2.977  19.742  0.00  0.00    +0.000 HD
ENDBRANCH  28  30
ENDBRANCH   5  28
TORSDOF 8
ENDMDL
MODEL 4
REMARK VINA RESULT:      -8.0      0.870      1.270
REMARK  Name = 
REMARK  10 active torsions:
REMARK  status: ('A' for Active; 'I' for Inactive)
REMARK    1  A    between atoms: C_1  and  O_2
REMARK    2  A    between atoms: O_2  and  C_3
REMARK    3  A    between atoms: C_6  and  C_7
REMARK    4  A    between atoms: N_9  and  C_10
REMARK    5  A    between atoms: C_13  and  N_14
REMARK    6  A    between atoms: N_14  and  C_15
REMARK    7  A    between atoms: N_14  and  C_16
REMARK    8  A    between atoms: C_16  and  C_17
REMARK    9  A    between atoms: C_23  and  C_24
REMARK   10  A    between atoms: C_24  and  O_26
REMARK                            x       y       z     vdW  Elec       q    Type
REMARK                         _______ _______ _______ _____ _____    ______ ____
ROOT
ATOM      1  C   UNL     1       1.731   7.575  20.126  0.00  0.00    +0.000 A 
ATOM      2  C   UNL     1       2.315   7.531  18.875  0.00  0.00    +0.000 A 
ATOM      3  C   UNL     1       2.773   6.327  18.351  0.00  0.00    +0.000 A 
ATOM      4  C   UNL     1       2.681   5.094  19.033  0.00  0.00    +0.000 A 
ATOM      5  C   UNL     1       2.004   5.125  20.291  0.00  0.00    +0.000 A 
ATOM      6  C   UNL     1       1.571   6.376  20.823  0.00  0.00    +0.000 A 
ENDROOT
BRANCH   1   9
ATOM      7  C   UNL     1       0.646   9.792  20.045  0.00  0.00    +0.000 C 
ATOM      8  O   UNL     1       0.244   9.736  18.884  0.00  0.00    +0.000 OA
ATOM      9  N   UNL     1       1.299   8.779  20.728  0.00  0.00    +0.000 N 
ATOM     10  H   UNL     1       1.375   8.865  21.727  0.00  0.00    +0.000 HD
BRANCH   7  14
ATOM     11  C   UNL     1      -0.478  13.299  22.189  0.00  0.00    +0.000 A 
ATOM     12  C   UNL     1      -0.832  12.041  22.643  0.00  0.00    +0.000 A 
ATOM     13  C   UNL     1      -0.415  10.900  21.957  0.00  0.00    +0.000 A 
ATOM     14  C   UNL     1       0.352  11.033  20.791  0.00  0.00    +0.000 A 
ATOM     15  C   UNL     1       0.703  12.299  20.321  0.00  0.00    +0.000 A 
ATOM     16  C   UNL     1       0.287  13.435  21.025  0.00  0.00    +0.000 A 
BRANCH  11  18
ATOM     17  C   UNL     1      -0.115  15.440  23.118  0.00  0.00    +0.000 C 
ATOM     18  O   UNL     1      -0.988  14.336  22.923  0.00  0.00    +0.000 OA
ENDBRANCH  11  18
ENDBRANCH   7  14
ENDBRANCH   1   9
BRANCH   4  19
ATOM     19  N   UNL     1       3.296   3.997  18.430  0.00  0.00    +0.000 N 
ATOM     20  C   UNL     1       2.690   3.292  17.291  0.00  0.00    +0.000 C 
BRANCH  19  21
ATOM     21  C   UNL     1       4.697   3.635  18.705  0.00  0.00    +0.000 C 
BRANCH  21  22
ATOM     22  C   UNL     1       5.716   4.711  18.360  0.00  0.00    +0.000 A 
ATOM     23  C   UNL     1       6.543   5.319  19.316  0.00  0.00    +0.000 A 
ATOM     24  C   UNL     1       7.511   6.252  18.937  0.00  0.00    +0.000 A 
ATOM     25  C   UNL     1       7.678   6.583  17.596  0.00  0.00    +0.000 A 
ATOM     26  C   UNL     1       6.890   5.965  16.628  0.00  0.00    +0.000 A 
ATOM     27  C   UNL     1       5.924   5.032  17.007  0.00  0.00    +0.000 A 
ENDBRANCH  21  22
ENDBRANCH  19  21
ENDBRANCH   4  19
BRANCH   5  28
ATOM     28  C   UNL     1       1.588   3.864  21.024  0.00  0.00    +0.000 C 
ATOM     29  O   UNL     1       2.120   3.443  22.037  0.00  0.00    +0.000 OA
BRANCH  28  30
ATOM     30  O   UNL     1       0.574   3.142  20.479  0.00  0.00    +0.000 OA
ATOM     31  H   UNL     1      -0.273   3.559  20.277  0.00  0.00    +0.000 HD
ENDBRANCH  28  30
ENDBRANCH   5  28
TORSDOF 8
ENDMDL
MODEL 5
REMARK VINA RESULT:      -7.9      0.431      1.149
REMARK  Name = 
REMARK  10 active torsions:
REMARK  status: ('A' for Active; 'I' for Inactive)
REMARK    1  A    between atoms: C_1  and  O_2
REMARK    2  A    between atoms: O_2  and  C_3
REMARK    3  A    between atoms: C_6  and  C_7
REMARK    4  A    between atoms: N_9  and  C_10
REMARK    5  A    between atoms: C_13  and  N_14
REMARK    6  A    between atoms: N_14  and  C_15
REMARK    7  A    between atoms: N_14  and  C_16
REMARK    8  A    between atoms: C_16  and  C_17
REMARK    9  A    between atoms: C_23  and  C_24
REMARK   10  A    between atoms: C_24  and  O_26
REMARK                            x       y       z     vdW  Elec       q    Type
REMARK                         _______ _______ _______ _____ _____    ______ ____
ROOT
ATOM      1  C   UNL     1       1.713   7.328  20.224  0.00  0.00    +0.000 A 
ATOM      2  C   UNL     1       2.171   7.239  18.923  0.00  0.00    +0.000 A 
ATOM      3  C   UNL     1       2.584   6.017  18.403  0.00  0.00    +0.000 A 
ATOM      4  C   UNL     1       2.568   4.811  19.136  0.00  0.00    +0.000 A 
ATOM      5  C   UNL     1       2.018   4.887  20.453  0.00  0.00    +0.000 A 
ATOM      6  C   UNL     1       1.631   6.156  20.977  0.00  0.00    +0.000 A 
ENDROOT
BRANCH   1   9
ATOM      7  C   UNL     1       0.087   8.787  21.377  0.00  0.00    +0.000 C 
ATOM      8  O   UNL     1      -0.796   7.947  21.547  0.00  0.00    +0.000 OA
ATOM      9  N   UNL     1       1.333   8.553  20.819  0.00  0.00    +0.000 N 
ATOM     10  H   UNL     1       2.037   9.261  20.940  0.00  0.00    +0.000 HD
BRANCH   7  14
ATOM     11  C   UNL     1      -0.997  12.672  22.751  0.00  0.00    +0.000 A 
ATOM     12  C   UNL     1      -1.521  11.536  23.339  0.00  0.00    +0.000 A 
ATOM     13  C   UNL     1      -1.120  10.270  22.910  0.00  0.00    +0.000 A 
ATOM     14  C   UNL     1      -0.192  10.153  21.866  0.00  0.00    +0.000 A 
ATOM     15  C   UNL     1       0.333  11.294  21.261  0.00  0.00    +0.000 A 
ATOM     16  C   UNL     1      -0.071  12.559  21.707  0.00  0.00    +0.000 A 
BRANCH  11  18
ATOM     17  C   UNL     1      -0.639  14.973  23.149  0.00  0.00    +0.000 C 
ATOM     18  O   UNL     1      -1.505  13.850  23.228  0.00  0.00    +0.000 OA
ENDBRANCH  11  18
ENDBRANCH   7  14
ENDBRANCH   1   9
BRANCH   4  19
ATOM     19  N   UNL     1       3.130   3.693  18.518  0.00  0.00    +0.000 N 
ATOM     20  C   UNL     1       2.400   2.915  17.505  0.00  0.00    +0.000 C 
BRANCH  19  21
ATOM     21  C   UNL     1       4.563   3.374  18.628  0.00  0.00    +0.000 C 
BRANCH  21  22
ATOM     22  C   UNL     1       5.498   4.408  18.017  0.00  0.00    +0.000 A 
ATOM     23  C   UNL     1       6.334   5.233  18.783  0.00  0.00    +0.000 A 
ATOM     24  C   UNL     1       7.225   6.118  18.170  0.00  0.00    +0.000 A 
ATOM     25  C   UNL     1       7.305   6.181  16.782  0.00  0.00    +0.000 A 
ATOM     26  C   UNL     1       6.508   5.346  16.004  0.00  0.00    +0.000 A 
ATOM     27  C   UNL     1       5.619   4.461  16.617  0.00  0.00    +0.000 A 
ENDBRANCH  21  22
ENDBRANCH  19  21
ENDBRANCH   4  19
BRANCH   5  28
ATOM     28  C   UNL     1       1.685   3.653  21.271  0.00  0.00    +0.000 C 
ATOM     29  O   UNL     1       0.800   2.861  20.999  0.00  0.00    +0.000 OA
BRANCH  28  30
ATOM     30  O   UNL     1       2.407   3.453  22.404  0.00  0.00    +0.000 OA
ATOM     31  H   UNL     1       1.965   3.305  23.250  0.00  0.00    +0.000 HD
ENDBRANCH  28  30
ENDBRANCH   5  28
TORSDOF 8
ENDMDL
MODEL 6
REMARK VINA RESULT:      -7.9      0.757      1.365
REMARK  Name = 
REMARK  10 active torsions:
REMARK  status: ('A' for Active; 'I' for Inactive)
REMARK    1  A    between atoms: C_1  and  O_2
REMARK    2  A    between atoms: O_2  and  C_3
REMARK    3  A    between atoms: C_6  and  C_7
REMARK    4  A    between atoms: N_9  and  C_10
REMARK    5  A    between atoms: C_13  and  N_14
REMARK    6  A    between atoms: N_14  and  C_15
REMARK    7  A    between atoms: N_14  and  C_16
REMARK    8  A    between atoms: C_16  and  C_17
REMARK    9  A    between atoms: C_23  and  C_24
REMARK   10  A    between atoms: C_24  and  O_26
REMARK                            x       y       z     vdW  Elec       q    Type
REMARK                         _______ _______ _______ _____ _____    ______ ____
ROOT
ATOM      1  C   UNL     1       1.799   7.448  20.081  0.00  0.00    +0.000 A 
ATOM      2  C   UNL     1       2.396   7.343  18.840  0.00  0.00    +0.000 A 
ATOM      3  C   UNL     1       2.867   6.116  18.385  0.00  0.00    +0.000 A 
ATOM      4  C   UNL     1       2.776   4.920  19.129  0.00  0.00    +0.000 A 
ATOM      5  C   UNL     1       2.086   5.012  20.377  0.00  0.00    +0.000 A 
ATOM      6  C   UNL     1       1.640   6.286  20.838  0.00  0.00    +0.000 A 
ENDROOT
BRANCH   1   9
ATOM      7  C   UNL     1       0.143   8.845  21.268  0.00  0.00    +0.000 C 
ATOM      8  O   UNL     1      -0.633   7.945  21.585  0.00  0.00    +0.000 OA
ATOM      9  N   UNL     1       1.353   8.680  20.614  0.00  0.00    +0.000 N 
ATOM     10  H   UNL     1       1.992   9.457  20.613  0.00  0.00    +0.000 HD
BRANCH   7  14
ATOM     11  C   UNL     1      -1.192  12.709  22.468  0.00  0.00    +0.000 A 
ATOM     12  C   UNL     1      -1.436  11.596  23.251  0.00  0.00    +0.000 A 
ATOM     13  C   UNL     1      -0.950  10.345  22.869  0.00  0.00    +0.000 A 
ATOM     14  C   UNL     1      -0.226  10.216  21.675  0.00  0.00    +0.000 A 
ATOM     15  C   UNL     1       0.014  11.333  20.875  0.00  0.00    +0.000 A 
ATOM     16  C   UNL     1      -0.471  12.584  21.275  0.00  0.00    +0.000 A 
BRANCH  11  18
ATOM     17  C   UNL     1      -0.956  14.646  23.799  0.00  0.00    +0.000 C 
ATOM     18  O   UNL     1      -1.761  13.866  22.926  0.00  0.00    +0.000 OA
ENDBRANCH  11  18
ENDBRANCH   7  14
ENDBRANCH   1   9
BRANCH   4  19
ATOM     19  N   UNL     1       3.405   3.797  18.591  0.00  0.00    +0.000 N 
ATOM     20  C   UNL     1       2.676   2.810  17.779  0.00  0.00    +0.000 C 
BRANCH  19  21
ATOM     21  C   UNL     1       4.870   3.656  18.566  0.00  0.00    +0.000 C 
BRANCH  21  22
ATOM     22  C   UNL     1       5.541   4.173  17.301  0.00  0.00    +0.000 A 
ATOM     23  C   UNL     1       6.832   4.720  17.287  0.00  0.00    +0.000 A 
ATOM     24  C   UNL     1       7.430   5.116  16.088  0.00  0.00    +0.000 A 
ATOM     25  C   UNL     1       6.753   4.957  14.882  0.00  0.00    +0.000 A 
ATOM     26  C   UNL     1       5.484   4.385  14.871  0.00  0.00    +0.000 A 
ATOM     27  C   UNL     1       4.888   3.988  16.069  0.00  0.00    +0.000 A 
ENDBRANCH  21  22
ENDBRANCH  19  21
ENDBRANCH   4  19
BRANCH   5  28
ATOM     28  C   UNL     1       1.670   3.788  21.171  0.00  0.00    +0.000 C 
ATOM     29  O   UNL     1       2.252   3.372  22.158  0.00  0.00    +0.000 OA
BRANCH  28  30
ATOM     30  O   UNL     1       0.594   3.095  20.715  0.00  0.00    +0.000 OA
ATOM     31  H   UNL     1       0.564   2.132  20.783  0.00  0.00    +0.000 HD
ENDBRANCH  28  30
ENDBRANCH   5  28
TORSDOF 8
ENDMDL
MODEL 7
REMARK VINA RESULT:      -7.9      0.884      1.613
REMARK  Name = 
REMARK  10 active torsions:
REMARK  status: ('A' for Active; 'I' for Inactive)
REMARK    1  A    between atoms: C_1  and  O_2
REMARK    2  A    between atoms: O_2  and  C_3
REMARK    3  A    between atoms: C_6  and  C_7
REMARK    4  A    between atoms: N_9  and  C_10
REMARK    5  A    between atoms: C_13  and  N_14
REMARK    6  A    between atoms: N_14  and  C_15
REMARK    7  A    between atoms: N_14  and  C_16
REMARK    8  A    between atoms: C_16  and  C_17
REMARK    9  A    between atoms: C_23  and  C_24
REMARK   10  A    between atoms: C_24  and  O_26
REMARK                            x       y       z     vdW  Elec       q    Type
REMARK                         _______ _______ _______ _____ _____    ______ ____
ROOT
ATOM      1  C   UNL     1       1.638   7.330  20.430  0.00  0.00    +0.000 A 
ATOM      2  C   UNL     1       2.342   7.439  19.246  0.00  0.00    +0.000 A 
ATOM      3  C   UNL     1       2.945   6.322  18.678  0.00  0.00    +0.000 A 
ATOM      4  C   UNL     1       2.888   5.030  19.246  0.00  0.00    +0.000 A 
ATOM      5  C   UNL     1       2.093   4.901  20.427  0.00  0.00    +0.000 A 
ATOM      6  C   UNL     1       1.510   6.066  21.009  0.00  0.00    +0.000 A 
ENDROOT
BRANCH   1   9
ATOM      7  C   UNL     1       0.768   9.642  20.446  0.00  0.00    +0.000 C 
ATOM      8  O   UNL     1       0.860   9.860  19.239  0.00  0.00    +0.000 OA
ATOM      9  N   UNL     1       1.053   8.442  21.078  0.00  0.00    +0.000 N 
ATOM     10  H   UNL     1       0.728   8.325  22.023  0.00  0.00    +0.000 HD
BRANCH   7  14
ATOM     11  C   UNL     1      -0.979  12.723  22.815  0.00  0.00    +0.000 A 
ATOM     12  C   UNL     1      -1.232  11.390  23.080  0.00  0.00    +0.000 A 
ATOM     13  C   UNL     1      -0.614  10.391  22.327  0.00  0.00    +0.000 A 
ATOM     14  C   UNL     1       0.254  10.745  21.284  0.00  0.00    +0.000 A 
ATOM     15  C   UNL     1       0.505  12.088  21.003  0.00  0.00    +0.000 A 
ATOM     16  C   UNL     1      -0.114  13.080  21.773  0.00  0.00    +0.000 A 
BRANCH  11  18
ATOM     17  C   UNL     1      -1.109  14.897  23.730  0.00  0.00    +0.000 C 
ATOM     18  O   UNL     1      -1.682  13.604  23.592  0.00  0.00    +0.000 OA
ENDBRANCH  11  18
ENDBRANCH   7  14
ENDBRANCH   1   9
BRANCH   4  19
ATOM     19  N   UNL     1       3.647   4.038  18.625  0.00  0.00    +0.000 N 
ATOM     20  C   UNL     1       3.159   3.309  17.444  0.00  0.00    +0.000 C 
BRANCH  19  21
ATOM     21  C   UNL     1       5.073   3.836  18.929  0.00  0.00    +0.000 C 
BRANCH  21  22
ATOM     22  C   UNL     1       6.003   4.910  18.382  0.00  0.00    +0.000 A 
ATOM     23  C   UNL     1       5.861   5.469  17.104  0.00  0.00    +0.000 A 
ATOM     24  C   UNL     1       6.699   6.502  16.676  0.00  0.00    +0.000 A 
ATOM     25  C   UNL     1       7.681   7.004  17.525  0.00  0.00    +0.000 A 
ATOM     26  C   UNL     1       7.815   6.487  18.810  0.00  0.00    +0.000 A 
ATOM     27  C   UNL     1       6.978   5.455  19.238  0.00  0.00    +0.000 A 
ENDBRANCH  21  22
ENDBRANCH  19  21
ENDBRANCH   4  19
BRANCH   5  28
ATOM     28  C   UNL     1       1.712   3.554  21.010  0.00  0.00    +0.000 C 
ATOM     29  O   UNL     1       0.966   2.753  20.475  0.00  0.00    +0.000 OA
BRANCH  28  30
ATOM     30  O   UNL     1       2.215   3.250  22.235  0.00  0.00    +0.000 OA
ATOM     31  H   UNL     1       3.022   2.726  22.319  0.00  0.00    +0.000 HD
ENDBRANCH  28  30
ENDBRANCH   5  28
TORSDOF 8
ENDMDL
MODEL 8
REMARK VINA RESULT:      -7.9      1.170      1.676
REMARK  Name = 
REMARK  10 active torsions:
REMARK  status: ('A' for Active; 'I' for Inactive)
REMARK    1  A    between atoms: C_1  and  O_2
REMARK    2  A    between atoms: O_2  and  C_3
REMARK    3  A    between atoms: C_6  and  C_7
REMARK    4  A    between atoms: N_9  and  C_10
REMARK    5  A    between atoms: C_13  and  N_14
REMARK    6  A    between atoms: N_14  and  C_15
REMARK    7  A    between atoms: N_14  and  C_16
REMARK    8  A    between atoms: C_16  and  C_17
REMARK    9  A    between atoms: C_23  and  C_24
REMARK   10  A    between atoms: C_24  and  O_26
REMARK                            x       y       z     vdW  Elec       q    Type
REMARK                         _______ _______ _______ _____ _____    ______ ____
ROOT
ATOM      1  C   UNL     1       1.719   7.205  20.510  0.00  0.00    +0.000 A 
ATOM      2  C   UNL     1       2.586   7.291  19.437  0.00  0.00    +0.000 A 
ATOM      3  C   UNL     1       3.153   6.143  18.895  0.00  0.00    +0.000 A 
ATOM      4  C   UNL     1       2.897   4.842  19.379  0.00  0.00    +0.000 A 
ATOM      5  C   UNL     1       1.939   4.745  20.435  0.00  0.00    +0.000 A 
ATOM      6  C   UNL     1       1.395   5.938  20.997  0.00  0.00    +0.000 A 
ENDROOT
BRANCH   1   9
ATOM      7  C   UNL     1       0.681   9.445  20.445  0.00  0.00    +0.000 C 
ATOM      8  O   UNL     1       0.560   9.534  19.223  0.00  0.00    +0.000 OA
ATOM      9  N   UNL     1       1.158   8.343  21.134  0.00  0.00    +0.000 N 
ATOM     10  H   UNL     1       1.000   8.311  22.127  0.00  0.00    +0.000 HD
BRANCH   7  14
ATOM     11  C   UNL     1      -0.913  12.678  22.718  0.00  0.00    +0.000 A 
ATOM     12  C   UNL     1      -1.180  11.365  23.061  0.00  0.00    +0.000 A 
ATOM     13  C   UNL     1      -0.612  10.317  22.336  0.00  0.00    +0.000 A 
ATOM     14  C   UNL     1       0.221  10.599  21.244  0.00  0.00    +0.000 A 
ATOM     15  C   UNL     1       0.486  11.921  20.886  0.00  0.00    +0.000 A 
ATOM     16  C   UNL     1      -0.083  12.963  21.627  0.00  0.00    +0.000 A 
BRANCH  11  18
ATOM     17  C   UNL     1      -2.971  13.429  23.603  0.00  0.00    +0.000 C 
ATOM     18  O   UNL     1      -1.567  13.611  23.476  0.00  0.00    +0.000 OA
ENDBRANCH  11  18
ENDBRANCH   7  14
ENDBRANCH   1   9
BRANCH   4  19
ATOM     19  N   UNL     1       3.637   3.805  18.810  0.00  0.00    +0.000 N 
ATOM     20  C   UNL     1       4.205   2.717  19.622  0.00  0.00    +0.000 C 
BRANCH  19  21
ATOM     21  C   UNL     1       3.676   3.575  17.356  0.00  0.00    +0.000 C 
BRANCH  21  22
ATOM     22  C   UNL     1       4.927   4.089  16.660  0.00  0.00    +0.000 A 
ATOM     23  C   UNL     1       6.078   4.493  17.351  0.00  0.00    +0.000 A 
ATOM     24  C   UNL     1       7.226   4.892  16.661  0.00  0.00    +0.000 A 
ATOM     25  C   UNL     1       7.247   4.879  15.270  0.00  0.00    +0.000 A 
ATOM     26  C   UNL     1       6.125   4.449  14.565  0.00  0.00    +0.000 A 
ATOM     27  C   UNL     1       4.979   4.050  15.255  0.00  0.00    +0.000 A 
ENDBRANCH  21  22
ENDBRANCH  19  21
ENDBRANCH   4  19
BRANCH   5  28
ATOM     28  C   UNL     1       1.357   3.420  20.889  0.00  0.00    +0.000 C 
ATOM     29  O   UNL     1       1.662   2.847  21.920  0.00  0.00    +0.000 OA
BRANCH  28  30
ATOM     30  O   UNL     1       0.463   2.824  20.057  0.00  0.00    +0.000 OA
ATOM     31  H   UNL     1      -0.411   3.212  19.915  0.00  0.00    +0.000 HD
ENDBRANCH  28  30
ENDBRANCH   5  28
TORSDOF 8
ENDMDL
MODEL 9
REMARK VINA RESULT:      -7.8      1.161      1.365
REMARK  Name = 
REMARK  10 active torsions:
REMARK  status: ('A' for Active; 'I' for Inactive)
REMARK    1  A    between atoms: C_1  and  O_2
REMARK    2  A    between atoms: O_2  and  C_3
REMARK    3  A    between atoms: C_6  and  C_7
REMARK    4  A    between atoms: N_9  and  C_10
REMARK    5  A    between atoms: C_13  and  N_14
REMARK    6  A    between atoms: N_14  and  C_15
REMARK    7  A    between atoms: N_14  and  C_16
REMARK    8  A    between atoms: C_16  and  C_17
REMARK    9  A    between atoms: C_23  and  C_24
REMARK   10  A    between atoms: C_24  and  O_26
REMARK                            x       y       z     vdW  Elec       q    Type
REMARK                         _______ _______ _______ _____ _____    ______ ____
ROOT
ATOM      1  C   UNL     1       1.632   8.194  19.874  0.00  0.00    +0.000 A 
ATOM      2  C   UNL     1       2.063   8.307  18.566  0.00  0.00    +0.000 A 
ATOM      3  C   UNL     1       2.572   7.201  17.893  0.00  0.00    +0.000 A 
ATOM      4  C   UNL     1       2.684   5.918  18.471  0.00  0.00    +0.000 A 
ATOM      5  C   UNL     1       2.163   5.782  19.795  0.00  0.00    +0.000 A 
ATOM      6  C   UNL     1       1.675   6.936  20.477  0.00  0.00    +0.000 A 
ENDROOT
BRANCH   1   9
ATOM      7  C   UNL     1       0.117  10.116  20.214  0.00  0.00    +0.000 C 
ATOM      8  O   UNL     1      -0.607   9.929  19.238  0.00  0.00    +0.000 OA
ATOM      9  N   UNL     1       1.158   9.297  20.621  0.00  0.00    +0.000 N 
ATOM     10  H   UNL     1       1.523   9.435  21.548  0.00  0.00    +0.000 HD
BRANCH   7  14
ATOM     11  C   UNL     1      -0.493  13.531  22.688  0.00  0.00    +0.000 A 
ATOM     12  C   UNL     1       0.345  13.587  21.590  0.00  0.00    +0.000 A 
ATOM     13  C   UNL     1       0.498  12.474  20.762  0.00  0.00    +0.000 A 
ATOM     14  C   UNL     1      -0.192  11.290  21.056  0.00  0.00    +0.000 A 
ATOM     15  C   UNL     1      -1.031  11.222  22.168  0.00  0.00    +0.000 A 
ATOM     16  C   UNL     1      -1.182  12.349  22.986  0.00  0.00    +0.000 A 
BRANCH  11  18
ATOM     17  C   UNL     1      -1.624  14.797  24.331  0.00  0.00    +0.000 C 
ATOM     18  O   UNL     1      -0.519  14.670  23.446  0.00  0.00    +0.000 OA
ENDBRANCH  11  18
ENDBRANCH   7  14
ENDBRANCH   1   9
BRANCH   4  19
ATOM     19  N   UNL     1       3.328   4.942  17.712  0.00  0.00    +0.000 N 
ATOM     20  C   UNL     1       2.748   3.606  17.506  0.00  0.00    +0.000 C 
BRANCH  19  21
ATOM     21  C   UNL     1       4.482   5.253  16.851  0.00  0.00    +0.000 C 
BRANCH  21  22
ATOM     22  C   UNL     1       5.702   5.790  17.585  0.00  0.00    +0.000 A 
ATOM     23  C   UNL     1       6.291   5.134  18.676  0.00  0.00    +0.000 A 
ATOM     24  C   UNL     1       7.452   5.632  19.271  0.00  0.00    +0.000 A 
ATOM     25  C   UNL     1       8.052   6.786  18.776  0.00  0.00    +0.000 A 
ATOM     26  C   UNL     1       7.503   7.433  17.672  0.00  0.00    +0.000 A 
ATOM     27  C   UNL     1       6.343   6.934  17.077  0.00  0.00    +0.000 A 
ENDBRANCH  21  22
ENDBRANCH  19  21
ENDBRANCH   4  19
BRANCH   5  28
ATOM     28  C   UNL     1       1.963   4.433  20.459  0.00  0.00    +0.000 C 
ATOM     29  O   UNL     1       2.857   3.760  20.942  0.00  0.00    +0.000 OA
BRANCH  28  30
ATOM     30  O   UNL     1       0.700   3.934  20.470  0.00  0.00    +0.000 OA
ATOM     31  H   UNL     1       0.204   3.830  19.648  0.00  0.00    +0.000 HD
ENDBRANCH  28  30
ENDBRANCH   5  28
TORSDOF 8
ENDMDL
