MODEL 1
REMARK VINA RESULT:      -7.7      0.000      0.000
REMARK  Name = 
REMARK  7 active torsions:
REMARK  status: ('A' for Active; 'I' for Inactive)
REMARK    1  A    between atoms: C_2  and  C_12
REMARK    2  A    between atoms: N_3  and  C_4
REMARK    3  A    between atoms: C_7  and  C_8
REMARK    4  A    between atoms: C_8  and  O_9
REMARK    5  A    between atoms: C_16  and  N_17
REMARK    6  A    between atoms: N_17  and  C_18
REMARK    7  A    between atoms: C_18  and  C_19
REMARK                            x       y       z     vdW  Elec       q    Type
REMARK                         _______ _______ _______ _____ _____    ______ ____
ROOT
ATOM      1  C   UNL     1       2.103   7.596  19.641  0.00  0.00    +0.000 A 
ATOM      2  C   UNL     1       1.538   7.547  20.917  0.00  0.00    +0.000 A 
ATOM      3  C   UNL     1       0.657   8.548  21.316  0.00  0.00    +0.000 A 
ATOM      4  C   UNL     1       0.342   9.593  20.441  0.00  0.00    +0.000 A 
ATOM      5  C   UNL     1       0.911   9.673  19.164  0.00  0.00    +0.000 A 
ATOM      6  C   UNL     1       1.767   8.641  18.768  0.00  0.00    +0.000 A 
ENDROOT
BRANCH   1   8
ATOM      7  O   UNL     1       3.193   5.520  19.898  0.00  0.00    +0.000 OA
ATOM      8  C   UNL     1       3.044   6.525  19.215  0.00  0.00    +0.000 C 
ATOM      9  N   UNL     1       3.754   6.786  18.053  0.00  0.00    +0.000 N 
ATOM     10  H   UNL     1       3.784   7.749  17.744  0.00  0.00    +0.000 HD
BRANCH   9  11
ATOM     11  C   UNL     1       4.836   5.920  17.625  0.00  0.00    +0.000 C 
ATOM     12  C   UNL     1       4.381   4.815  16.665  0.00  0.00    +0.000 C 
ATOM     13  C   UNL     1       5.544   3.853  16.408  0.00  0.00    +0.000 C 
ATOM     14  C   UNL     1       6.827   4.547  15.902  0.00  0.00    +0.000 C 
ATOM     15  C   UNL     1       7.158   5.820  16.701  0.00  0.00    +0.000 C 
ATOM     16  C   UNL     1       5.949   6.720  16.940  0.00  0.00    +0.000 C 
BRANCH  14  17
ATOM     17  C   UNL     1       6.777   4.840  14.396  0.00  0.00    +0.000 C 
BRANCH  17  18
ATOM     18  O   UNL     1       7.927   5.571  13.988  0.00  0.00    +0.000 OA
ATOM     19  H   UNL     1       8.472   5.732  14.779  0.00  0.00    +0.000 HD
ENDBRANCH  17  18
ENDBRANCH  14  17
ENDBRANCH   9  11
ENDBRANCH   1   8
BRANCH   5  20
ATOM     20  N   UNL     1       0.509  10.689  18.300  0.00  0.00    +0.000 N 
ATOM     21  H   UNL     1       0.541  10.443  17.316  0.00  0.00    +0.000 HD
BRANCH  20  22
ATOM     22  C   UNL     1      -0.631  11.552  18.625  0.00  0.00    +0.000 C 
BRANCH  22  23
ATOM     23  C   UNL     1      -1.897  11.165  17.882  0.00  0.00    +0.000 A 
ATOM     24  C   UNL     1      -1.894  10.177  16.896  0.00  0.00    +0.000 A 
ATOM     25  C   UNL     1      -3.073   9.892  16.216  0.00  0.00    +0.000 A 
ATOM     26  C   UNL     1      -4.225  10.602  16.523  0.00  0.00    +0.000 A 
ATOM     27  C   UNL     1      -4.148  11.575  17.503  0.00  0.00    +0.000 A 
ATOM     28  N   UNL     1      -3.016  11.874  18.181  0.00  0.00    +0.000 NA
ENDBRANCH  22  23
ENDBRANCH  20  22
ENDBRANCH   5  20
TORSDOF 7
ENDMDL
MODEL 2
REMARK VINA RESULT:      -7.6      2.836      8.877
REMARK  Name = 
REMARK  7 active torsions:
REMARK  status: ('A' for Active; 'I' for Inactive)
REMARK    1  A    between atoms: C_2  and  C_12
REMARK    2  A    between atoms: N_3  and  C_4
REMARK    3  A    between atoms: C_7  and  C_8
REMARK    4  A    between atoms: C_8  and  O_9
REMARK    5  A    between atoms: C_16  and  N_17
REMARK    6  A    between atoms: N_17  and  C_18
REMARK    7  A    between atoms: C_18  and  C_19
REMARK                            x       y       z     vdW  Elec       q    Type
REMARK                         _______ _______ _______ _____ _____    ______ ____
ROOT
ATOM      1  C   UNL     1       2.817   5.626  18.423  0.00  0.00    +0.000 A 
ATOM      2  C   UNL     1       1.866   4.632  18.183  0.00  0.00    +0.000 A 
ATOM      3  C   UNL     1       2.239   3.475  17.504  0.00  0.00    +0.000 A 
ATOM      4  C   UNL     1       3.558   3.315  17.067  0.00  0.00    +0.000 A 
ATOM      5  C   UNL     1       4.524   4.307  17.279  0.00  0.00    +0.000 A 
ATOM      6  C   UNL     1       4.139   5.446  17.993  0.00  0.00    +0.000 A 
ENDROOT
BRANCH   1   8
ATOM      7  O   UNL     1       2.108   6.812  20.334  0.00  0.00    +0.000 OA
ATOM      8  C   UNL     1       2.418   6.861  19.151  0.00  0.00    +0.000 C 
ATOM      9  N   UNL     1       2.372   8.014  18.383  0.00  0.00    +0.000 N 
ATOM     10  H   UNL     1       2.348   7.893  17.379  0.00  0.00    +0.000 HD
BRANCH   9  11
ATOM     11  C   UNL     1       1.822   9.247  18.913  0.00  0.00    +0.000 C 
ATOM     12  C   UNL     1       1.894  10.415  17.924  0.00  0.00    +0.000 C 
ATOM     13  C   UNL     1       1.458  11.704  18.625  0.00  0.00    +0.000 C 
ATOM     14  C   UNL     1       0.067  11.612  19.290  0.00  0.00    +0.000 C 
ATOM     15  C   UNL     1      -0.118  10.307  20.084  0.00  0.00    +0.000 C 
ATOM     16  C   UNL     1       0.360   9.066  19.334  0.00  0.00    +0.000 C 
BRANCH  14  17
ATOM     17  C   UNL     1      -1.075  11.810  18.283  0.00  0.00    +0.000 C 
BRANCH  17  18
ATOM     18  O   UNL     1      -0.931  13.048  17.598  0.00  0.00    +0.000 OA
ATOM     19  H   UNL     1      -0.291  12.915  16.877  0.00  0.00    +0.000 HD
ENDBRANCH  17  18
ENDBRANCH  14  17
ENDBRANCH   9  11
ENDBRANCH   1   8
BRANCH   5  20
ATOM     20  N   UNL     1       5.841   4.070  16.894  0.00  0.00    +0.000 N 
ATOM     21  H   UNL     1       6.015   3.137  16.533  0.00  0.00    +0.000 HD
BRANCH  20  22
ATOM     22  C   UNL     1       6.620   5.095  16.192  0.00  0.00    +0.000 C 
BRANCH  22  23
ATOM     23  C   UNL     1       6.784   4.804  14.711  0.00  0.00    +0.000 A 
ATOM     24  C   UNL     1       6.008   3.840  14.065  0.00  0.00    +0.000 A 
ATOM     25  C   UNL     1       6.229   3.582  12.717  0.00  0.00    +0.000 A 
ATOM     26  C   UNL     1       7.222   4.280  12.043  0.00  0.00    +0.000 A 
ATOM     27  C   UNL     1       7.958   5.211  12.754  0.00  0.00    +0.000 A 
ATOM     28  N   UNL     1       7.767   5.483  14.065  0.00  0.00    +0.000 NA
ENDBRANCH  22  23
ENDBRANCH  20  22
ENDBRANCH   5  20
TORSDOF 7
ENDMDL
MODEL 3
REMARK VINA RESULT:      -7.5      0.845      1.134
REMARK  Name = 
REMARK  7 active torsions:
REMARK  status: ('A' for Active; 'I' for Inactive)
REMARK    1  A    between atoms: C_2  and  C_12
REMARK    2  A    between atoms: N_3  and  C_4
REMARK    3  A    between atoms: C_7  and  C_8
REMARK    4  A    between atoms: C_8  and  O_9
REMARK    5  A    between atoms: C_16  and  N_17
REMARK    6  A    between atoms: N_17  and  C_18
REMARK    7  A    between atoms: C_18  and  C_19
REMARK                            x       y       z     vdW  Elec       q    Type
REMARK                         _______ _______ _______ _____ _____    ______ ____
ROOT
ATOM      1  C   UNL     1       1.954   7.793  19.555  0.00  0.00    +0.000 A 
ATOM      2  C   UNL     1       1.479   7.865  20.867  0.00  0.00    +0.000 A 
ATOM      3  C   UNL     1       0.610   8.892  21.226  0.00  0.00    +0.000 A 
ATOM      4  C   UNL     1       0.217   9.841  20.277  0.00  0.00    +0.000 A 
ATOM      5  C   UNL     1       0.695   9.799  18.961  0.00  0.00    +0.000 A 
ATOM      6  C   UNL     1       1.540   8.742  18.610  0.00  0.00    +0.000 A 
ENDROOT
BRANCH   1   8
ATOM      7  O   UNL     1       2.978   5.691  19.867  0.00  0.00    +0.000 OA
ATOM      8  C   UNL     1       2.881   6.695  19.171  0.00  0.00    +0.000 C 
ATOM      9  N   UNL     1       3.640   6.928  18.036  0.00  0.00    +0.000 N 
ATOM     10  H   UNL     1       3.707   7.887  17.721  0.00  0.00    +0.000 HD
BRANCH   9  11
ATOM     11  C   UNL     1       4.714   6.031  17.654  0.00  0.00    +0.000 C 
ATOM     12  C   UNL     1       4.243   4.861  16.783  0.00  0.00    +0.000 C 
ATOM     13  C   UNL     1       5.400   3.881  16.577  0.00  0.00    +0.000 C 
ATOM     14  C   UNL     1       6.676   4.534  16.003  0.00  0.00    +0.000 C 
ATOM     15  C   UNL     1       7.021   5.860  16.702  0.00  0.00    +0.000 C 
ATOM     16  C   UNL     1       5.817   6.778  16.895  0.00  0.00    +0.000 C 
BRANCH  14  17
ATOM     17  C   UNL     1       6.602   4.717  14.480  0.00  0.00    +0.000 C 
BRANCH  17  18
ATOM     18  O   UNL     1       6.370   3.471  13.835  0.00  0.00    +0.000 OA
ATOM     19  H   UNL     1       7.231   3.126  13.538  0.00  0.00    +0.000 HD
ENDBRANCH  17  18
ENDBRANCH  14  17
ENDBRANCH   9  11
ENDBRANCH   1   8
BRANCH   5  20
ATOM     20  N   UNL     1       0.216  10.720  18.031  0.00  0.00    +0.000 N 
ATOM     21  H   UNL     1      -0.047  10.318  17.137  0.00  0.00    +0.000 HD
BRANCH  20  22
ATOM     22  C   UNL     1      -0.671  11.814  18.438  0.00  0.00    +0.000 C 
BRANCH  22  23
ATOM     23  C   UNL     1      -2.093  11.641  17.934  0.00  0.00    +0.000 A 
ATOM     24  C   UNL     1      -3.194  11.851  18.765  0.00  0.00    +0.000 A 
ATOM     25  C   UNL     1      -4.474  11.636  18.265  0.00  0.00    +0.000 A 
ATOM     26  C   UNL     1      -4.630  11.207  16.954  0.00  0.00    +0.000 A 
ATOM     27  C   UNL     1      -3.490  11.008  16.195  0.00  0.00    +0.000 A 
ATOM     28  N   UNL     1      -2.234  11.208  16.654  0.00  0.00    +0.000 NA
ENDBRANCH  22  23
ENDBRANCH  20  22
ENDBRANCH   5  20
TORSDOF 7
ENDMDL
MODEL 4
REMARK VINA RESULT:      -7.4      2.541      3.067
REMARK  Name = 
REMARK  7 active torsions:
REMARK  status: ('A' for Active; 'I' for Inactive)
REMARK    1  A    between atoms: C_2  and  C_12
REMARK    2  A    between atoms: N_3  and  C_4
REMARK    3  A    between atoms: C_7  and  C_8
REMARK    4  A    between atoms: C_8  and  O_9
REMARK    5  A    between atoms: C_16  and  N_17
REMARK    6  A    between atoms: N_17  and  C_18
REMARK    7  A    between atoms: C_18  and  C_19
REMARK                            x       y       z     vdW  Elec       q    Type
REMARK                         _______ _______ _______ _____ _____    ______ ____
ROOT
ATOM      1  C   UNL     1       1.241   8.825  20.056  0.00  0.00    +0.000 A 
ATOM      2  C   UNL     1       1.058   8.491  21.400  0.00  0.00    +0.000 A 
ATOM      3  C   UNL     1       0.250   9.291  22.202  0.00  0.00    +0.000 A 
ATOM      4  C   UNL     1      -0.373  10.421  21.662  0.00  0.00    +0.000 A 
ATOM      5  C   UNL     1      -0.189  10.787  20.323  0.00  0.00    +0.000 A 
ATOM      6  C   UNL     1       0.599   9.952  19.524  0.00  0.00    +0.000 A 
ENDROOT
BRANCH   1   8
ATOM      7  O   UNL     1       2.456   8.353  18.091  0.00  0.00    +0.000 OA
ATOM      8  C   UNL     1       2.104   7.968  19.199  0.00  0.00    +0.000 C 
ATOM      9  N   UNL     1       2.409   6.721  19.721  0.00  0.00    +0.000 N 
ATOM     10  H   UNL     1       1.831   6.393  20.484  0.00  0.00    +0.000 HD
BRANCH   9  11
ATOM     11  C   UNL     1       3.080   5.716  18.920  0.00  0.00    +0.000 C 
ATOM     12  C   UNL     1       4.176   4.967  19.685  0.00  0.00    +0.000 C 
ATOM     13  C   UNL     1       4.941   4.059  18.719  0.00  0.00    +0.000 C 
ATOM     14  C   UNL     1       4.038   3.086  17.930  0.00  0.00    +0.000 C 
ATOM     15  C   UNL     1       2.783   3.777  17.368  0.00  0.00    +0.000 C 
ATOM     16  C   UNL     1       2.085   4.685  18.377  0.00  0.00    +0.000 C 
BRANCH  14  17
ATOM     17  C   UNL     1       3.662   1.844  18.751  0.00  0.00    +0.000 C 
BRANCH  17  18
ATOM     18  O   UNL     1       2.335   1.428  18.452  0.00  0.00    +0.000 OA
ATOM     19  H   UNL     1       2.237   0.508  18.758  0.00  0.00    +0.000 HD
ENDBRANCH  17  18
ENDBRANCH  14  17
ENDBRANCH   9  11
ENDBRANCH   1   8
BRANCH   5  20
ATOM     20  N   UNL     1      -0.889  11.876  19.810  0.00  0.00    +0.000 N 
ATOM     21  H   UNL     1      -0.468  12.301  18.990  0.00  0.00    +0.000 HD
BRANCH  20  22
ATOM     22  C   UNL     1      -2.354  11.872  19.749  0.00  0.00    +0.000 C 
BRANCH  22  23
ATOM     23  C   UNL     1      -2.888  11.490  18.380  0.00  0.00    +0.000 A 
ATOM     24  C   UNL     1      -2.054  10.978  17.386  0.00  0.00    +0.000 A 
ATOM     25  C   UNL     1      -2.586  10.685  16.135  0.00  0.00    +0.000 A 
ATOM     26  C   UNL     1      -3.934  10.918  15.897  0.00  0.00    +0.000 A 
ATOM     27  C   UNL     1      -4.696  11.440  16.928  0.00  0.00    +0.000 A 
ATOM     28  N   UNL     1      -4.205  11.734  18.154  0.00  0.00    +0.000 NA
ENDBRANCH  22  23
ENDBRANCH  20  22
ENDBRANCH   5  20
TORSDOF 7
ENDMDL
MODEL 5
REMARK VINA RESULT:      -7.4      2.834      8.951
REMARK  Name = 
REMARK  7 active torsions:
REMARK  status: ('A' for Active; 'I' for Inactive)
REMARK    1  A    between atoms: C_2  and  C_12
REMARK    2  A    between atoms: N_3  and  C_4
REMARK    3  A    between atoms: C_7  and  C_8
REMARK    4  A    between atoms: C_8  and  O_9
REMARK    5  A    between atoms: C_16  and  N_17
REMARK    6  A    between atoms: N_17  and  C_18
REMARK    7  A    between atoms: C_18  and  C_19
REMARK                            x       y       z     vdW  Elec       q    Type
REMARK                         _______ _______ _______ _____ _____    ______ ____
ROOT
ATOM      1  C   UNL     1       2.876   6.426  19.041  0.00  0.00    +0.000 A 
ATOM      2  C   UNL     1       2.805   5.095  19.460  0.00  0.00    +0.000 A 
ATOM      3  C   UNL     1       3.623   4.142  18.860  0.00  0.00    +0.000 A 
ATOM      4  C   UNL     1       4.509   4.519  17.845  0.00  0.00    +0.000 A 
ATOM      5  C   UNL     1       4.584   5.844  17.396  0.00  0.00    +0.000 A 
ATOM      6  C   UNL     1       3.780   6.793  18.034  0.00  0.00    +0.000 A 
ENDROOT
BRANCH   1   8
ATOM      7  O   UNL     1       1.583   7.274  20.822  0.00  0.00    +0.000 OA
ATOM      8  C   UNL     1       2.003   7.444  19.685  0.00  0.00    +0.000 C 
ATOM      9  N   UNL     1       1.670   8.529  18.889  0.00  0.00    +0.000 N 
ATOM     10  H   UNL     1       1.811   8.424  17.893  0.00  0.00    +0.000 HD
BRANCH   9  11
ATOM     11  C   UNL     1       0.681   9.498  19.318  0.00  0.00    +0.000 C 
ATOM     12  C   UNL     1       1.296  10.742  19.968  0.00  0.00    +0.000 C 
ATOM     13  C   UNL     1       0.182  11.621  20.543  0.00  0.00    +0.000 C 
ATOM     14  C   UNL     1      -0.906  12.000  19.515  0.00  0.00    +0.000 C 
ATOM     15  C   UNL     1      -1.354  10.798  18.665  0.00  0.00    +0.000 C 
ATOM     16  C   UNL     1      -0.194   9.954  18.145  0.00  0.00    +0.000 C 
BRANCH  14  17
ATOM     17  C   UNL     1      -0.482  13.176  18.624  0.00  0.00    +0.000 C 
BRANCH  17  18
ATOM     18  O   UNL     1      -1.062  13.062  17.331  0.00  0.00    +0.000 OA
ATOM     19  H   UNL     1      -2.013  13.257  17.414  0.00  0.00    +0.000 HD
ENDBRANCH  17  18
ENDBRANCH  14  17
ENDBRANCH   9  11
ENDBRANCH   1   8
BRANCH   5  20
ATOM     20  N   UNL     1       5.535   6.186  16.437  0.00  0.00    +0.000 N 
ATOM     21  H   UNL     1       5.784   7.170  16.423  0.00  0.00    +0.000 HD
BRANCH  20  22
ATOM     22  C   UNL     1       6.681   5.314  16.162  0.00  0.00    +0.000 C 
BRANCH  22  23
ATOM     23  C   UNL     1       6.767   4.891  14.707  0.00  0.00    +0.000 A 
ATOM     24  C   UNL     1       5.956   3.881  14.189  0.00  0.00    +0.000 A 
ATOM     25  C   UNL     1       6.107   3.502  12.859  0.00  0.00    +0.000 A 
ATOM     26  C   UNL     1       7.067   4.130  12.078  0.00  0.00    +0.000 A 
ATOM     27  C   UNL     1       7.842   5.113  12.665  0.00  0.00    +0.000 A 
ATOM     28  N   UNL     1       7.719   5.502  13.954  0.00  0.00    +0.000 NA
ENDBRANCH  22  23
ENDBRANCH  20  22
ENDBRANCH   5  20
TORSDOF 7
ENDMDL
MODEL 6
REMARK VINA RESULT:      -7.4      3.223      8.398
REMARK  Name = 
REMARK  7 active torsions:
REMARK  status: ('A' for Active; 'I' for Inactive)
REMARK    1  A    between atoms: C_2  and  C_12
REMARK    2  A    between atoms: N_3  and  C_4
REMARK    3  A    between atoms: C_7  and  C_8
REMARK    4  A    between atoms: C_8  and  O_9
REMARK    5  A    between atoms: C_16  and  N_17
REMARK    6  A    between atoms: N_17  and  C_18
REMARK    7  A    between atoms: C_18  and  C_19
REMARK                            x       y       z     vdW  Elec       q    Type
REMARK                         _______ _______ _______ _____ _____    ______ ____
ROOT
ATOM      1  C   UNL     1       3.529   6.682  17.817  0.00  0.00    +0.000 A 
ATOM      2  C   UNL     1       4.278   7.246  16.782  0.00  0.00    +0.000 A 
ATOM      3  C   UNL     1       5.085   6.429  15.995  0.00  0.00    +0.000 A 
ATOM      4  C   UNL     1       5.140   5.054  16.241  0.00  0.00    +0.000 A 
ATOM      5  C   UNL     1       4.412   4.469  17.285  0.00  0.00    +0.000 A 
ATOM      6  C   UNL     1       3.582   5.299  18.043  0.00  0.00    +0.000 A 
ENDROOT
BRANCH   1   8
ATOM      7  O   UNL     1       2.270   7.172  19.750  0.00  0.00    +0.000 OA
ATOM      8  C   UNL     1       2.665   7.555  18.657  0.00  0.00    +0.000 C 
ATOM      9  N   UNL     1       2.313   8.768  18.086  0.00  0.00    +0.000 N 
ATOM     10  H   UNL     1       2.434   8.853  17.085  0.00  0.00    +0.000 HD
BRANCH   9  11
ATOM     11  C   UNL     1       1.330   9.633  18.709  0.00  0.00    +0.000 C 
ATOM     12  C   UNL     1       1.728  11.113  18.689  0.00  0.00    +0.000 C 
ATOM     13  C   UNL     1       0.725  11.921  19.516  0.00  0.00    +0.000 C 
ATOM     14  C   UNL     1      -0.744  11.726  19.080  0.00  0.00    +0.000 C 
ATOM     15  C   UNL     1      -1.092  10.246  18.840  0.00  0.00    +0.000 C 
ATOM     16  C   UNL     1      -0.037   9.496  18.030  0.00  0.00    +0.000 C 
BRANCH  14  17
ATOM     17  C   UNL     1      -1.108  12.582  17.859  0.00  0.00    +0.000 C 
BRANCH  17  18
ATOM     18  O   UNL     1      -0.733  13.938  18.066  0.00  0.00    +0.000 OA
ATOM     19  H   UNL     1       0.238  13.971  18.125  0.00  0.00    +0.000 HD
ENDBRANCH  17  18
ENDBRANCH  14  17
ENDBRANCH   9  11
ENDBRANCH   1   8
BRANCH   5  20
ATOM     20  N   UNL     1       4.439   3.085  17.445  0.00  0.00    +0.000 N 
ATOM     21  H   UNL     1       5.205   2.741  18.014  0.00  0.00    +0.000 HD
BRANCH  20  22
ATOM     22  C   UNL     1       3.203   2.322  17.648  0.00  0.00    +0.000 C 
BRANCH  22  23
ATOM     23  C   UNL     1       2.613   2.510  19.034  0.00  0.00    +0.000 A 
ATOM     24  C   UNL     1       1.280   2.878  19.218  0.00  0.00    +0.000 A 
ATOM     25  C   UNL     1       0.802   3.080  20.508  0.00  0.00    +0.000 A 
ATOM     26  C   UNL     1       1.662   2.921  21.586  0.00  0.00    +0.000 A 
ATOM     27  C   UNL     1       2.974   2.567  21.324  0.00  0.00    +0.000 A 
ATOM     28  N   UNL     1       3.467   2.366  20.081  0.00  0.00    +0.000 NA
ENDBRANCH  22  23
ENDBRANCH  20  22
ENDBRANCH   5  20
TORSDOF 7
ENDMDL
MODEL 7
REMARK VINA RESULT:      -7.4      3.146      8.354
REMARK  Name = 
REMARK  7 active torsions:
REMARK  status: ('A' for Active; 'I' for Inactive)
REMARK    1  A    between atoms: C_2  and  C_12
REMARK    2  A    between atoms: N_3  and  C_4
REMARK    3  A    between atoms: C_7  and  C_8
REMARK    4  A    between atoms: C_8  and  O_9
REMARK    5  A    between atoms: C_16  and  N_17
REMARK    6  A    between atoms: N_17  and  C_18
REMARK    7  A    between atoms: C_18  and  C_19
REMARK                            x       y       z     vdW  Elec       q    Type
REMARK                         _______ _______ _______ _____ _____    ______ ____
ROOT
ATOM      1  C   UNL     1       3.499   6.739  17.918  0.00  0.00    +0.000 A 
ATOM      2  C   UNL     1       4.162   7.315  16.833  0.00  0.00    +0.000 A 
ATOM      3  C   UNL     1       5.013   6.534  16.055  0.00  0.00    +0.000 A 
ATOM      4  C   UNL     1       5.199   5.182  16.363  0.00  0.00    +0.000 A 
ATOM      5  C   UNL     1       4.559   4.588  17.458  0.00  0.00    +0.000 A 
ATOM      6  C   UNL     1       3.682   5.379  18.207  0.00  0.00    +0.000 A 
ENDROOT
BRANCH   1   8
ATOM      7  O   UNL     1       2.325   7.251  19.899  0.00  0.00    +0.000 OA
ATOM      8  C   UNL     1       2.589   7.574  18.748  0.00  0.00    +0.000 C 
ATOM      9  N   UNL     1       2.039   8.672  18.104  0.00  0.00    +0.000 N 
ATOM     10  H   UNL     1       2.077   8.674  17.094  0.00  0.00    +0.000 HD
BRANCH   9  11
ATOM     11  C   UNL     1       0.995   9.462  18.729  0.00  0.00    +0.000 C 
ATOM     12  C   UNL     1       1.475  10.843  19.185  0.00  0.00    +0.000 C 
ATOM     13  C   UNL     1       0.364  11.531  19.983  0.00  0.00    +0.000 C 
ATOM     14  C   UNL     1      -0.981  11.621  19.229  0.00  0.00    +0.000 C 
ATOM     15  C   UNL     1      -1.354  10.298  18.538  0.00  0.00    +0.000 C 
ATOM     16  C   UNL     1      -0.193   9.657  17.782  0.00  0.00    +0.000 C 
BRANCH  14  17
ATOM     17  C   UNL     1      -1.014  12.790  18.234  0.00  0.00    +0.000 C 
BRANCH  17  18
ATOM     18  O   UNL     1      -1.573  12.378  16.993  0.00  0.00    +0.000 OA
ATOM     19  H   UNL     1      -1.014  11.662  16.640  0.00  0.00    +0.000 HD
ENDBRANCH  17  18
ENDBRANCH  14  17
ENDBRANCH   9  11
ENDBRANCH   1   8
BRANCH   5  20
ATOM     20  N   UNL     1       4.715   3.221  17.680  0.00  0.00    +0.000 N 
ATOM     21  H   UNL     1       5.458   2.981  18.327  0.00  0.00    +0.000 HD
BRANCH  20  22
ATOM     22  C   UNL     1       3.551   2.339  17.812  0.00  0.00    +0.000 C 
BRANCH  22  23
ATOM     23  C   UNL     1       2.783   2.561  19.102  0.00  0.00    +0.000 A 
ATOM     24  C   UNL     1       3.411   2.503  20.347  0.00  0.00    +0.000 A 
ATOM     25  C   UNL     1       2.652   2.670  21.500  0.00  0.00    +0.000 A 
ATOM     26  C   UNL     1       1.284   2.881  21.391  0.00  0.00    +0.000 A 
ATOM     27  C   UNL     1       0.731   2.914  20.123  0.00  0.00    +0.000 A 
ATOM     28  N   UNL     1       1.443   2.753  18.985  0.00  0.00    +0.000 NA
ENDBRANCH  22  23
ENDBRANCH  20  22
ENDBRANCH   5  20
TORSDOF 7
ENDMDL
MODEL 8
REMARK VINA RESULT:      -7.4      3.175      9.141
REMARK  Name = 
REMARK  7 active torsions:
REMARK  status: ('A' for Active; 'I' for Inactive)
REMARK    1  A    between atoms: C_2  and  C_12
REMARK    2  A    between atoms: N_3  and  C_4
REMARK    3  A    between atoms: C_7  and  C_8
REMARK    4  A    between atoms: C_8  and  O_9
REMARK    5  A    between atoms: C_16  and  N_17
REMARK    6  A    between atoms: N_17  and  C_18
REMARK    7  A    between atoms: C_18  and  C_19
REMARK                            x       y       z     vdW  Elec       q    Type
REMARK                         _______ _______ _______ _____ _____    ______ ____
ROOT
ATOM      1  C   UNL     1       2.892   5.739  18.025  0.00  0.00    +0.000 A 
ATOM      2  C   UNL     1       1.908   4.767  18.220  0.00  0.00    +0.000 A 
ATOM      3  C   UNL     1       2.163   3.449  17.855  0.00  0.00    +0.000 A 
ATOM      4  C   UNL     1       3.399   3.104  17.296  0.00  0.00    +0.000 A 
ATOM      5  C   UNL     1       4.393   4.064  17.073  0.00  0.00    +0.000 A 
ATOM      6  C   UNL     1       4.132   5.377  17.479  0.00  0.00    +0.000 A 
ENDROOT
BRANCH   1   8
ATOM      7  O   UNL     1       3.115   8.075  17.791  0.00  0.00    +0.000 OA
ATOM      8  C   UNL     1       2.619   7.148  18.418  0.00  0.00    +0.000 C 
ATOM      9  N   UNL     1       1.835   7.307  19.550  0.00  0.00    +0.000 N 
ATOM     10  H   UNL     1       1.736   6.502  20.154  0.00  0.00    +0.000 HD
BRANCH   9  11
ATOM     11  C   UNL     1       1.645   8.612  20.152  0.00  0.00    +0.000 C 
ATOM     12  C   UNL     1       0.921   9.602  19.234  0.00  0.00    +0.000 C 
ATOM     13  C   UNL     1       0.922  10.991  19.879  0.00  0.00    +0.000 C 
ATOM     14  C   UNL     1       0.337  11.015  21.308  0.00  0.00    +0.000 C 
ATOM     15  C   UNL     1       0.863   9.858  22.176  0.00  0.00    +0.000 C 
ATOM     16  C   UNL     1       0.856   8.509  21.462  0.00  0.00    +0.000 C 
BRANCH  14  17
ATOM     17  C   UNL     1      -1.198  11.050  21.309  0.00  0.00    +0.000 C 
BRANCH  17  18
ATOM     18  O   UNL     1      -1.670  12.369  21.069  0.00  0.00    +0.000 OA
ATOM     19  H   UNL     1      -2.436  12.521  21.652  0.00  0.00    +0.000 HD
ENDBRANCH  17  18
ENDBRANCH  14  17
ENDBRANCH   9  11
ENDBRANCH   1   8
BRANCH   5  20
ATOM     20  N   UNL     1       5.635   3.661  16.586  0.00  0.00    +0.000 N 
ATOM     21  H   UNL     1       5.612   2.820  16.019  0.00  0.00    +0.000 HD
BRANCH  20  22
ATOM     22  C   UNL     1       6.610   4.641  16.098  0.00  0.00    +0.000 C 
BRANCH  22  23
ATOM     23  C   UNL     1       6.798   4.589  14.592  0.00  0.00    +0.000 A 
ATOM     24  C   UNL     1       6.107   3.671  13.800  0.00  0.00    +0.000 A 
ATOM     25  C   UNL     1       6.349   3.638  12.431  0.00  0.00    +0.000 A 
ATOM     26  C   UNL     1       7.279   4.510  11.882  0.00  0.00    +0.000 A 
ATOM     27  C   UNL     1       7.933   5.383  12.733  0.00  0.00    +0.000 A 
ATOM     28  N   UNL     1       7.720   5.438  14.067  0.00  0.00    +0.000 NA
ENDBRANCH  22  23
ENDBRANCH  20  22
ENDBRANCH   5  20
TORSDOF 7
ENDMDL
MODEL 9
REMARK VINA RESULT:      -7.4      2.865      8.558
REMARK  Name = 
REMARK  7 active torsions:
REMARK  status: ('A' for Active; 'I' for Inactive)
REMARK    1  A    between atoms: C_2  and  C_12
REMARK    2  A    between atoms: N_3  and  C_4
REMARK    3  A    between atoms: C_7  and  C_8
REMARK    4  A    between atoms: C_8  and  O_9
REMARK    5  A    between atoms: C_16  and  N_17
REMARK    6  A    between atoms: N_17  and  C_18
REMARK    7  A    between atoms: C_18  and  C_19
REMARK                            x       y       z     vdW  Elec       q    Type
REMARK                         _______ _______ _______ _____ _____    ______ ____
ROOT
ATOM      1  C   UNL     1       2.547   5.450  18.560  0.00  0.00    +0.000 A 
ATOM      2  C   UNL     1       1.513   4.512  18.541  0.00  0.00    +0.000 A 
ATOM      3  C   UNL     1       1.710   3.287  17.909  0.00  0.00    +0.000 A 
ATOM      4  C   UNL     1       2.936   3.002  17.300  0.00  0.00    +0.000 A 
ATOM      5  C   UNL     1       3.981   3.935  17.291  0.00  0.00    +0.000 A 
ATOM      6  C   UNL     1       3.777   5.146  17.959  0.00  0.00    +0.000 A 
ENDROOT
BRANCH   1   8
ATOM      7  O   UNL     1       2.305   6.828  20.459  0.00  0.00    +0.000 OA
ATOM      8  C   UNL     1       2.337   6.758  19.237  0.00  0.00    +0.000 C 
ATOM      9  N   UNL     1       2.127   7.837  18.393  0.00  0.00    +0.000 N 
ATOM     10  H   UNL     1       1.872   7.625  17.437  0.00  0.00    +0.000 HD
BRANCH   9  11
ATOM     11  C   UNL     1       1.724   9.129  18.913  0.00  0.00    +0.000 C 
ATOM     12  C   UNL     1       1.826  10.255  17.878  0.00  0.00    +0.000 C 
ATOM     13  C   UNL     1       1.553  11.599  18.559  0.00  0.00    +0.000 C 
ATOM     14  C   UNL     1       0.210  11.651  19.320  0.00  0.00    +0.000 C 
ATOM     15  C   UNL     1      -0.029  10.393  20.172  0.00  0.00    +0.000 C 
ATOM     16  C   UNL     1       0.286   9.091  19.439  0.00  0.00    +0.000 C 
BRANCH  14  17
ATOM     17  C   UNL     1      -0.979  11.918  18.386  0.00  0.00    +0.000 C 
BRANCH  17  18
ATOM     18  O   UNL     1      -0.782  13.120  17.652  0.00  0.00    +0.000 OA
ATOM     19  H   UNL     1       0.165  13.179  17.429  0.00  0.00    +0.000 HD
ENDBRANCH  17  18
ENDBRANCH  14  17
ENDBRANCH   9  11
ENDBRANCH   1   8
BRANCH   5  20
ATOM     20  N   UNL     1       5.210   3.579  16.739  0.00  0.00    +0.000 N 
ATOM     21  H   UNL     1       5.227   2.662  16.304  0.00  0.00    +0.000 HD
BRANCH  20  22
ATOM     22  C   UNL     1       6.027   4.558  16.016  0.00  0.00    +0.000 C 
BRANCH  22  23
ATOM     23  C   UNL     1       6.813   5.471  16.939  0.00  0.00    +0.000 A 
ATOM     24  C   UNL     1       7.377   5.001  18.126  0.00  0.00    +0.000 A 
ATOM     25  C   UNL     1       8.050   5.890  18.958  0.00  0.00    +0.000 A 
ATOM     26  C   UNL     1       8.138   7.227  18.596  0.00  0.00    +0.000 A 
ATOM     27  C   UNL     1       7.544   7.620  17.410  0.00  0.00    +0.000 A 
ATOM     28  N   UNL     1       6.882   6.780  16.583  0.00  0.00    +0.000 NA
ENDBRANCH  22  23
ENDBRANCH  20  22
ENDBRANCH   5  20
TORSDOF 7
ENDMDL
