MODEL 1
REMARK VINA RESULT:      -8.0      0.000      0.000
REMARK  Name = 
REMARK  11 active torsions:
REMARK  status: ('A' for Active; 'I' for Inactive)
REMARK    1  A    between atoms: C_1  and  O_2
REMARK    2  A    between atoms: O_2  and  C_3
REMARK    3  A    between atoms: C_12  and  N_13
REMARK    4  A    between atoms: C_14  and  C_16
REMARK    5  A    between atoms: C_16  and  C_17
REMARK    6  A    between atoms: C_17  and  C_18
REMARK    7  A    between atoms: C_18  and  C_19
REMARK    8  A    between atoms: C_19  and  N_20
REMARK    9  A    between atoms: N_23  and  C_24
REMARK   10  A    between atoms: C_29  and  O_30
REMARK   11  A    between atoms: O_30  and  C_31
REMARK                            x       y       z     vdW  Elec       q    Type
REMARK                         _______ _______ _______ _____ _____    ______ ____
ROOT
ATOM      1  C   UNL     1       9.524  10.074  18.939  0.00  0.00    +0.000 C 
ENDROOT
BRANCH   1   3
ATOM      2  N   UNL     1       9.200  12.361  19.650  0.00  0.00    +0.000 N 
ATOM      3  C   UNL     1       9.685  11.541  18.665  0.00  0.00    +0.000 C 
ATOM      4  O   UNL     1      10.246  11.948  17.659  0.00  0.00    +0.000 OA
ATOM      5  H   UNL     1       8.807  11.975  20.500  0.00  0.00    +0.000 HD
BRANCH   2  15
ATOM      6  C   UNL     1       5.504  15.672  18.874  0.00  0.00    +0.000 A 
ATOM      7  C   UNL     1       6.109  14.906  17.878  0.00  0.00    +0.000 A 
ATOM      8  C   UNL     1       7.338  14.291  18.110  0.00  0.00    +0.000 A 
ATOM      9  C   UNL     1       7.989  14.441  19.346  0.00  0.00    +0.000 A 
ATOM     10  C   UNL     1       7.370  15.189  20.363  0.00  0.00    +0.000 A 
ATOM     11  C   UNL     1       6.139  15.810  20.110  0.00  0.00    +0.000 A 
ATOM     12  C   UNL     1       8.029  15.412  21.703  0.00  0.00    +0.000 C 
ATOM     13  C   UNL     1       9.176  14.444  21.979  0.00  0.00    +0.000 C 
ATOM     14  C   UNL     1      10.092  14.362  20.763  0.00  0.00    +0.000 C 
ATOM     15  C   UNL     1       9.343  13.800  19.546  0.00  0.00    +0.000 C 
BRANCH   6  17
ATOM     16  C   UNL     1       3.642  15.661  17.409  0.00  0.00    +0.000 C 
ATOM     17  O   UNL     1       4.307  16.235  18.527  0.00  0.00    +0.000 OA
ENDBRANCH   6  17
ENDBRANCH   2  15
ENDBRANCH   1   3
BRANCH   1  18
ATOM     18  C   UNL     1       8.325   9.538  18.166  0.00  0.00    +0.000 C 
BRANCH  18  19
ATOM     19  C   UNL     1       8.282   8.028  18.312  0.00  0.00    +0.000 C 
BRANCH  19  20
ATOM     20  C   UNL     1       7.595   7.341  17.127  0.00  0.00    +0.000 C 
BRANCH  20  21
ATOM     21  N   UNL     1       7.582   5.888  17.297  0.00  0.00    +0.000 NA
ATOM     22  C   UNL     1       7.159   5.480  18.664  0.00  0.00    +0.000 C 
ATOM     23  C   UNL     1       5.631   5.528  18.944  0.00  0.00    +0.000 C 
ATOM     24  N   UNL     1       4.927   4.766  17.893  0.00  0.00    +0.000 N 
ATOM     25  C   UNL     1       5.194   5.307  16.560  0.00  0.00    +0.000 C 
ATOM     26  C   UNL     1       6.726   5.188  16.313  0.00  0.00    +0.000 C 
BRANCH  24  27
ATOM     27  C   UNL     1       3.799   4.009  18.170  0.00  0.00    +0.000 A 
ATOM     28  C   UNL     1       3.953   2.622  18.416  0.00  0.00    +0.000 A 
ATOM     29  C   UNL     1       2.871   1.754  18.601  0.00  0.00    +0.000 A 
ATOM     30  C   UNL     1       1.579   2.244  18.551  0.00  0.00    +0.000 A 
ATOM     31  C   UNL     1       1.386   3.606  18.368  0.00  0.00    +0.000 A 
ATOM     32  C   UNL     1       2.467   4.493  18.190  0.00  0.00    +0.000 A 
BRANCH  32  33
ATOM     33  O   UNL     1       1.994   5.776  18.097  0.00  0.00    +0.000 OA
ATOM     34  C   UNL     1       2.357   6.717  19.081  0.00  0.00    +0.000 C 
ENDBRANCH  32  33
ENDBRANCH  24  27
ENDBRANCH  20  21
ENDBRANCH  19  20
ENDBRANCH  18  19
ENDBRANCH   1  18
TORSDOF 9
ENDMDL
MODEL 2
REMARK VINA RESULT:      -7.7      1.306      1.417
REMARK  Name = 
REMARK  11 active torsions:
REMARK  status: ('A' for Active; 'I' for Inactive)
REMARK    1  A    between atoms: C_1  and  O_2
REMARK    2  A    between atoms: O_2  and  C_3
REMARK    3  A    between atoms: C_12  and  N_13
REMARK    4  A    between atoms: C_14  and  C_16
REMARK    5  A    between atoms: C_16  and  C_17
REMARK    6  A    between atoms: C_17  and  C_18
REMARK    7  A    between atoms: C_18  and  C_19
REMARK    8  A    between atoms: C_19  and  N_20
REMARK    9  A    between atoms: N_23  and  C_24
REMARK   10  A    between atoms: C_29  and  O_30
REMARK   11  A    between atoms: O_30  and  C_31
REMARK                            x       y       z     vdW  Elec       q    Type
REMARK                         _______ _______ _______ _____ _____    ______ ____
ROOT
ATOM      1  C   UNL     1       8.537  10.064  17.971  0.00  0.00    +0.000 C 
ENDROOT
BRANCH   1   3
ATOM      2  N   UNL     1       8.912  12.245  18.941  0.00  0.00    +0.000 N 
ATOM      3  C   UNL     1       9.405  11.282  18.100  0.00  0.00    +0.000 C 
ATOM      4  O   UNL     1      10.480  11.367  17.527  0.00  0.00    +0.000 OA
ATOM      5  H   UNL     1       8.049  12.097  19.450  0.00  0.00    +0.000 HD
BRANCH   2  15
ATOM      6  C   UNL     1       7.061  16.880  19.499  0.00  0.00    +0.000 A 
ATOM      7  C   UNL     1       7.282  16.253  18.273  0.00  0.00    +0.000 A 
ATOM      8  C   UNL     1       8.112  15.136  18.192  0.00  0.00    +0.000 A 
ATOM      9  C   UNL     1       8.744  14.631  19.341  0.00  0.00    +0.000 A 
ATOM     10  C   UNL     1       8.501  15.242  20.584  0.00  0.00    +0.000 A 
ATOM     11  C   UNL     1       7.672  16.372  20.647  0.00  0.00    +0.000 A 
ATOM     12  C   UNL     1       9.170  14.767  21.850  0.00  0.00    +0.000 C 
ATOM     13  C   UNL     1       9.770  13.370  21.727  0.00  0.00    +0.000 C 
ATOM     14  C   UNL     1      10.576  13.261  20.437  0.00  0.00    +0.000 C 
ATOM     15  C   UNL     1       9.675  13.449  19.207  0.00  0.00    +0.000 C 
BRANCH   6  17
ATOM     16  C   UNL     1       5.438  18.205  20.606  0.00  0.00    +0.000 C 
ATOM     17  O   UNL     1       6.238  17.971  19.453  0.00  0.00    +0.000 OA
ENDBRANCH   6  17
ENDBRANCH   2  15
ENDBRANCH   1   3
BRANCH   1  18
ATOM     18  C   UNL     1       8.949   9.030  19.011  0.00  0.00    +0.000 C 
BRANCH  18  19
ATOM     19  C   UNL     1       8.322   7.695  18.652  0.00  0.00    +0.000 C 
BRANCH  19  20
ATOM     20  C   UNL     1       7.569   7.737  17.318  0.00  0.00    +0.000 C 
BRANCH  20  21
ATOM     21  N   UNL     1       7.314   6.387  16.816  0.00  0.00    +0.000 NA
ATOM     22  C   UNL     1       7.308   5.368  17.901  0.00  0.00    +0.000 C 
ATOM     23  C   UNL     1       6.013   5.295  18.757  0.00  0.00    +0.000 C 
ATOM     24  N   UNL     1       4.852   5.156  17.856  0.00  0.00    +0.000 N 
ATOM     25  C   UNL     1       4.752   6.277  16.920  0.00  0.00    +0.000 C 
ATOM     26  C   UNL     1       6.048   6.271  16.057  0.00  0.00    +0.000 C 
BRANCH  24  27
ATOM     27  C   UNL     1       3.755   4.377  18.193  0.00  0.00    +0.000 A 
ATOM     28  C   UNL     1       3.548   3.158  17.501  0.00  0.00    +0.000 A 
ATOM     29  C   UNL     1       2.418   2.353  17.692  0.00  0.00    +0.000 A 
ATOM     30  C   UNL     1       1.444   2.738  18.595  0.00  0.00    +0.000 A 
ATOM     31  C   UNL     1       1.636   3.897  19.335  0.00  0.00    +0.000 A 
ATOM     32  C   UNL     1       2.773   4.711  19.159  0.00  0.00    +0.000 A 
BRANCH  32  33
ATOM     33  O   UNL     1       2.735   5.746  20.056  0.00  0.00    +0.000 OA
ATOM     34  C   UNL     1       2.306   7.017  19.625  0.00  0.00    +0.000 C 
ENDBRANCH  32  33
ENDBRANCH  24  27
ENDBRANCH  20  21
ENDBRANCH  19  20
ENDBRANCH  18  19
ENDBRANCH   1  18
TORSDOF 9
ENDMDL
MODEL 3
REMARK VINA RESULT:      -7.7      1.262      1.908
REMARK  Name = 
REMARK  11 active torsions:
REMARK  status: ('A' for Active; 'I' for Inactive)
REMARK    1  A    between atoms: C_1  and  O_2
REMARK    2  A    between atoms: O_2  and  C_3
REMARK    3  A    between atoms: C_12  and  N_13
REMARK    4  A    between atoms: C_14  and  C_16
REMARK    5  A    between atoms: C_16  and  C_17
REMARK    6  A    between atoms: C_17  and  C_18
REMARK    7  A    between atoms: C_18  and  C_19
REMARK    8  A    between atoms: C_19  and  N_20
REMARK    9  A    between atoms: N_23  and  C_24
REMARK   10  A    between atoms: C_29  and  O_30
REMARK   11  A    between atoms: O_30  and  C_31
REMARK                            x       y       z     vdW  Elec       q    Type
REMARK                         _______ _______ _______ _____ _____    ______ ____
ROOT
ATOM      1  C   UNL     1       9.075   9.508  18.992  0.00  0.00    +0.000 C 
ENDROOT
BRANCH   1   3
ATOM      2  N   UNL     1       9.162  11.833  19.649  0.00  0.00    +0.000 N 
ATOM      3  C   UNL     1       9.492  10.916  18.684  0.00  0.00    +0.000 C 
ATOM      4  O   UNL     1      10.114  11.194  17.670  0.00  0.00    +0.000 OA
ATOM      5  H   UNL     1       8.709  11.542  20.507  0.00  0.00    +0.000 HD
BRANCH   2  15
ATOM      6  C   UNL     1       6.112  15.723  18.766  0.00  0.00    +0.000 A 
ATOM      7  C   UNL     1       6.575  14.838  17.794  0.00  0.00    +0.000 A 
ATOM      8  C   UNL     1       7.675  14.021  18.050  0.00  0.00    +0.000 A 
ATOM      9  C   UNL     1       8.339  14.085  19.287  0.00  0.00    +0.000 A 
ATOM     10  C   UNL     1       7.859  14.955  20.281  0.00  0.00    +0.000 A 
ATOM     11  C   UNL     1       6.757  15.778  20.003  0.00  0.00    +0.000 A 
ATOM     12  C   UNL     1       8.542  15.092  21.619  0.00  0.00    +0.000 C 
ATOM     13  C   UNL     1       9.500  13.944  21.927  0.00  0.00    +0.000 C 
ATOM     14  C   UNL     1      10.391  13.671  20.720  0.00  0.00    +0.000 C 
ATOM     15  C   UNL     1       9.558  13.220  19.511  0.00  0.00    +0.000 C 
BRANCH   6  17
ATOM     16  C   UNL     1       3.849  15.766  18.065  0.00  0.00    +0.000 C 
ATOM     17  O   UNL     1       5.034  16.479  18.398  0.00  0.00    +0.000 OA
ENDBRANCH   6  17
ENDBRANCH   2  15
ENDBRANCH   1   3
BRANCH   1  18
ATOM     18  C   UNL     1       8.222   8.966  17.852  0.00  0.00    +0.000 C 
BRANCH  18  19
ATOM     19  C   UNL     1       7.815   7.541  18.177  0.00  0.00    +0.000 C 
BRANCH  19  20
ATOM     20  C   UNL     1       7.405   6.746  16.934  0.00  0.00    +0.000 C 
BRANCH  20  21
ATOM     21  N   UNL     1       5.988   6.941  16.627  0.00  0.00    +0.000 NA
ATOM     22  C   UNL     1       5.442   5.862  15.759  0.00  0.00    +0.000 C 
ATOM     23  C   UNL     1       5.104   4.523  16.472  0.00  0.00    +0.000 C 
ATOM     24  N   UNL     1       4.230   4.804  17.629  0.00  0.00    +0.000 N 
ATOM     25  C   UNL     1       4.866   5.715  18.582  0.00  0.00    +0.000 C 
ATOM     26  C   UNL     1       5.135   7.052  17.831  0.00  0.00    +0.000 C 
BRANCH  24  27
ATOM     27  C   UNL     1       3.211   3.941  18.001  0.00  0.00    +0.000 A 
ATOM     28  C   UNL     1       1.879   4.265  17.641  0.00  0.00    +0.000 A 
ATOM     29  C   UNL     1       0.771   3.517  18.057  0.00  0.00    +0.000 A 
ATOM     30  C   UNL     1       0.954   2.402  18.855  0.00  0.00    +0.000 A 
ATOM     31  C   UNL     1       2.246   2.018  19.184  0.00  0.00    +0.000 A 
ATOM     32  C   UNL     1       3.371   2.757  18.763  0.00  0.00    +0.000 A 
BRANCH  32  33
ATOM     33  O   UNL     1       4.514   2.120  19.173  0.00  0.00    +0.000 OA
ATOM     34  C   UNL     1       4.723   1.898  20.549  0.00  0.00    +0.000 C 
ENDBRANCH  32  33
ENDBRANCH  24  27
ENDBRANCH  20  21
ENDBRANCH  19  20
ENDBRANCH  18  19
ENDBRANCH   1  18
TORSDOF 9
ENDMDL
MODEL 4
REMARK VINA RESULT:      -7.7      2.591     11.298
REMARK  Name = 
REMARK  11 active torsions:
REMARK  status: ('A' for Active; 'I' for Inactive)
REMARK    1  A    between atoms: C_1  and  O_2
REMARK    2  A    between atoms: O_2  and  C_3
REMARK    3  A    between atoms: C_12  and  N_13
REMARK    4  A    between atoms: C_14  and  C_16
REMARK    5  A    between atoms: C_16  and  C_17
REMARK    6  A    between atoms: C_17  and  C_18
REMARK    7  A    between atoms: C_18  and  C_19
REMARK    8  A    between atoms: C_19  and  N_20
REMARK    9  A    between atoms: N_23  and  C_24
REMARK   10  A    between atoms: C_29  and  O_30
REMARK   11  A    between atoms: O_30  and  C_31
REMARK                            x       y       z     vdW  Elec       q    Type
REMARK                         _______ _______ _______ _____ _____    ______ ____
ROOT
ATOM      1  C   UNL     1       8.089   8.483  17.424  0.00  0.00    +0.000 C 
ENDROOT
BRANCH   1   3
ATOM      2  N   UNL     1       7.048   6.376  16.859  0.00  0.00    +0.000 N 
ATOM      3  C   UNL     1       7.814   7.050  17.775  0.00  0.00    +0.000 C 
ATOM      4  O   UNL     1       8.280   6.534  18.779  0.00  0.00    +0.000 OA
ATOM      5  H   UNL     1       6.744   6.828  16.005  0.00  0.00    +0.000 HD
BRANCH   2  15
ATOM      6  C   UNL     1       2.819   4.435  18.748  0.00  0.00    +0.000 A 
ATOM      7  C   UNL     1       3.862   4.963  19.508  0.00  0.00    +0.000 A 
ATOM      8  C   UNL     1       5.123   5.149  18.943  0.00  0.00    +0.000 A 
ATOM      9  C   UNL     1       5.364   4.799  17.604  0.00  0.00    +0.000 A 
ATOM     10  C   UNL     1       4.308   4.293  16.825  0.00  0.00    +0.000 A 
ATOM     11  C   UNL     1       3.048   4.102  17.411  0.00  0.00    +0.000 A 
ATOM     12  C   UNL     1       4.507   3.871  15.389  0.00  0.00    +0.000 C 
ATOM     13  C   UNL     1       5.792   4.417  14.774  0.00  0.00    +0.000 C 
ATOM     14  C   UNL     1       6.962   4.197  15.727  0.00  0.00    +0.000 C 
ATOM     15  C   UNL     1       6.755   4.968  17.039  0.00  0.00    +0.000 C 
BRANCH   6  17
ATOM     16  C   UNL     1       0.949   3.057  19.214  0.00  0.00    +0.000 C 
ATOM     17  O   UNL     1       1.632   4.289  19.411  0.00  0.00    +0.000 OA
ENDBRANCH   6  17
ENDBRANCH   2  15
ENDBRANCH   1   3
BRANCH   1  18
ATOM     18  C   UNL     1       8.453   9.258  18.685  0.00  0.00    +0.000 C 
BRANCH  18  19
ATOM     19  C   UNL     1       9.336  10.431  18.302  0.00  0.00    +0.000 C 
BRANCH  19  20
ATOM     20  C   UNL     1      10.350  10.788  19.394  0.00  0.00    +0.000 C 
BRANCH  20  21
ATOM     21  N   UNL     1      11.448  11.589  18.852  0.00  0.00    +0.000 NA
ATOM     22  C   UNL     1      11.116  12.186  17.529  0.00  0.00    +0.000 C 
ATOM     23  C   UNL     1      10.210  13.448  17.561  0.00  0.00    +0.000 C 
ATOM     24  N   UNL     1      10.799  14.436  18.487  0.00  0.00    +0.000 N 
ATOM     25  C   UNL     1      10.933  13.900  19.842  0.00  0.00    +0.000 C 
ATOM     26  C   UNL     1      11.888  12.674  19.758  0.00  0.00    +0.000 C 
BRANCH  24  27
ATOM     27  C   UNL     1      10.739  15.798  18.235  0.00  0.00    +0.000 A 
ATOM     28  C   UNL     1      11.799  16.405  17.518  0.00  0.00    +0.000 A 
ATOM     29  C   UNL     1      11.885  17.786  17.304  0.00  0.00    +0.000 A 
ATOM     30  C   UNL     1      10.901  18.622  17.800  0.00  0.00    +0.000 A 
ATOM     31  C   UNL     1       9.816  18.062  18.459  0.00  0.00    +0.000 A 
ATOM     32  C   UNL     1       9.712  16.672  18.673  0.00  0.00    +0.000 A 
BRANCH  32  33
ATOM     33  O   UNL     1       8.519  16.394  19.286  0.00  0.00    +0.000 OA
ATOM     34  C   UNL     1       7.335  16.971  18.784  0.00  0.00    +0.000 C 
ENDBRANCH  32  33
ENDBRANCH  24  27
ENDBRANCH  20  21
ENDBRANCH  19  20
ENDBRANCH  18  19
ENDBRANCH   1  18
TORSDOF 9
ENDMDL
MODEL 5
REMARK VINA RESULT:      -7.6      1.076      1.095
REMARK  Name = 
REMARK  11 active torsions:
REMARK  status: ('A' for Active; 'I' for Inactive)
REMARK    1  A    between atoms: C_1  and  O_2
REMARK    2  A    between atoms: O_2  and  C_3
REMARK    3  A    between atoms: C_12  and  N_13
REMARK    4  A    between atoms: C_14  and  C_16
REMARK    5  A    between atoms: C_16  and  C_17
REMARK    6  A    between atoms: C_17  and  C_18
REMARK    7  A    between atoms: C_18  and  C_19
REMARK    8  A    between atoms: C_19  and  N_20
REMARK    9  A    between atoms: N_23  and  C_24
REMARK   10  A    between atoms: C_29  and  O_30
REMARK   11  A    between atoms: O_30  and  C_31
REMARK                            x       y       z     vdW  Elec       q    Type
REMARK                         _______ _______ _______ _____ _____    ______ ____
ROOT
ATOM      1  C   UNL     1       9.178  10.349  19.225  0.00  0.00    +0.000 C 
ENDROOT
BRANCH   1   3
ATOM      2  N   UNL     1       9.123  12.622  20.046  0.00  0.00    +0.000 N 
ATOM      3  C   UNL     1       9.538  11.794  19.035  0.00  0.00    +0.000 C 
ATOM      4  O   UNL     1      10.187  12.172  18.073  0.00  0.00    +0.000 OA
ATOM      5  H   UNL     1       8.650  12.249  20.861  0.00  0.00    +0.000 HD
BRANCH   2  15
ATOM      6  C   UNL     1       5.909  16.427  19.405  0.00  0.00    +0.000 A 
ATOM      7  C   UNL     1       6.430  15.642  18.376  0.00  0.00    +0.000 A 
ATOM      8  C   UNL     1       7.563  14.859  18.591  0.00  0.00    +0.000 A 
ATOM      9  C   UNL     1       8.202  14.855  19.842  0.00  0.00    +0.000 A 
ATOM     10  C   UNL     1       7.664  15.623  20.891  0.00  0.00    +0.000 A 
ATOM     11  C   UNL     1       6.530  16.414  20.655  0.00  0.00    +0.000 A 
ATOM     12  C   UNL     1       8.318  15.685  22.250  0.00  0.00    +0.000 C 
ATOM     13  C   UNL     1       9.323  14.562  22.487  0.00  0.00    +0.000 C 
ATOM     14  C   UNL     1      10.246  14.425  21.282  0.00  0.00    +0.000 C 
ATOM     15  C   UNL     1       9.456  14.032  20.024  0.00  0.00    +0.000 C 
BRANCH   6  17
ATOM     16  C   UNL     1       3.831  17.328  20.098  0.00  0.00    +0.000 C 
ATOM     17  O   UNL     1       4.803  17.159  19.074  0.00  0.00    +0.000 OA
ENDBRANCH   6  17
ENDBRANCH   2  15
ENDBRANCH   1   3
BRANCH   1  18
ATOM     18  C   UNL     1       8.631   9.783  17.920  0.00  0.00    +0.000 C 
BRANCH  18  19
ATOM     19  C   UNL     1       8.253   8.329  18.136  0.00  0.00    +0.000 C 
BRANCH  19  20
ATOM     20  C   UNL     1       6.988   7.928  17.369  0.00  0.00    +0.000 C 
BRANCH  20  21
ATOM     21  N   UNL     1       7.018   6.511  17.008  0.00  0.00    +0.000 NA
ATOM     22  C   UNL     1       7.139   5.624  18.197  0.00  0.00    +0.000 C 
ATOM     23  C   UNL     1       5.832   5.391  19.005  0.00  0.00    +0.000 C 
ATOM     24  N   UNL     1       4.771   4.943  18.081  0.00  0.00    +0.000 N 
ATOM     25  C   UNL     1       4.521   5.924  17.025  0.00  0.00    +0.000 C 
ATOM     26  C   UNL     1       5.843   6.079  16.218  0.00  0.00    +0.000 C 
BRANCH  24  27
ATOM     27  C   UNL     1       3.821   4.006  18.459  0.00  0.00    +0.000 A 
ATOM     28  C   UNL     1       3.692   2.821  17.693  0.00  0.00    +0.000 A 
ATOM     29  C   UNL     1       2.696   1.865  17.927  0.00  0.00    +0.000 A 
ATOM     30  C   UNL     1       1.786   2.056  18.950  0.00  0.00    +0.000 A 
ATOM     31  C   UNL     1       1.912   3.176  19.759  0.00  0.00    +0.000 A 
ATOM     32  C   UNL     1       2.915   4.142  19.540  0.00  0.00    +0.000 A 
BRANCH  32  33
ATOM     33  O   UNL     1       2.848   5.099  20.519  0.00  0.00    +0.000 OA
ATOM     34  C   UNL     1       1.691   5.898  20.623  0.00  0.00    +0.000 C 
ENDBRANCH  32  33
ENDBRANCH  24  27
ENDBRANCH  20  21
ENDBRANCH  19  20
ENDBRANCH  18  19
ENDBRANCH   1  18
TORSDOF 9
ENDMDL
MODEL 6
REMARK VINA RESULT:      -7.5      2.632     11.272
REMARK  Name = 
REMARK  11 active torsions:
REMARK  status: ('A' for Active; 'I' for Inactive)
REMARK    1  A    between atoms: C_1  and  O_2
REMARK    2  A    between atoms: O_2  and  C_3
REMARK    3  A    between atoms: C_12  and  N_13
REMARK    4  A    between atoms: C_14  and  C_16
REMARK    5  A    between atoms: C_16  and  C_17
REMARK    6  A    between atoms: C_17  and  C_18
REMARK    7  A    between atoms: C_18  and  C_19
REMARK    8  A    between atoms: C_19  and  N_20
REMARK    9  A    between atoms: N_23  and  C_24
REMARK   10  A    between atoms: C_29  and  O_30
REMARK   11  A    between atoms: O_30  and  C_31
REMARK                            x       y       z     vdW  Elec       q    Type
REMARK                         _______ _______ _______ _____ _____    ______ ____
ROOT
ATOM      1  C   UNL     1       8.416   7.750  18.659  0.00  0.00    +0.000 C 
ENDROOT
BRANCH   1   3
ATOM      2  N   UNL     1       7.376   5.960  17.412  0.00  0.00    +0.000 N 
ATOM      3  C   UNL     1       7.974   6.318  18.593  0.00  0.00    +0.000 C 
ATOM      4  O   UNL     1       8.180   5.539  19.510  0.00  0.00    +0.000 OA
ATOM      5  H   UNL     1       7.293   6.625  16.651  0.00  0.00    +0.000 HD
BRANCH   2  15
ATOM      6  C   UNL     1       2.896   3.999  18.552  0.00  0.00    +0.000 A 
ATOM      7  C   UNL     1       3.934   4.195  19.462  0.00  0.00    +0.000 A 
ATOM      8  C   UNL     1       5.237   4.404  19.011  0.00  0.00    +0.000 A 
ATOM      9  C   UNL     1       5.524   4.411  17.636  0.00  0.00    +0.000 A 
ATOM     10  C   UNL     1       4.476   4.242  16.714  0.00  0.00    +0.000 A 
ATOM     11  C   UNL     1       3.173   4.022  17.184  0.00  0.00    +0.000 A 
ATOM     12  C   UNL     1       4.722   4.212  15.225  0.00  0.00    +0.000 C 
ATOM     13  C   UNL     1       6.082   4.777  14.826  0.00  0.00    +0.000 C 
ATOM     14  C   UNL     1       7.171   4.192  15.718  0.00  0.00    +0.000 C 
ATOM     15  C   UNL     1       6.955   4.592  17.185  0.00  0.00    +0.000 C 
BRANCH   6  17
ATOM     16  C   UNL     1       1.092   2.506  18.915  0.00  0.00    +0.000 C 
ATOM     17  O   UNL     1       1.665   3.793  19.110  0.00  0.00    +0.000 OA
ENDBRANCH   6  17
ENDBRANCH   2  15
ENDBRANCH   1   3
BRANCH   1  18
ATOM     18  C   UNL     1       7.568   8.592  17.713  0.00  0.00    +0.000 C 
BRANCH  18  19
ATOM     19  C   UNL     1       8.122  10.004  17.682  0.00  0.00    +0.000 C 
BRANCH  19  20
ATOM     20  C   UNL     1       9.159  10.256  18.781  0.00  0.00    +0.000 C 
BRANCH  20  21
ATOM     21  N   UNL     1      10.220  11.146  18.310  0.00  0.00    +0.000 NA
ATOM     22  C   UNL     1       9.689  12.431  17.780  0.00  0.00    +0.000 C 
ATOM     23  C   UNL     1       9.277  13.486  18.844  0.00  0.00    +0.000 C 
ATOM     24  N   UNL     1      10.403  13.690  19.777  0.00  0.00    +0.000 N 
ATOM     25  C   UNL     1      10.785  12.447  20.448  0.00  0.00    +0.000 C 
ATOM     26  C   UNL     1      11.237  11.448  19.343  0.00  0.00    +0.000 C 
BRANCH  24  27
ATOM     27  C   UNL     1      10.691  14.936  20.313  0.00  0.00    +0.000 A 
ATOM     28  C   UNL     1      10.572  15.120  21.713  0.00  0.00    +0.000 A 
ATOM     29  C   UNL     1      10.738  16.361  22.338  0.00  0.00    +0.000 A 
ATOM     30  C   UNL     1      11.036  17.479  21.579  0.00  0.00    +0.000 A 
ATOM     31  C   UNL     1      11.216  17.332  20.211  0.00  0.00    +0.000 A 
ATOM     32  C   UNL     1      11.061  16.086  19.571  0.00  0.00    +0.000 A 
BRANCH  32  33
ATOM     33  O   UNL     1      11.358  16.217  18.239  0.00  0.00    +0.000 OA
ATOM     34  C   UNL     1      11.979  17.399  17.786  0.00  0.00    +0.000 C 
ENDBRANCH  32  33
ENDBRANCH  24  27
ENDBRANCH  20  21
ENDBRANCH  19  20
ENDBRANCH  18  19
ENDBRANCH   1  18
TORSDOF 9
ENDMDL
MODEL 7
REMARK VINA RESULT:      -7.5      5.019      7.502
REMARK  Name = 
REMARK  11 active torsions:
REMARK  status: ('A' for Active; 'I' for Inactive)
REMARK    1  A    between atoms: C_1  and  O_2
REMARK    2  A    between atoms: O_2  and  C_3
REMARK    3  A    between atoms: C_12  and  N_13
REMARK    4  A    between atoms: C_14  and  C_16
REMARK    5  A    between atoms: C_16  and  C_17
REMARK    6  A    between atoms: C_17  and  C_18
REMARK    7  A    between atoms: C_18  and  C_19
REMARK    8  A    between atoms: C_19  and  N_20
REMARK    9  A    between atoms: N_23  and  C_24
REMARK   10  A    between atoms: C_29  and  O_30
REMARK   11  A    between atoms: O_30  and  C_31
REMARK                            x       y       z     vdW  Elec       q    Type
REMARK                         _______ _______ _______ _____ _____    ______ ____
ROOT
ATOM      1  C   UNL     1       2.303   7.194  20.133  0.00  0.00    +0.000 C 
ENDROOT
BRANCH   1   3
ATOM      2  N   UNL     1       1.347   9.256  19.310  0.00  0.00    +0.000 N 
ATOM      3  C   UNL     1       2.005   8.101  18.974  0.00  0.00    +0.000 C 
ATOM      4  O   UNL     1       2.368   7.833  17.839  0.00  0.00    +0.000 OA
ATOM      5  H   UNL     1       1.131   9.467  20.276  0.00  0.00    +0.000 HD
BRANCH   2  15
ATOM      6  C   UNL     1      -3.180  11.148  18.241  0.00  0.00    +0.000 A 
ATOM      7  C   UNL     1      -2.705   9.918  17.789  0.00  0.00    +0.000 A 
ATOM      8  C   UNL     1      -1.341   9.631  17.829  0.00  0.00    +0.000 A 
ATOM      9  C   UNL     1      -0.426  10.579  18.317  0.00  0.00    +0.000 A 
ATOM     10  C   UNL     1      -0.903  11.810  18.799  0.00  0.00    +0.000 A 
ATOM     11  C   UNL     1      -2.277  12.088  18.742  0.00  0.00    +0.000 A 
ATOM     12  C   UNL     1       0.029  12.882  19.309  0.00  0.00    +0.000 C 
ATOM     13  C   UNL     1       1.428  12.363  19.628  0.00  0.00    +0.000 C 
ATOM     14  C   UNL     1       1.935  11.494  18.483  0.00  0.00    +0.000 C 
ATOM     15  C   UNL     1       1.049  10.252  18.300  0.00  0.00    +0.000 C 
BRANCH   6  17
ATOM     16  C   UNL     1      -5.015  11.824  16.903  0.00  0.00    +0.000 C 
ATOM     17  O   UNL     1      -4.533  11.320  18.142  0.00  0.00    +0.000 OA
ENDBRANCH   6  17
ENDBRANCH   2  15
ENDBRANCH   1   3
BRANCH   1  18
ATOM     18  C   UNL     1       1.277   6.068  20.178  0.00  0.00    +0.000 C 
BRANCH  18  19
ATOM     19  C   UNL     1       1.930   4.832  20.768  0.00  0.00    +0.000 C 
BRANCH  19  20
ATOM     20  C   UNL     1       1.237   3.536  20.338  0.00  0.00    +0.000 C 
BRANCH  20  21
ATOM     21  N   UNL     1       2.181   2.621  19.696  0.00  0.00    +0.000 NA
ATOM     22  C   UNL     1       2.033   2.600  18.215  0.00  0.00    +0.000 C 
ATOM     23  C   UNL     1       2.670   3.795  17.452  0.00  0.00    +0.000 C 
ATOM     24  N   UNL     1       4.080   3.933  17.870  0.00  0.00    +0.000 N 
ATOM     25  C   UNL     1       4.200   4.156  19.311  0.00  0.00    +0.000 C 
ATOM     26  C   UNL     1       3.595   2.911  20.022  0.00  0.00    +0.000 C 
BRANCH  24  27
ATOM     27  C   UNL     1       5.072   4.312  16.979  0.00  0.00    +0.000 A 
ATOM     28  C   UNL     1       5.024   3.814  15.654  0.00  0.00    +0.000 A 
ATOM     29  C   UNL     1       6.031   4.052  14.710  0.00  0.00    +0.000 A 
ATOM     30  C   UNL     1       7.135   4.809  15.059  0.00  0.00    +0.000 A 
ATOM     31  C   UNL     1       7.194   5.362  16.330  0.00  0.00    +0.000 A 
ATOM     32  C   UNL     1       6.183   5.138  17.286  0.00  0.00    +0.000 A 
BRANCH  32  33
ATOM     33  O   UNL     1       6.464   5.851  18.422  0.00  0.00    +0.000 OA
ATOM     34  C   UNL     1       7.722   5.697  19.038  0.00  0.00    +0.000 C 
ENDBRANCH  32  33
ENDBRANCH  24  27
ENDBRANCH  20  21
ENDBRANCH  19  20
ENDBRANCH  18  19
ENDBRANCH   1  18
TORSDOF 9
ENDMDL
MODEL 8
REMARK VINA RESULT:      -7.5      5.452     10.219
REMARK  Name = 
REMARK  11 active torsions:
REMARK  status: ('A' for Active; 'I' for Inactive)
REMARK    1  A    between atoms: C_1  and  O_2
REMARK    2  A    between atoms: O_2  and  C_3
REMARK    3  A    between atoms: C_12  and  N_13
REMARK    4  A    between atoms: C_14  and  C_16
REMARK    5  A    between atoms: C_16  and  C_17
REMARK    6  A    between atoms: C_17  and  C_18
REMARK    7  A    between atoms: C_18  and  C_19
REMARK    8  A    between atoms: C_19  and  N_20
REMARK    9  A    between atoms: N_23  and  C_24
REMARK   10  A    between atoms: C_29  and  O_30
REMARK   11  A    between atoms: O_30  and  C_31
REMARK                            x       y       z     vdW  Elec       q    Type
REMARK                         _______ _______ _______ _____ _____    ______ ____
ROOT
ATOM      1  C   UNL     1       2.244   7.302  19.406  0.00  0.00    +0.000 C 
ENDROOT
BRANCH   1   3
ATOM      2  N   UNL     1       4.050   5.958  18.528  0.00  0.00    +0.000 N 
ATOM      3  C   UNL     1       2.920   5.966  19.303  0.00  0.00    +0.000 C 
ATOM      4  O   UNL     1       2.505   4.988  19.906  0.00  0.00    +0.000 OA
ATOM      5  H   UNL     1       4.396   6.812  18.106  0.00  0.00    +0.000 HD
BRANCH   2  15
ATOM      6  C   UNL     1       6.518   4.469  14.415  0.00  0.00    +0.000 A 
ATOM      7  C   UNL     1       5.149   4.306  14.625  0.00  0.00    +0.000 A 
ATOM      8  C   UNL     1       4.614   4.417  15.908  0.00  0.00    +0.000 A 
ATOM      9  C   UNL     1       5.446   4.685  17.007  0.00  0.00    +0.000 A 
ATOM     10  C   UNL     1       6.823   4.878  16.797  0.00  0.00    +0.000 A 
ATOM     11  C   UNL     1       7.347   4.753  15.502  0.00  0.00    +0.000 A 
ATOM     12  C   UNL     1       7.775   5.141  17.938  0.00  0.00    +0.000 C 
ATOM     13  C   UNL     1       7.073   5.576  19.221  0.00  0.00    +0.000 C 
ATOM     14  C   UNL     1       5.890   4.656  19.505  0.00  0.00    +0.000 C 
ATOM     15  C   UNL     1       4.839   4.750  18.390  0.00  0.00    +0.000 C 
BRANCH   6  17
ATOM     16  C   UNL     1       6.201   3.395  12.327  0.00  0.00    +0.000 C 
ATOM     17  O   UNL     1       6.927   4.327  13.118  0.00  0.00    +0.000 OA
ENDBRANCH   6  17
ENDBRANCH   2  15
ENDBRANCH   1   3
BRANCH   1  18
ATOM     18  C   UNL     1       2.567   8.135  18.171  0.00  0.00    +0.000 C 
BRANCH  18  19
ATOM     19  C   UNL     1       1.426   9.104  17.921  0.00  0.00    +0.000 C 
BRANCH  19  20
ATOM     20  C   UNL     1       1.871  10.569  17.991  0.00  0.00    +0.000 C 
BRANCH  20  21
ATOM     21  N   UNL     1       1.500  11.171  19.272  0.00  0.00    +0.000 NA
ATOM     22  C   UNL     1       0.972  12.554  19.118  0.00  0.00    +0.000 C 
ATOM     23  C   UNL     1      -0.501  12.668  18.637  0.00  0.00    +0.000 C 
ATOM     24  N   UNL     1      -1.356  11.839  19.511  0.00  0.00    +0.000 N 
ATOM     25  C   UNL     1      -0.947  10.434  19.496  0.00  0.00    +0.000 C 
ATOM     26  C   UNL     1       0.512  10.374  20.033  0.00  0.00    +0.000 C 
BRANCH  24  27
ATOM     27  C   UNL     1      -2.638  12.231  19.863  0.00  0.00    +0.000 A 
ATOM     28  C   UNL     1      -2.858  12.754  21.161  0.00  0.00    +0.000 A 
ATOM     29  C   UNL     1      -4.129  13.080  21.650  0.00  0.00    +0.000 A 
ATOM     30  C   UNL     1      -5.241  12.897  20.848  0.00  0.00    +0.000 A 
ATOM     31  C   UNL     1      -5.064  12.440  19.549  0.00  0.00    +0.000 A 
ATOM     32  C   UNL     1      -3.788  12.118  19.043  0.00  0.00    +0.000 A 
BRANCH  32  33
ATOM     33  O   UNL     1      -3.900  11.757  17.725  0.00  0.00    +0.000 OA
ATOM     34  C   UNL     1      -4.130  10.405  17.398  0.00  0.00    +0.000 C 
ENDBRANCH  32  33
ENDBRANCH  24  27
ENDBRANCH  20  21
ENDBRANCH  19  20
ENDBRANCH  18  19
ENDBRANCH   1  18
TORSDOF 9
ENDMDL
MODEL 9
REMARK VINA RESULT:      -7.5      5.630     10.148
REMARK  Name = 
REMARK  11 active torsions:
REMARK  status: ('A' for Active; 'I' for Inactive)
REMARK    1  A    between atoms: C_1  and  O_2
REMARK    2  A    between atoms: O_2  and  C_3
REMARK    3  A    between atoms: C_12  and  N_13
REMARK    4  A    between atoms: C_14  and  C_16
REMARK    5  A    between atoms: C_16  and  C_17
REMARK    6  A    between atoms: C_17  and  C_18
REMARK    7  A    between atoms: C_18  and  C_19
REMARK    8  A    between atoms: C_19  and  N_20
REMARK    9  A    between atoms: N_23  and  C_24
REMARK   10  A    between atoms: C_29  and  O_30
REMARK   11  A    between atoms: O_30  and  C_31
REMARK                            x       y       z     vdW  Elec       q    Type
REMARK                         _______ _______ _______ _____ _____    ______ ____
ROOT
ATOM      1  C   UNL     1       1.974   7.086  19.214  0.00  0.00    +0.000 C 
ENDROOT
BRANCH   1   3
ATOM      2  N   UNL     1       3.813   5.810  18.304  0.00  0.00    +0.000 N 
ATOM      3  C   UNL     1       2.762   5.809  19.184  0.00  0.00    +0.000 C 
ATOM      4  O   UNL     1       2.499   4.874  19.924  0.00  0.00    +0.000 OA
ATOM      5  H   UNL     1       4.035   6.637  17.762  0.00  0.00    +0.000 HD
BRANCH   2  15
ATOM      6  C   UNL     1       6.671   4.560  14.368  0.00  0.00    +0.000 A 
ATOM      7  C   UNL     1       5.307   4.294  14.478  0.00  0.00    +0.000 A 
ATOM      8  C   UNL     1       4.675   4.348  15.719  0.00  0.00    +0.000 A 
ATOM      9  C   UNL     1       5.405   4.663  16.878  0.00  0.00    +0.000 A 
ATOM     10  C   UNL     1       6.775   4.960  16.769  0.00  0.00    +0.000 A 
ATOM     11  C   UNL     1       7.397   4.890  15.514  0.00  0.00    +0.000 A 
ATOM     12  C   UNL     1       7.621   5.278  17.977  0.00  0.00    +0.000 C 
ATOM     13  C   UNL     1       6.798   5.643  19.210  0.00  0.00    +0.000 C 
ATOM     14  C   UNL     1       5.671   4.635  19.401  0.00  0.00    +0.000 C 
ATOM     15  C   UNL     1       4.697   4.665  18.214  0.00  0.00    +0.000 C 
BRANCH   6  17
ATOM     16  C   UNL     1       8.099   5.482  12.717  0.00  0.00    +0.000 C 
ATOM     17  O   UNL     1       7.181   4.466  13.103  0.00  0.00    +0.000 OA
ENDBRANCH   6  17
ENDBRANCH   2  15
ENDBRANCH   1   3
BRANCH   1  18
ATOM     18  C   UNL     1       2.580   8.085  18.237  0.00  0.00    +0.000 C 
BRANCH  18  19
ATOM     19  C   UNL     1       1.503   9.061  17.801  0.00  0.00    +0.000 C 
BRANCH  19  20
ATOM     20  C   UNL     1       1.779  10.493  18.272  0.00  0.00    +0.000 C 
BRANCH  20  21
ATOM     21  N   UNL     1       0.865  10.879  19.347  0.00  0.00    +0.000 NA
ATOM     22  C   UNL     1       0.319  12.251  19.162  0.00  0.00    +0.000 C 
ATOM     23  C   UNL     1      -0.835  12.390  18.130  0.00  0.00    +0.000 C 
ATOM     24  N   UNL     1      -1.890  11.409  18.458  0.00  0.00    +0.000 N 
ATOM     25  C   UNL     1      -1.381  10.037  18.437  0.00  0.00    +0.000 C 
ATOM     26  C   UNL     1      -0.268   9.943  19.521  0.00  0.00    +0.000 C 
BRANCH  24  27
ATOM     27  C   UNL     1      -3.235  11.701  18.291  0.00  0.00    +0.000 A 
ATOM     28  C   UNL     1      -3.999  12.065  19.427  0.00  0.00    +0.000 A 
ATOM     29  C   UNL     1      -5.382  12.276  19.383  0.00  0.00    +0.000 A 
ATOM     30  C   UNL     1      -6.062  12.133  18.186  0.00  0.00    +0.000 A 
ATOM     31  C   UNL     1      -5.342  11.832  17.039  0.00  0.00    +0.000 A 
ATOM     32  C   UNL     1      -3.948  11.626  17.068  0.00  0.00    +0.000 A 
BRANCH  32  33
ATOM     33  O   UNL     1      -3.493  11.410  15.794  0.00  0.00    +0.000 OA
ATOM     34  C   UNL     1      -3.570  10.113  15.245  0.00  0.00    +0.000 C 
ENDBRANCH  32  33
ENDBRANCH  24  27
ENDBRANCH  20  21
ENDBRANCH  19  20
ENDBRANCH  18  19
ENDBRANCH   1  18
TORSDOF 9
ENDMDL
