MODEL 1
REMARK VINA RESULT:      -7.3      0.000      0.000
REMARK  Name = 
REMARK  2 active torsions:
REMARK  status: ('A' for Active; 'I' for Inactive)
REMARK    1  A    between atoms: C_5  and  C_6
REMARK    2  A    between atoms: C_9  and  C_10
REMARK                            x       y       z     vdW  Elec       q    Type
REMARK                         _______ _______ _______ _____ _____    ______ ____
ROOT
ATOM      1  C   UNL     1       2.648   7.319  18.609  0.00  0.00    +0.000 A 
ATOM      2  N   UNL     1       2.389   6.864  19.849  0.00  0.00    +0.000 NA
ATOM      3  C   UNL     1       1.616   7.650  20.630  0.00  0.00    +0.000 A 
ATOM      4  C   UNL     1       1.089   8.874  20.254  0.00  0.00    +0.000 A 
ATOM      5  C   UNL     1       1.424   9.227  18.958  0.00  0.00    +0.000 A 
ATOM      6  N   UNL     1       2.184   8.484  18.123  0.00  0.00    +0.000 NA
ENDROOT
BRANCH   1  11
ATOM      7 BR   UNL     1       6.225   3.876  14.908  0.00  0.00    +0.000 Br
ATOM      8  C   UNL     1       5.141   4.927  16.046  0.00  0.00    +0.000 A 
ATOM      9  C   UNL     1       5.267   6.312  16.035  0.00  0.00    +0.000 A 
ATOM     10  C   UNL     1       4.458   7.087  16.874  0.00  0.00    +0.000 A 
ATOM     11  C   UNL     1       3.511   6.499  17.737  0.00  0.00    +0.000 A 
ATOM     12  C   UNL     1       3.416   5.093  17.724  0.00  0.00    +0.000 A 
ATOM     13  C   UNL     1       4.220   4.312  16.887  0.00  0.00    +0.000 A 
ENDBRANCH   1  11
BRANCH   4  14
ATOM     14  C   UNL     1       0.261   9.709  21.140  0.00  0.00    +0.000 A 
ATOM     15  C   UNL     1      -0.307  10.914  20.688  0.00  0.00    +0.000 A 
ATOM     16  C   UNL     1      -1.081  11.716  21.532  0.00  0.00    +0.000 A 
ATOM     17  C   UNL     1      -1.315  11.324  22.846  0.00  0.00    +0.000 A 
ATOM     18  C   UNL     1      -0.776  10.131  23.316  0.00  0.00    +0.000 A 
ATOM     19  C   UNL     1       0.006   9.335  22.473  0.00  0.00    +0.000 A 
ENDBRANCH   4  14
TORSDOF 2
ENDMDL
MODEL 2
REMARK VINA RESULT:      -7.3      0.091      1.564
REMARK  Name = 
REMARK  2 active torsions:
REMARK  status: ('A' for Active; 'I' for Inactive)
REMARK    1  A    between atoms: C_5  and  C_6
REMARK    2  A    between atoms: C_9  and  C_10
REMARK                            x       y       z     vdW  Elec       q    Type
REMARK                         _______ _______ _______ _____ _____    ______ ____
ROOT
ATOM      1  C   UNL     1       2.581   7.351  18.608  0.00  0.00    +0.000 A 
ATOM      2  N   UNL     1       2.304   6.903  19.846  0.00  0.00    +0.000 NA
ATOM      3  C   UNL     1       1.538   7.703  20.619  0.00  0.00    +0.000 A 
ATOM      4  C   UNL     1       1.035   8.935  20.236  0.00  0.00    +0.000 A 
ATOM      5  C   UNL     1       1.386   9.280  18.942  0.00  0.00    +0.000 A 
ATOM      6  N   UNL     1       2.141   8.523  18.116  0.00  0.00    +0.000 NA
ENDROOT
BRANCH   1  11
ATOM      7 BR   UNL     1       6.220   3.848  15.026  0.00  0.00    +0.000 Br
ATOM      8  C   UNL     1       5.101   4.918  16.111  0.00  0.00    +0.000 A 
ATOM      9  C   UNL     1       4.144   4.316  16.921  0.00  0.00    +0.000 A 
ATOM     10  C   UNL     1       3.322   5.111  17.728  0.00  0.00    +0.000 A 
ATOM     11  C   UNL     1       3.438   6.516  17.744  0.00  0.00    +0.000 A 
ATOM     12  C   UNL     1       4.416   7.089  16.907  0.00  0.00    +0.000 A 
ATOM     13  C   UNL     1       5.242   6.301  16.098  0.00  0.00    +0.000 A 
ENDBRANCH   1  11
BRANCH   4  14
ATOM     14  C   UNL     1       0.213   9.786  21.114  0.00  0.00    +0.000 A 
ATOM     15  C   UNL     1      -0.049   9.423  22.447  0.00  0.00    +0.000 A 
ATOM     16  C   UNL     1      -0.842  10.221  23.277  0.00  0.00    +0.000 A 
ATOM     17  C   UNL     1      -1.381  11.408  22.795  0.00  0.00    +0.000 A 
ATOM     18  C   UNL     1      -1.129  11.798  21.484  0.00  0.00    +0.000 A 
ATOM     19  C   UNL     1      -0.344  10.994  20.652  0.00  0.00    +0.000 A 
ENDBRANCH   4  14
TORSDOF 2
ENDMDL
MODEL 3
REMARK VINA RESULT:      -7.3      0.139      1.114
REMARK  Name = 
REMARK  2 active torsions:
REMARK  status: ('A' for Active; 'I' for Inactive)
REMARK    1  A    between atoms: C_5  and  C_6
REMARK    2  A    between atoms: C_9  and  C_10
REMARK                            x       y       z     vdW  Elec       q    Type
REMARK                         _______ _______ _______ _____ _____    ______ ____
ROOT
ATOM      1  C   UNL     1       2.575   7.391  18.614  0.00  0.00    +0.000 A 
ATOM      2  N   UNL     1       2.292   6.947  19.853  0.00  0.00    +0.000 NA
ATOM      3  C   UNL     1       1.514   7.746  20.616  0.00  0.00    +0.000 A 
ATOM      4  C   UNL     1       1.005   8.972  20.223  0.00  0.00    +0.000 A 
ATOM      5  C   UNL     1       1.363   9.313  18.930  0.00  0.00    +0.000 A 
ATOM      6  N   UNL     1       2.129   8.557  18.113  0.00  0.00    +0.000 NA
ENDROOT
BRANCH   1  11
ATOM      7 BR   UNL     1       6.265   3.898  15.076  0.00  0.00    +0.000 Br
ATOM      8  C   UNL     1       5.131   4.964  16.148  0.00  0.00    +0.000 A 
ATOM      9  C   UNL     1       4.188   4.358  16.972  0.00  0.00    +0.000 A 
ATOM     10  C   UNL     1       3.354   5.151  17.769  0.00  0.00    +0.000 A 
ATOM     11  C   UNL     1       3.443   6.558  17.761  0.00  0.00    +0.000 A 
ATOM     12  C   UNL     1       4.408   7.135  16.910  0.00  0.00    +0.000 A 
ATOM     13  C   UNL     1       5.245   6.349  16.112  0.00  0.00    +0.000 A 
ENDBRANCH   1  11
BRANCH   4  14
ATOM     14  C   UNL     1       0.171   9.821  21.090  0.00  0.00    +0.000 A 
ATOM     15  C   UNL     1      -0.441  10.990  20.600  0.00  0.00    +0.000 A 
ATOM     16  C   UNL     1      -1.220  11.806  21.426  0.00  0.00    +0.000 A 
ATOM     17  C   UNL     1      -1.416  11.464  22.759  0.00  0.00    +0.000 A 
ATOM     18  C   UNL     1      -0.834  10.308  23.268  0.00  0.00    +0.000 A 
ATOM     19  C   UNL     1      -0.046   9.499  22.443  0.00  0.00    +0.000 A 
ENDBRANCH   4  14
TORSDOF 2
ENDMDL
MODEL 4
REMARK VINA RESULT:      -7.3      3.422      7.850
REMARK  Name = 
REMARK  2 active torsions:
REMARK  status: ('A' for Active; 'I' for Inactive)
REMARK    1  A    between atoms: C_5  and  C_6
REMARK    2  A    between atoms: C_9  and  C_10
REMARK                            x       y       z     vdW  Elec       q    Type
REMARK                         _______ _______ _______ _____ _____    ______ ____
ROOT
ATOM      1  C   UNL     1       1.386   8.656  19.859  0.00  0.00    +0.000 A 
ATOM      2  N   UNL     1       1.780   7.483  20.387  0.00  0.00    +0.000 NA
ATOM      3  C   UNL     1       2.551   6.698  19.602  0.00  0.00    +0.000 A 
ATOM      4  C   UNL     1       2.949   7.008  18.313  0.00  0.00    +0.000 A 
ATOM      5  C   UNL     1       2.483   8.241  17.888  0.00  0.00    +0.000 A 
ATOM      6  N   UNL     1       1.717   9.075  18.625  0.00  0.00    +0.000 NA
ENDROOT
BRANCH   1  11
ATOM      7 BR   UNL     1      -2.197  12.342  23.312  0.00  0.00    +0.000 Br
ATOM      8  C   UNL     1      -1.112  11.211  22.255  0.00  0.00    +0.000 A 
ATOM      9  C   UNL     1      -0.944  11.482  20.901  0.00  0.00    +0.000 A 
ATOM     10  C   UNL     1      -0.135  10.645  20.123  0.00  0.00    +0.000 A 
ATOM     11  C   UNL     1       0.520   9.528  20.677  0.00  0.00    +0.000 A 
ATOM     12  C   UNL     1       0.323   9.283  22.051  0.00  0.00    +0.000 A 
ATOM     13  C   UNL     1      -0.484  10.115  22.835  0.00  0.00    +0.000 A 
ENDBRANCH   1  11
BRANCH   4  14
ATOM     14  C   UNL     1       3.780   6.119  17.483  0.00  0.00    +0.000 A 
ATOM     15  C   UNL     1       4.738   6.635  16.592  0.00  0.00    +0.000 A 
ATOM     16  C   UNL     1       5.517   5.793  15.792  0.00  0.00    +0.000 A 
ATOM     17  C   UNL     1       5.364   4.414  15.875  0.00  0.00    +0.000 A 
ATOM     18  C   UNL     1       4.432   3.876  16.756  0.00  0.00    +0.000 A 
ATOM     19  C   UNL     1       3.647   4.719  17.548  0.00  0.00    +0.000 A 
ENDBRANCH   4  14
TORSDOF 2
ENDMDL
MODEL 5
REMARK VINA RESULT:      -7.3      3.418      7.908
REMARK  Name = 
REMARK  2 active torsions:
REMARK  status: ('A' for Active; 'I' for Inactive)
REMARK    1  A    between atoms: C_5  and  C_6
REMARK    2  A    between atoms: C_9  and  C_10
REMARK                            x       y       z     vdW  Elec       q    Type
REMARK                         _______ _______ _______ _____ _____    ______ ____
ROOT
ATOM      1  C   UNL     1       1.390   8.634  19.836  0.00  0.00    +0.000 A 
ATOM      2  N   UNL     1       1.771   7.453  20.356  0.00  0.00    +0.000 NA
ATOM      3  C   UNL     1       2.544   6.670  19.573  0.00  0.00    +0.000 A 
ATOM      4  C   UNL     1       2.958   6.989  18.290  0.00  0.00    +0.000 A 
ATOM      5  C   UNL     1       2.506   8.229  17.873  0.00  0.00    +0.000 A 
ATOM      6  N   UNL     1       1.738   9.062  18.609  0.00  0.00    +0.000 NA
ENDROOT
BRANCH   1  11
ATOM      7 BR   UNL     1      -2.202  12.316  23.283  0.00  0.00    +0.000 Br
ATOM      8  C   UNL     1      -1.114  11.186  22.228  0.00  0.00    +0.000 A 
ATOM      9  C   UNL     1      -0.960  11.446  20.871  0.00  0.00    +0.000 A 
ATOM     10  C   UNL     1      -0.148  10.610  20.094  0.00  0.00    +0.000 A 
ATOM     11  C   UNL     1       0.523   9.504  20.653  0.00  0.00    +0.000 A 
ATOM     12  C   UNL     1       0.338   9.270  22.030  0.00  0.00    +0.000 A 
ATOM     13  C   UNL     1      -0.470  10.101  22.813  0.00  0.00    +0.000 A 
ENDBRANCH   1  11
BRANCH   4  14
ATOM     14  C   UNL     1       3.791   6.102  17.462  0.00  0.00    +0.000 A 
ATOM     15  C   UNL     1       3.652   4.703  17.519  0.00  0.00    +0.000 A 
ATOM     16  C   UNL     1       4.453   3.858  16.745  0.00  0.00    +0.000 A 
ATOM     17  C   UNL     1       5.404   4.394  15.885  0.00  0.00    +0.000 A 
ATOM     18  C   UNL     1       5.555   5.774  15.798  0.00  0.00    +0.000 A 
ATOM     19  C   UNL     1       4.760   6.618  16.581  0.00  0.00    +0.000 A 
ENDBRANCH   4  14
TORSDOF 2
ENDMDL
MODEL 6
REMARK VINA RESULT:      -7.3      0.380      1.166
REMARK  Name = 
REMARK  2 active torsions:
REMARK  status: ('A' for Active; 'I' for Inactive)
REMARK    1  A    between atoms: C_5  and  C_6
REMARK    2  A    between atoms: C_9  and  C_10
REMARK                            x       y       z     vdW  Elec       q    Type
REMARK                         _______ _______ _______ _____ _____    ______ ____
ROOT
ATOM      1  C   UNL     1       2.450   7.510  18.751  0.00  0.00    +0.000 A 
ATOM      2  N   UNL     1       2.195   7.135  20.018  0.00  0.00    +0.000 NA
ATOM      3  C   UNL     1       1.413   7.961  20.746  0.00  0.00    +0.000 A 
ATOM      4  C   UNL     1       0.871   9.151  20.290  0.00  0.00    +0.000 A 
ATOM      5  C   UNL     1       1.202   9.422  18.973  0.00  0.00    +0.000 A 
ATOM      6  N   UNL     1       1.971   8.634  18.190  0.00  0.00    +0.000 NA
ENDROOT
BRANCH   1  11
ATOM      7 BR   UNL     1       6.072   3.880  15.280  0.00  0.00    +0.000 Br
ATOM      8  C   UNL     1       4.974   4.988  16.348  0.00  0.00    +0.000 A 
ATOM      9  C   UNL     1       5.187   6.362  16.366  0.00  0.00    +0.000 A 
ATOM     10  C   UNL     1       4.367   7.179  17.153  0.00  0.00    +0.000 A 
ATOM     11  C   UNL     1       3.323   6.645  17.934  0.00  0.00    +0.000 A 
ATOM     12  C   UNL     1       3.140   5.248  17.894  0.00  0.00    +0.000 A 
ATOM     13  C   UNL     1       3.955   4.425  17.109  0.00  0.00    +0.000 A 
ENDBRANCH   1  11
BRANCH   4  14
ATOM     14  C   UNL     1       0.032  10.033  21.119  0.00  0.00    +0.000 A 
ATOM     15  C   UNL     1      -0.260   9.716  22.458  0.00  0.00    +0.000 A 
ATOM     16  C   UNL     1      -1.070  10.544  23.242  0.00  0.00    +0.000 A 
ATOM     17  C   UNL     1      -1.595  11.715  22.708  0.00  0.00    +0.000 A 
ATOM     18  C   UNL     1      -1.312  12.059  21.391  0.00  0.00    +0.000 A 
ATOM     19  C   UNL     1      -0.511  11.225  20.604  0.00  0.00    +0.000 A 
ENDBRANCH   4  14
TORSDOF 2
ENDMDL
MODEL 7
REMARK VINA RESULT:      -7.3      0.188      1.552
REMARK  Name = 
REMARK  2 active torsions:
REMARK  status: ('A' for Active; 'I' for Inactive)
REMARK    1  A    between atoms: C_5  and  C_6
REMARK    2  A    between atoms: C_9  and  C_10
REMARK                            x       y       z     vdW  Elec       q    Type
REMARK                         _______ _______ _______ _____ _____    ______ ____
ROOT
ATOM      1  C   UNL     1       2.603   7.442  18.668  0.00  0.00    +0.000 A 
ATOM      2  N   UNL     1       2.150   8.600  18.154  0.00  0.00    +0.000 NA
ATOM      3  C   UNL     1       1.372   9.354  18.961  0.00  0.00    +0.000 A 
ATOM      4  C   UNL     1       1.008   9.021  20.255  0.00  0.00    +0.000 A 
ATOM      5  C   UNL     1       1.541   7.811  20.668  0.00  0.00    +0.000 A 
ATOM      6  N   UNL     1       2.330   7.015  19.914  0.00  0.00    +0.000 NA
ENDROOT
BRANCH   1  11
ATOM      7 BR   UNL     1       6.131   3.822  15.092  0.00  0.00    +0.000 Br
ATOM      8  C   UNL     1       5.046   4.927  16.176  0.00  0.00    +0.000 A 
ATOM      9  C   UNL     1       4.075   4.356  16.992  0.00  0.00    +0.000 A 
ATOM     10  C   UNL     1       3.278   5.178  17.798  0.00  0.00    +0.000 A 
ATOM     11  C   UNL     1       3.433   6.579  17.806  0.00  0.00    +0.000 A 
ATOM     12  C   UNL     1       4.424   7.121  16.963  0.00  0.00    +0.000 A 
ATOM     13  C   UNL     1       5.225   6.306  16.155  0.00  0.00    +0.000 A 
ENDBRANCH   1  11
BRANCH   4  14
ATOM     14  C   UNL     1       0.147   9.865  21.100  0.00  0.00    +0.000 A 
ATOM     15  C   UNL     1      -0.428  11.049  20.605  0.00  0.00    +0.000 A 
ATOM     16  C   UNL     1      -1.233  11.860  21.410  0.00  0.00    +0.000 A 
ATOM     17  C   UNL     1      -1.492  11.498  22.727  0.00  0.00    +0.000 A 
ATOM     18  C   UNL     1      -0.947  10.326  23.240  0.00  0.00    +0.000 A 
ATOM     19  C   UNL     1      -0.134   9.521  22.436  0.00  0.00    +0.000 A 
ENDBRANCH   4  14
TORSDOF 2
ENDMDL
MODEL 8
REMARK VINA RESULT:      -7.3      0.186      1.904
REMARK  Name = 
REMARK  2 active torsions:
REMARK  status: ('A' for Active; 'I' for Inactive)
REMARK    1  A    between atoms: C_5  and  C_6
REMARK    2  A    between atoms: C_9  and  C_10
REMARK                            x       y       z     vdW  Elec       q    Type
REMARK                         _______ _______ _______ _____ _____    ______ ____
ROOT
ATOM      1  C   UNL     1       2.604   7.432  18.676  0.00  0.00    +0.000 A 
ATOM      2  N   UNL     1       2.159   8.594  18.164  0.00  0.00    +0.000 NA
ATOM      3  C   UNL     1       1.382   9.349  18.971  0.00  0.00    +0.000 A 
ATOM      4  C   UNL     1       1.011   9.012  20.262  0.00  0.00    +0.000 A 
ATOM      5  C   UNL     1       1.536   7.799  20.672  0.00  0.00    +0.000 A 
ATOM      6  N   UNL     1       2.324   7.001  19.919  0.00  0.00    +0.000 NA
ENDROOT
BRANCH   1  11
ATOM      7 BR   UNL     1       6.129   3.809  15.098  0.00  0.00    +0.000 Br
ATOM      8  C   UNL     1       5.045   4.916  16.182  0.00  0.00    +0.000 A 
ATOM      9  C   UNL     1       4.077   4.345  17.002  0.00  0.00    +0.000 A 
ATOM     10  C   UNL     1       3.280   5.167  17.808  0.00  0.00    +0.000 A 
ATOM     11  C   UNL     1       3.433   6.568  17.813  0.00  0.00    +0.000 A 
ATOM     12  C   UNL     1       4.422   7.110  16.967  0.00  0.00    +0.000 A 
ATOM     13  C   UNL     1       5.222   6.295  16.159  0.00  0.00    +0.000 A 
ENDBRANCH   1  11
BRANCH   4  14
ATOM     14  C   UNL     1       0.151   9.858  21.107  0.00  0.00    +0.000 A 
ATOM     15  C   UNL     1      -0.094   9.535  22.455  0.00  0.00    +0.000 A 
ATOM     16  C   UNL     1      -0.924  10.327  23.254  0.00  0.00    +0.000 A 
ATOM     17  C   UNL     1      -1.517  11.469  22.727  0.00  0.00    +0.000 A 
ATOM     18  C   UNL     1      -1.283  11.818  21.401  0.00  0.00    +0.000 A 
ATOM     19  C   UNL     1      -0.462  11.019  20.600  0.00  0.00    +0.000 A 
ENDBRANCH   4  14
TORSDOF 2
ENDMDL
MODEL 9
REMARK VINA RESULT:      -7.3      3.410      7.973
REMARK  Name = 
REMARK  2 active torsions:
REMARK  status: ('A' for Active; 'I' for Inactive)
REMARK    1  A    between atoms: C_5  and  C_6
REMARK    2  A    between atoms: C_9  and  C_10
REMARK                            x       y       z     vdW  Elec       q    Type
REMARK                         _______ _______ _______ _____ _____    ______ ____
ROOT
ATOM      1  C   UNL     1       1.395   8.581  19.817  0.00  0.00    +0.000 A 
ATOM      2  N   UNL     1       1.721   8.999  18.580  0.00  0.00    +0.000 NA
ATOM      3  C   UNL     1       2.497   8.169  17.848  0.00  0.00    +0.000 A 
ATOM      4  C   UNL     1       2.980   6.945  18.278  0.00  0.00    +0.000 A 
ATOM      5  C   UNL     1       2.571   6.627  19.562  0.00  0.00    +0.000 A 
ATOM      6  N   UNL     1       1.790   7.407  20.342  0.00  0.00    +0.000 NA
ENDROOT
BRANCH   1  11
ATOM      7 BR   UNL     1      -2.115  12.296  23.312  0.00  0.00    +0.000 Br
ATOM      8  C   UNL     1      -1.034  11.167  22.248  0.00  0.00    +0.000 A 
ATOM      9  C   UNL     1      -0.439  10.045  22.815  0.00  0.00    +0.000 A 
ATOM     10  C   UNL     1       0.355   9.208  22.022  0.00  0.00    +0.000 A 
ATOM     11  C   UNL     1       0.571   9.472  20.654  0.00  0.00    +0.000 A 
ATOM     12  C   UNL     1      -0.045  10.621  20.117  0.00  0.00    +0.000 A 
ATOM     13  C   UNL     1      -0.841  11.462  20.903  0.00  0.00    +0.000 A 
ENDBRANCH   1  11
BRANCH   4  14
ATOM     14  C   UNL     1       3.835   6.074  17.455  0.00  0.00    +0.000 A 
ATOM     15  C   UNL     1       4.785   6.610  16.567  0.00  0.00    +0.000 A 
ATOM     16  C   UNL     1       5.588   5.785  15.773  0.00  0.00    +0.000 A 
ATOM     17  C   UNL     1       5.467   4.403  15.858  0.00  0.00    +0.000 A 
ATOM     18  C   UNL     1       4.544   3.845  16.737  0.00  0.00    +0.000 A 
ATOM     19  C   UNL     1       3.736   4.671  17.523  0.00  0.00    +0.000 A 
ENDBRANCH   4  14
TORSDOF 2
ENDMDL
