MODEL 1
REMARK VINA RESULT:      -6.7      0.000      0.000
REMARK  Name = 
REMARK  6 active torsions:
REMARK  status: ('A' for Active; 'I' for Inactive)
REMARK    1  A    between atoms: C_1  and  C_2
REMARK    2  A    between atoms: C_4  and  C_5
REMARK    3  A    between atoms: C_8  and  C_9
REMARK    4  A    between atoms: C_9  and  N_10
REMARK    5  A    between atoms: C_13  and  C_14
REMARK    6  A    between atoms: C_15  and  C_16
REMARK                            x       y       z     vdW  Elec       q    Type
REMARK                         _______ _______ _______ _____ _____    ______ ____
ROOT
ATOM      1  C   UNL     1      -0.371   9.673  23.262  0.00  0.00    +0.000 C 
ATOM      2  C   UNL     1       0.239   9.442  21.902  0.00  0.00    +0.000 A 
ATOM      3  C   UNL     1      -0.011  10.494  20.866  0.00  0.00    +0.000 A 
ATOM      4  C   UNL     1       0.535  10.288  19.657  0.00  0.00    +0.000 A 
ATOM      5  C   UNL     1       0.362  11.256  18.528  0.00  0.00    +0.000 C 
ATOM      6  N   UNL     1       1.282   9.121  19.465  0.00  0.00    +0.000 N 
ATOM      7  C   UNL     1       1.943   8.664  18.353  0.00  0.00    +0.000 A 
ATOM      8  C   UNL     1       2.490   7.449  18.698  0.00  0.00    +0.000 A 
ATOM      9  N   UNL     1       2.210   7.171  20.019  0.00  0.00    +0.000 NA
ATOM     10  C   UNL     1       1.472   8.177  20.473  0.00  0.00    +0.000 A 
ATOM     11  N   UNL     1       0.936   8.359  21.715  0.00  0.00    +0.000 NA
ENDROOT
BRANCH   8  12
ATOM     12  C   UNL     1       3.332   6.551  17.851  0.00  0.00    +0.000 C 
BRANCH  12  13
ATOM     13  N   UNL     1       2.981   5.142  17.981  0.00  0.00    +0.000 N 
ATOM     14  C   UNL     1       1.764   4.603  17.658  0.00  0.00    +0.000 A 
ATOM     15  N   UNL     1       1.763   3.295  17.768  0.00  0.00    +0.000 NA
ATOM     16  C   UNL     1       3.027   2.962  18.188  0.00  0.00    +0.000 A 
ATOM     17  C   UNL     1       3.393   1.556  18.475  0.00  0.00    +0.000 C 
ATOM     18  C   UNL     1       3.820   4.093  18.285  0.00  0.00    +0.000 A 
ATOM     19  C   UNL     1       5.252   4.234  18.646  0.00  0.00    +0.000 C 
ENDBRANCH  12  13
ENDBRANCH   8  12
TORSDOF 2
ENDMDL
MODEL 2
REMARK VINA RESULT:      -6.7      4.460      5.968
REMARK  Name = 
REMARK  6 active torsions:
REMARK  status: ('A' for Active; 'I' for Inactive)
REMARK    1  A    between atoms: C_1  and  C_2
REMARK    2  A    between atoms: C_4  and  C_5
REMARK    3  A    between atoms: C_8  and  C_9
REMARK    4  A    between atoms: C_9  and  N_10
REMARK    5  A    between atoms: C_13  and  C_14
REMARK    6  A    between atoms: C_15  and  C_16
REMARK                            x       y       z     vdW  Elec       q    Type
REMARK                         _______ _______ _______ _____ _____    ______ ____
ROOT
ATOM      1  C   UNL     1       1.289   2.558  22.002  0.00  0.00    +0.000 C 
ATOM      2  C   UNL     1       2.028   3.047  20.782  0.00  0.00    +0.000 A 
ATOM      3  C   UNL     1       1.193   3.577  19.658  0.00  0.00    +0.000 A 
ATOM      4  C   UNL     1       1.853   4.014  18.574  0.00  0.00    +0.000 A 
ATOM      5  C   UNL     1       1.142   4.565  17.376  0.00  0.00    +0.000 C 
ATOM      6  N   UNL     1       3.249   3.940  18.581  0.00  0.00    +0.000 N 
ATOM      7  C   UNL     1       4.163   4.312  17.627  0.00  0.00    +0.000 A 
ATOM      8  C   UNL     1       5.403   3.994  18.132  0.00  0.00    +0.000 A 
ATOM      9  N   UNL     1       5.269   3.471  19.401  0.00  0.00    +0.000 NA
ATOM     10  C   UNL     1       3.968   3.431  19.662  0.00  0.00    +0.000 A 
ATOM     11  N   UNL     1       3.328   2.982  20.782  0.00  0.00    +0.000 NA
ENDROOT
BRANCH   8  12
ATOM     12  C   UNL     1       6.736   4.223  17.496  0.00  0.00    +0.000 C 
BRANCH  12  13
ATOM     13  N   UNL     1       7.134   5.625  17.484  0.00  0.00    +0.000 N 
ATOM     14  C   UNL     1       6.781   6.534  16.521  0.00  0.00    +0.000 A 
ATOM     15  N   UNL     1       7.183   7.747  16.821  0.00  0.00    +0.000 NA
ATOM     16  C   UNL     1       7.834   7.629  18.024  0.00  0.00    +0.000 A 
ATOM     17  C   UNL     1       8.479   8.799  18.662  0.00  0.00    +0.000 C 
ATOM     18  C   UNL     1       7.778   6.323  18.481  0.00  0.00    +0.000 A 
ATOM     19  C   UNL     1       8.286   5.723  19.738  0.00  0.00    +0.000 C 
ENDBRANCH  12  13
ENDBRANCH   8  12
TORSDOF 2
ENDMDL
MODEL 3
REMARK VINA RESULT:      -6.6      4.259      6.117
REMARK  Name = 
REMARK  6 active torsions:
REMARK  status: ('A' for Active; 'I' for Inactive)
REMARK    1  A    between atoms: C_1  and  C_2
REMARK    2  A    between atoms: C_4  and  C_5
REMARK    3  A    between atoms: C_8  and  C_9
REMARK    4  A    between atoms: C_9  and  N_10
REMARK    5  A    between atoms: C_13  and  C_14
REMARK    6  A    between atoms: C_15  and  C_16
REMARK                            x       y       z     vdW  Elec       q    Type
REMARK                         _______ _______ _______ _____ _____    ______ ____
ROOT
ATOM      1  C   UNL     1       8.390   9.669  17.669  0.00  0.00    +0.000 C 
ATOM      2  C   UNL     1       7.809   8.283  17.800  0.00  0.00    +0.000 A 
ATOM      3  C   UNL     1       8.381   7.414  18.877  0.00  0.00    +0.000 A 
ATOM      4  C   UNL     1       7.861   6.182  18.994  0.00  0.00    +0.000 A 
ATOM      5  C   UNL     1       8.341   5.208  20.025  0.00  0.00    +0.000 C 
ATOM      6  N   UNL     1       6.841   5.814  18.110  0.00  0.00    +0.000 N 
ATOM      7  C   UNL     1       6.138   4.640  18.006  0.00  0.00    +0.000 A 
ATOM      8  C   UNL     1       5.271   4.798  16.949  0.00  0.00    +0.000 A 
ATOM      9  N   UNL     1       5.401   6.069  16.427  0.00  0.00    +0.000 NA
ATOM     10  C   UNL     1       6.356   6.672  17.124  0.00  0.00    +0.000 A 
ATOM     11  N   UNL     1       6.859   7.933  16.982  0.00  0.00    +0.000 NA
ENDROOT
BRANCH   8  12
ATOM     12  C   UNL     1       4.264   3.820  16.437  0.00  0.00    +0.000 C 
BRANCH  12  13
ATOM     13  N   UNL     1       3.396   3.290  17.482  0.00  0.00    +0.000 N 
ATOM     14  C   UNL     1       3.482   2.028  18.009  0.00  0.00    +0.000 A 
ATOM     15  N   UNL     1       2.652   1.858  19.012  0.00  0.00    +0.000 NA
ATOM     16  C   UNL     1       1.988   3.053  19.143  0.00  0.00    +0.000 A 
ATOM     17  C   UNL     1       0.920   3.227  20.153  0.00  0.00    +0.000 C 
ATOM     18  C   UNL     1       2.466   3.978  18.230  0.00  0.00    +0.000 A 
ATOM     19  C   UNL     1       2.102   5.400  18.024  0.00  0.00    +0.000 C 
ENDBRANCH  12  13
ENDBRANCH   8  12
TORSDOF 2
ENDMDL
MODEL 4
REMARK VINA RESULT:      -6.3      2.110      7.177
REMARK  Name = 
REMARK  6 active torsions:
REMARK  status: ('A' for Active; 'I' for Inactive)
REMARK    1  A    between atoms: C_1  and  C_2
REMARK    2  A    between atoms: C_4  and  C_5
REMARK    3  A    between atoms: C_8  and  C_9
REMARK    4  A    between atoms: C_9  and  N_10
REMARK    5  A    between atoms: C_13  and  C_14
REMARK    6  A    between atoms: C_15  and  C_16
REMARK                            x       y       z     vdW  Elec       q    Type
REMARK                         _______ _______ _______ _____ _____    ______ ____
ROOT
ATOM      1  C   UNL     1       6.652   3.988  14.314  0.00  0.00    +0.000 C 
ATOM      2  C   UNL     1       6.224   4.525  15.657  0.00  0.00    +0.000 A 
ATOM      3  C   UNL     1       7.309   4.764  16.661  0.00  0.00    +0.000 A 
ATOM      4  C   UNL     1       6.927   5.244  17.855  0.00  0.00    +0.000 A 
ATOM      5  C   UNL     1       7.906   5.525  18.953  0.00  0.00    +0.000 C 
ATOM      6  N   UNL     1       5.564   5.479  18.062  0.00  0.00    +0.000 N 
ATOM      7  C   UNL     1       4.903   5.961  19.164  0.00  0.00    +0.000 A 
ATOM      8  C   UNL     1       3.564   5.966  18.844  0.00  0.00    +0.000 A 
ATOM      9  N   UNL     1       3.395   5.533  17.545  0.00  0.00    +0.000 NA
ATOM     10  C   UNL     1       4.602   5.230  17.083  0.00  0.00    +0.000 A 
ATOM     11  N   UNL     1       4.957   4.747  15.857  0.00  0.00    +0.000 NA
ENDROOT
BRANCH   8  12
ATOM     12  C   UNL     1       2.423   6.428  19.690  0.00  0.00    +0.000 C 
BRANCH  12  13
ATOM     13  N   UNL     1       2.013   7.798  19.406  0.00  0.00    +0.000 N 
ATOM     14  C   UNL     1       2.101   8.405  18.181  0.00  0.00    +0.000 A 
ATOM     15  N   UNL     1       1.556   9.599  18.186  0.00  0.00    +0.000 NA
ATOM     16  C   UNL     1       1.099   9.787  19.467  0.00  0.00    +0.000 A 
ATOM     17  C   UNL     1       0.462  11.061  19.873  0.00  0.00    +0.000 C 
ATOM     18  C   UNL     1       1.331   8.659  20.236  0.00  0.00    +0.000 A 
ATOM     19  C   UNL     1       0.978   8.369  21.646  0.00  0.00    +0.000 C 
ENDBRANCH  12  13
ENDBRANCH   8  12
TORSDOF 2
ENDMDL
MODEL 5
REMARK VINA RESULT:      -6.3      1.490      1.637
REMARK  Name = 
REMARK  6 active torsions:
REMARK  status: ('A' for Active; 'I' for Inactive)
REMARK    1  A    between atoms: C_1  and  C_2
REMARK    2  A    between atoms: C_4  and  C_5
REMARK    3  A    between atoms: C_8  and  C_9
REMARK    4  A    between atoms: C_9  and  N_10
REMARK    5  A    between atoms: C_13  and  C_14
REMARK    6  A    between atoms: C_15  and  C_16
REMARK                            x       y       z     vdW  Elec       q    Type
REMARK                         _______ _______ _______ _____ _____    ______ ____
ROOT
ATOM      1  C   UNL     1      -1.312  10.873  23.195  0.00  0.00    +0.000 C 
ATOM      2  C   UNL     1      -0.469  10.316  22.074  0.00  0.00    +0.000 A 
ATOM      3  C   UNL     1      -0.360  11.153  20.837  0.00  0.00    +0.000 A 
ATOM      4  C   UNL     1       0.392  10.657  19.841  0.00  0.00    +0.000 A 
ATOM      5  C   UNL     1       0.583  11.386  18.547  0.00  0.00    +0.000 C 
ATOM      6  N   UNL     1       1.004   9.415  20.037  0.00  0.00    +0.000 N 
ATOM      7  C   UNL     1       1.815   8.684  19.206  0.00  0.00    +0.000 A 
ATOM      8  C   UNL     1       2.117   7.522  19.880  0.00  0.00    +0.000 A 
ATOM      9  N   UNL     1       1.536   7.546  21.130  0.00  0.00    +0.000 NA
ATOM     10  C   UNL     1       0.858   8.684  21.215  0.00  0.00    +0.000 A 
ATOM     11  N   UNL     1       0.104   9.161  22.249  0.00  0.00    +0.000 NA
ENDROOT
BRANCH   8  12
ATOM     12  C   UNL     1       2.992   6.401  19.423  0.00  0.00    +0.000 C 
BRANCH  12  13
ATOM     13  N   UNL     1       2.242   5.241  18.954  0.00  0.00    +0.000 N 
ATOM     14  C   UNL     1       1.938   4.979  17.644  0.00  0.00    +0.000 A 
ATOM     15  N   UNL     1       1.355   3.812  17.501  0.00  0.00    +0.000 NA
ATOM     16  C   UNL     1       1.264   3.290  18.768  0.00  0.00    +0.000 A 
ATOM     17  C   UNL     1       0.605   1.987  19.013  0.00  0.00    +0.000 C 
ATOM     18  C   UNL     1       1.852   4.143  19.688  0.00  0.00    +0.000 A 
ATOM     19  C   UNL     1       2.042   3.993  21.150  0.00  0.00    +0.000 C 
ENDBRANCH  12  13
ENDBRANCH   8  12
TORSDOF 2
ENDMDL
MODEL 6
REMARK VINA RESULT:      -6.2      1.183      2.320
REMARK  Name = 
REMARK  6 active torsions:
REMARK  status: ('A' for Active; 'I' for Inactive)
REMARK    1  A    between atoms: C_1  and  C_2
REMARK    2  A    between atoms: C_4  and  C_5
REMARK    3  A    between atoms: C_8  and  C_9
REMARK    4  A    between atoms: C_9  and  N_10
REMARK    5  A    between atoms: C_13  and  C_14
REMARK    6  A    between atoms: C_15  and  C_16
REMARK                            x       y       z     vdW  Elec       q    Type
REMARK                         _______ _______ _______ _____ _____    ______ ____
ROOT
ATOM      1  C   UNL     1      -1.355  12.318  18.949  0.00  0.00    +0.000 C 
ATOM      2  C   UNL     1      -0.440  11.142  19.184  0.00  0.00    +0.000 A 
ATOM      3  C   UNL     1      -0.395  10.592  20.576  0.00  0.00    +0.000 A 
ATOM      4  C   UNL     1       0.419   9.545  20.782  0.00  0.00    +0.000 A 
ATOM      5  C   UNL     1       0.563   8.899  22.126  0.00  0.00    +0.000 C 
ATOM      6  N   UNL     1       1.151   9.059  19.694  0.00  0.00    +0.000 N 
ATOM      7  C   UNL     1       2.041   8.017  19.618  0.00  0.00    +0.000 A 
ATOM      8  C   UNL     1       2.496   7.989  18.319  0.00  0.00    +0.000 A 
ATOM      9  N   UNL     1       1.868   8.973  17.585  0.00  0.00    +0.000 NA
ATOM     10  C   UNL     1       1.067   9.621  18.421  0.00  0.00    +0.000 A 
ATOM     11  N   UNL     1       0.245  10.683  18.176  0.00  0.00    +0.000 NA
ENDROOT
BRANCH   8  12
ATOM     12  C   UNL     1       3.461   7.025  17.708  0.00  0.00    +0.000 C 
BRANCH  12  13
ATOM     13  N   UNL     1       3.269   5.653  18.164  0.00  0.00    +0.000 N 
ATOM     14  C   UNL     1       2.166   4.885  17.898  0.00  0.00    +0.000 A 
ATOM     15  N   UNL     1       2.310   3.655  18.334  0.00  0.00    +0.000 NA
ATOM     16  C   UNL     1       3.553   3.616  18.917  0.00  0.00    +0.000 A 
ATOM     17  C   UNL     1       4.050   2.387  19.575  0.00  0.00    +0.000 C 
ATOM     18  C   UNL     1       4.190   4.838  18.783  0.00  0.00    +0.000 A 
ATOM     19  C   UNL     1       5.547   5.264  19.202  0.00  0.00    +0.000 C 
ENDBRANCH  12  13
ENDBRANCH   8  12
TORSDOF 2
ENDMDL
MODEL 7
REMARK VINA RESULT:      -6.2      4.511      6.006
REMARK  Name = 
REMARK  6 active torsions:
REMARK  status: ('A' for Active; 'I' for Inactive)
REMARK    1  A    between atoms: C_1  and  C_2
REMARK    2  A    between atoms: C_4  and  C_5
REMARK    3  A    between atoms: C_8  and  C_9
REMARK    4  A    between atoms: C_9  and  N_10
REMARK    5  A    between atoms: C_13  and  C_14
REMARK    6  A    between atoms: C_15  and  C_16
REMARK                            x       y       z     vdW  Elec       q    Type
REMARK                         _______ _______ _______ _____ _____    ______ ____
ROOT
ATOM      1  C   UNL     1       8.275   9.472  17.408  0.00  0.00    +0.000 C 
ATOM      2  C   UNL     1       7.680   8.127  17.742  0.00  0.00    +0.000 A 
ATOM      3  C   UNL     1       8.372   7.331  18.805  0.00  0.00    +0.000 A 
ATOM      4  C   UNL     1       7.840   6.136  19.103  0.00  0.00    +0.000 A 
ATOM      5  C   UNL     1       8.433   5.235  20.143  0.00  0.00    +0.000 C 
ATOM      6  N   UNL     1       6.698   5.733  18.404  0.00  0.00    +0.000 N 
ATOM      7  C   UNL     1       5.955   4.584  18.503  0.00  0.00    +0.000 A 
ATOM      8  C   UNL     1       4.954   4.685  17.564  0.00  0.00    +0.000 A 
ATOM      9  N   UNL     1       5.045   5.900  16.917  0.00  0.00    +0.000 NA
ATOM     10  C   UNL     1       6.104   6.522  17.419  0.00  0.00    +0.000 A 
ATOM     11  N   UNL     1       6.617   7.745  17.096  0.00  0.00    +0.000 NA
ENDROOT
BRANCH   8  12
ATOM     12  C   UNL     1       3.859   3.708  17.285  0.00  0.00    +0.000 C 
BRANCH  12  13
ATOM     13  N   UNL     1       2.892   3.603  18.371  0.00  0.00    +0.000 N 
ATOM     14  C   UNL     1       1.611   4.089  18.332  0.00  0.00    +0.000 A 
ATOM     15  N   UNL     1       0.928   3.754  19.403  0.00  0.00    +0.000 NA
ATOM     16  C   UNL     1       1.797   3.028  20.179  0.00  0.00    +0.000 A 
ATOM     17  C   UNL     1       1.391   2.519  21.509  0.00  0.00    +0.000 C 
ATOM     18  C   UNL     1       3.015   2.880  19.537  0.00  0.00    +0.000 A 
ATOM     19  C   UNL     1       4.235   2.145  19.949  0.00  0.00    +0.000 C 
ENDBRANCH  12  13
ENDBRANCH   8  12
TORSDOF 2
ENDMDL
MODEL 8
REMARK VINA RESULT:      -6.1      1.645      2.782
REMARK  Name = 
REMARK  6 active torsions:
REMARK  status: ('A' for Active; 'I' for Inactive)
REMARK    1  A    between atoms: C_1  and  C_2
REMARK    2  A    between atoms: C_4  and  C_5
REMARK    3  A    between atoms: C_8  and  C_9
REMARK    4  A    between atoms: C_9  and  N_10
REMARK    5  A    between atoms: C_13  and  C_14
REMARK    6  A    between atoms: C_15  and  C_16
REMARK                            x       y       z     vdW  Elec       q    Type
REMARK                         _______ _______ _______ _____ _____    ______ ____
ROOT
ATOM      1  C   UNL     1      -1.055  12.488  18.446  0.00  0.00    +0.000 C 
ATOM      2  C   UNL     1      -0.400  11.323  19.146  0.00  0.00    +0.000 A 
ATOM      3  C   UNL     1      -0.704  11.158  20.603  0.00  0.00    +0.000 A 
ATOM      4  C   UNL     1      -0.123  10.119  21.223  0.00  0.00    +0.000 A 
ATOM      5  C   UNL     1      -0.336   9.838  22.679  0.00  0.00    +0.000 C 
ATOM      6  N   UNL     1       0.710   9.286  20.469  0.00  0.00    +0.000 N 
ATOM      7  C   UNL     1       1.418   8.170  20.837  0.00  0.00    +0.000 A 
ATOM      8  C   UNL     1       2.095   7.750  19.714  0.00  0.00    +0.000 A 
ATOM      9  N   UNL     1       1.781   8.569  18.650  0.00  0.00    +0.000 NA
ATOM     10  C   UNL     1       0.954   9.499  19.113  0.00  0.00    +0.000 A 
ATOM     11  N   UNL     1       0.375  10.542  18.450  0.00  0.00    +0.000 NA
ENDROOT
BRANCH   8  12
ATOM     12  C   UNL     1       2.987   6.559  19.575  0.00  0.00    +0.000 C 
BRANCH  12  13
ATOM     13  N   UNL     1       2.276   5.292  19.692  0.00  0.00    +0.000 N 
ATOM     14  C   UNL     1       1.499   4.923  20.758  0.00  0.00    +0.000 A 
ATOM     15  N   UNL     1       0.888   3.780  20.547  0.00  0.00    +0.000 NA
ATOM     16  C   UNL     1       1.287   3.378  19.296  0.00  0.00    +0.000 A 
ATOM     17  C   UNL     1       0.837   2.087  18.728  0.00  0.00    +0.000 C 
ATOM     18  C   UNL     1       2.117   4.327  18.722  0.00  0.00    +0.000 A 
ATOM     19  C   UNL     1       2.751   4.364  17.383  0.00  0.00    +0.000 C 
ENDBRANCH  12  13
ENDBRANCH   8  12
TORSDOF 2
ENDMDL
MODEL 9
REMARK VINA RESULT:      -6.1      1.711      3.233
REMARK  Name = 
REMARK  6 active torsions:
REMARK  status: ('A' for Active; 'I' for Inactive)
REMARK    1  A    between atoms: C_1  and  C_2
REMARK    2  A    between atoms: C_4  and  C_5
REMARK    3  A    between atoms: C_8  and  C_9
REMARK    4  A    between atoms: C_9  and  N_10
REMARK    5  A    between atoms: C_13  and  C_14
REMARK    6  A    between atoms: C_15  and  C_16
REMARK                            x       y       z     vdW  Elec       q    Type
REMARK                         _______ _______ _______ _____ _____    ______ ____
ROOT
ATOM      1  C   UNL     1       1.634  12.745  18.298  0.00  0.00    +0.000 C 
ATOM      2  C   UNL     1       1.635  11.286  18.680  0.00  0.00    +0.000 A 
ATOM      3  C   UNL     1       1.026  10.937  20.002  0.00  0.00    +0.000 A 
ATOM      4  C   UNL     1       1.026   9.637  20.339  0.00  0.00    +0.000 A 
ATOM      5  C   UNL     1       0.453   9.148  21.633  0.00  0.00    +0.000 C 
ATOM      6  N   UNL     1       1.589   8.726  19.439  0.00  0.00    +0.000 N 
ATOM      7  C   UNL     1       1.720   7.363  19.522  0.00  0.00    +0.000 A 
ATOM      8  C   UNL     1       2.374   6.965  18.378  0.00  0.00    +0.000 A 
ATOM      9  N   UNL     1       2.611   8.059  17.574  0.00  0.00    +0.000 NA
ATOM     10  C   UNL     1       2.145   9.119  18.223  0.00  0.00    +0.000 A 
ATOM     11  N   UNL     1       2.157  10.432  17.848  0.00  0.00    +0.000 NA
ENDROOT
BRANCH   8  12
ATOM     12  C   UNL     1       2.736   5.574  17.968  0.00  0.00    +0.000 C 
BRANCH  12  13
ATOM     13  N   UNL     1       4.124   5.233  18.257  0.00  0.00    +0.000 N 
ATOM     14  C   UNL     1       4.562   4.636  19.409  0.00  0.00    +0.000 A 
ATOM     15  N   UNL     1       5.840   4.342  19.353  0.00  0.00    +0.000 NA
ATOM     16  C   UNL     1       6.260   4.771  18.118  0.00  0.00    +0.000 A 
ATOM     17  C   UNL     1       7.678   4.654  17.709  0.00  0.00    +0.000 C 
ATOM     18  C   UNL     1       5.198   5.289  17.397  0.00  0.00    +0.000 A 
ATOM     19  C   UNL     1       5.145   5.823  16.015  0.00  0.00    +0.000 C 
ENDBRANCH  12  13
ENDBRANCH   8  12
TORSDOF 2
ENDMDL
