MODEL 1
REMARK VINA RESULT:      -6.6      0.000      0.000
REMARK  Name = 
REMARK  13 active torsions:
REMARK  status: ('A' for Active; 'I' for Inactive)
REMARK    1  A    between atoms: C_1  and  N_2
REMARK    2  A    between atoms: N_2  and  C_3
REMARK    3  A    between atoms: N_2  and  C_4
REMARK    4  A    between atoms: C_4  and  C_5
REMARK    5  A    between atoms: C_5  and  N_6
REMARK    6  A    between atoms: N_6  and  C_7
REMARK    7  A    between atoms: N_13  and  C_14
REMARK    8  A    between atoms: C_14  and  C_15
REMARK    9  A    between atoms: C_15  and  N_16
REMARK   10  A    between atoms: N_16  and  C_17
REMARK   11  A    between atoms: N_16  and  C_18
REMARK   12  A    between atoms: C_24  and  O_25
REMARK   13  A    between atoms: C_26  and  O_27
REMARK                            x       y       z     vdW  Elec       q    Type
REMARK                         _______ _______ _______ _____ _____    ______ ____
ROOT
ATOM      1  C   UNL     1      -0.357  10.735  18.330  0.00  0.00    +0.000 A 
ATOM      2  C   UNL     1      -1.163  10.054  17.411  0.00  0.00    +0.000 A 
ATOM      3  C   UNL     1      -2.530  10.249  17.352  0.00  0.00    +0.000 A 
ATOM      4  C   UNL     1      -3.141  11.146  18.225  0.00  0.00    +0.000 A 
ATOM      5  C   UNL     1      -4.588  11.301  18.143  0.00  0.00    +0.000 A 
ATOM      6  O   UNL     1      -5.201  10.637  17.310  0.00  0.00    +0.000 OA
ATOM      7  N   UNL     1      -5.183  12.141  19.060  0.00  0.00    +0.000 N 
ATOM      8  C   UNL     1      -4.500  12.835  20.053  0.00  0.00    +0.000 A 
ATOM      9  O   UNL     1      -5.119  13.408  20.943  0.00  0.00    +0.000 OA
ATOM     10  N   UNL     1      -3.086  12.757  20.026  0.00  0.00    +0.000 N 
ATOM     11  C   UNL     1      -2.295  13.493  20.970  0.00  0.00    +0.000 A 
ATOM     12  C   UNL     1      -2.745  14.692  21.535  0.00  0.00    +0.000 A 
ATOM     13  C   UNL     1      -1.969  15.315  22.499  0.00  0.00    +0.000 A 
ATOM     14  C   UNL     1      -0.899  14.668  23.090  0.00  0.00    +0.000 A 
ATOM     15  C   UNL     1      -0.363  13.567  22.464  0.00  0.00    +0.000 A 
ATOM     16  C   UNL     1      -1.012  13.067  21.324  0.00  0.00    +0.000 A 
ATOM     17  C   UNL     1      -0.264  12.230  20.371  0.00  0.00    +0.000 A 
ATOM     18  O   UNL     1       0.958  12.174  20.470  0.00  0.00    +0.000 OA
ATOM     19  C   UNL     1      -1.011  11.598  19.258  0.00  0.00    +0.000 A 
ATOM     20  C   UNL     1      -2.401  11.842  19.187  0.00  0.00    +0.000 A 
ENDROOT
BRANCH   1  21
ATOM     21  N   UNL     1       1.019  10.458  18.392  0.00  0.00    +0.000 N 
ATOM     22  H   UNL     1       1.572  10.961  17.690  0.00  0.00    +0.000 HD
BRANCH  21  23
ATOM     23  C   UNL     1       1.460   9.117  18.775  0.00  0.00    +0.000 C 
BRANCH  23  24
ATOM     24  C   UNL     1       2.506   8.501  17.835  0.00  0.00    +0.000 C 
BRANCH  24  26
ATOM     25  C   UNL     1       4.010   6.634  17.559  0.00  0.00    +0.000 C 
ATOM     26  N   UNL     1       2.703   7.049  18.071  0.00  0.00    +0.000 NA
ATOM     27  C   UNL     1       2.597   6.688  19.489  0.00  0.00    +0.000 C 
ENDBRANCH  24  26
ENDBRANCH  23  24
ENDBRANCH  21  23
ENDBRANCH   1  21
BRANCH  13  28
ATOM     28  O   UNL     1      -2.104  16.656  22.723  0.00  0.00    +0.000 OA
ATOM     29  H   UNL     1      -2.454  16.992  21.868  0.00  0.00    +0.000 HD
ENDBRANCH  13  28
BRANCH  14  30
ATOM     30  O   UNL     1      -0.337  15.191  24.213  0.00  0.00    +0.000 OA
ATOM     31  H   UNL     1      -0.486  16.157  24.161  0.00  0.00    +0.000 HD
ENDBRANCH  14  30
BRANCH   7  32
ATOM     32  C   UNL     1      -6.646  12.157  19.102  0.00  0.00    +0.000 C 
BRANCH  32  33
ATOM     33  C   UNL     1      -7.320  10.841  19.524  0.00  0.00    +0.000 C 
BRANCH  33  34
ATOM     34  N   UNL     1      -7.258  10.473  20.953  0.00  0.00    +0.000 NA
ATOM     35  C   UNL     1      -7.913  11.461  21.815  0.00  0.00    +0.000 C 
ATOM     36  C   UNL     1      -7.914   9.172  21.134  0.00  0.00    +0.000 C 
ENDBRANCH  33  34
ENDBRANCH  32  33
ENDBRANCH   7  32
TORSDOF 9
ENDMDL
MODEL 2
REMARK VINA RESULT:      -6.5      1.011      1.231
REMARK  Name = 
REMARK  13 active torsions:
REMARK  status: ('A' for Active; 'I' for Inactive)
REMARK    1  A    between atoms: C_1  and  N_2
REMARK    2  A    between atoms: N_2  and  C_3
REMARK    3  A    between atoms: N_2  and  C_4
REMARK    4  A    between atoms: C_4  and  C_5
REMARK    5  A    between atoms: C_5  and  N_6
REMARK    6  A    between atoms: N_6  and  C_7
REMARK    7  A    between atoms: N_13  and  C_14
REMARK    8  A    between atoms: C_14  and  C_15
REMARK    9  A    between atoms: C_15  and  N_16
REMARK   10  A    between atoms: N_16  and  C_17
REMARK   11  A    between atoms: N_16  and  C_18
REMARK   12  A    between atoms: C_24  and  O_25
REMARK   13  A    between atoms: C_26  and  O_27
REMARK                            x       y       z     vdW  Elec       q    Type
REMARK                         _______ _______ _______ _____ _____    ______ ____
ROOT
ATOM      1  C   UNL     1      -0.281  10.607  19.172  0.00  0.00    +0.000 A 
ATOM      2  C   UNL     1      -0.846  10.022  18.032  0.00  0.00    +0.000 A 
ATOM      3  C   UNL     1      -2.118  10.342  17.600  0.00  0.00    +0.000 A 
ATOM      4  C   UNL     1      -2.877  11.273  18.306  0.00  0.00    +0.000 A 
ATOM      5  C   UNL     1      -4.222  11.562  17.827  0.00  0.00    +0.000 A 
ATOM      6  O   UNL     1      -4.626  10.975  16.827  0.00  0.00    +0.000 OA
ATOM      7  N   UNL     1      -4.983  12.433  18.577  0.00  0.00    +0.000 N 
ATOM      8  C   UNL     1      -4.556  13.041  19.753  0.00  0.00    +0.000 A 
ATOM      9  O   UNL     1      -5.354  13.650  20.459  0.00  0.00    +0.000 OA
ATOM     10  N   UNL     1      -3.204  12.835  20.122  0.00  0.00    +0.000 N 
ATOM     11  C   UNL     1      -2.656  13.475  21.284  0.00  0.00    +0.000 A 
ATOM     12  C   UNL     1      -3.149  14.698  21.753  0.00  0.00    +0.000 A 
ATOM     13  C   UNL     1      -2.631  15.227  22.924  0.00  0.00    +0.000 A 
ATOM     14  C   UNL     1      -1.830  14.473  23.762  0.00  0.00    +0.000 A 
ATOM     15  C   UNL     1      -1.230  13.340  23.263  0.00  0.00    +0.000 A 
ATOM     16  C   UNL     1      -1.567  12.926  21.964  0.00  0.00    +0.000 A 
ATOM     17  C   UNL     1      -0.650  12.044  21.222  0.00  0.00    +0.000 A 
ATOM     18  O   UNL     1       0.484  11.874  21.659  0.00  0.00    +0.000 OA
ATOM     19  C   UNL     1      -1.099  11.507  19.916  0.00  0.00    +0.000 A 
ATOM     20  C   UNL     1      -2.386  11.878  19.469  0.00  0.00    +0.000 A 
ENDROOT
BRANCH   1  21
ATOM     21  N   UNL     1       0.993  10.204  19.605  0.00  0.00    +0.000 N 
ATOM     22  H   UNL     1       1.658  10.978  19.706  0.00  0.00    +0.000 HD
BRANCH  21  23
ATOM     23  C   UNL     1       1.516   8.907  19.174  0.00  0.00    +0.000 C 
BRANCH  23  24
ATOM     24  C   UNL     1       1.760   7.910  20.317  0.00  0.00    +0.000 C 
BRANCH  24  26
ATOM     25  C   UNL     1       1.927   5.510  20.504  0.00  0.00    +0.000 C 
ATOM     26  N   UNL     1       2.498   6.701  19.874  0.00  0.00    +0.000 NA
ATOM     27  C   UNL     1       2.486   6.535  18.417  0.00  0.00    +0.000 C 
ENDBRANCH  24  26
ENDBRANCH  23  24
ENDBRANCH  21  23
ENDBRANCH   1  21
BRANCH  13  28
ATOM     28  O   UNL     1      -2.713  16.570  23.163  0.00  0.00    +0.000 OA
ATOM     29  H   UNL     1      -2.596  16.964  22.270  0.00  0.00    +0.000 HD
ENDBRANCH  13  28
BRANCH  14  30
ATOM     30  O   UNL     1      -1.569  14.918  25.021  0.00  0.00    +0.000 OA
ATOM     31  H   UNL     1      -1.153  15.798  24.912  0.00  0.00    +0.000 HD
ENDBRANCH  14  30
BRANCH   7  32
ATOM     32  C   UNL     1      -6.391  12.583  18.207  0.00  0.00    +0.000 C 
BRANCH  32  33
ATOM     33  C   UNL     1      -7.333  11.466  18.686  0.00  0.00    +0.000 C 
BRANCH  33  34
ATOM     34  N   UNL     1      -6.911  10.678  19.862  0.00  0.00    +0.000 NA
ATOM     35  C   UNL     1      -7.817  10.843  21.002  0.00  0.00    +0.000 C 
ATOM     36  C   UNL     1      -6.867   9.259  19.489  0.00  0.00    +0.000 C 
ENDBRANCH  33  34
ENDBRANCH  32  33
ENDBRANCH   7  32
TORSDOF 9
ENDMDL
MODEL 3
REMARK VINA RESULT:      -6.5      1.195      2.006
REMARK  Name = 
REMARK  13 active torsions:
REMARK  status: ('A' for Active; 'I' for Inactive)
REMARK    1  A    between atoms: C_1  and  N_2
REMARK    2  A    between atoms: N_2  and  C_3
REMARK    3  A    between atoms: N_2  and  C_4
REMARK    4  A    between atoms: C_4  and  C_5
REMARK    5  A    between atoms: C_5  and  N_6
REMARK    6  A    between atoms: N_6  and  C_7
REMARK    7  A    between atoms: N_13  and  C_14
REMARK    8  A    between atoms: C_14  and  C_15
REMARK    9  A    between atoms: C_15  and  N_16
REMARK   10  A    between atoms: N_16  and  C_17
REMARK   11  A    between atoms: N_16  and  C_18
REMARK   12  A    between atoms: C_24  and  O_25
REMARK   13  A    between atoms: C_26  and  O_27
REMARK                            x       y       z     vdW  Elec       q    Type
REMARK                         _______ _______ _______ _____ _____    ______ ____
ROOT
ATOM      1  C   UNL     1      -0.749  10.978  18.390  0.00  0.00    +0.000 A 
ATOM      2  C   UNL     1      -1.554  10.373  17.417  0.00  0.00    +0.000 A 
ATOM      3  C   UNL     1      -2.920  10.575  17.370  0.00  0.00    +0.000 A 
ATOM      4  C   UNL     1      -3.533  11.402  18.309  0.00  0.00    +0.000 A 
ATOM      5  C   UNL     1      -4.978  11.567  18.235  0.00  0.00    +0.000 A 
ATOM      6  O   UNL     1      -5.591  10.972  17.351  0.00  0.00    +0.000 OA
ATOM      7  N   UNL     1      -5.575  12.332  19.213  0.00  0.00    +0.000 N 
ATOM      8  C   UNL     1      -4.894  12.944  20.260  0.00  0.00    +0.000 A 
ATOM      9  O   UNL     1      -5.515  13.447  21.192  0.00  0.00    +0.000 OA
ATOM     10  N   UNL     1      -3.480  12.865  20.232  0.00  0.00    +0.000 N 
ATOM     11  C   UNL     1      -2.690  13.523  21.234  0.00  0.00    +0.000 A 
ATOM     12  C   UNL     1      -3.141  14.674  21.890  0.00  0.00    +0.000 A 
ATOM     13  C   UNL     1      -2.366  15.217  22.903  0.00  0.00    +0.000 A 
ATOM     14  C   UNL     1      -1.299  14.524  23.444  0.00  0.00    +0.000 A 
ATOM     15  C   UNL     1      -0.763  13.474  22.735  0.00  0.00    +0.000 A 
ATOM     16  C   UNL     1      -1.410  13.068  21.556  0.00  0.00    +0.000 A 
ATOM     17  C   UNL     1      -0.660  12.307  20.543  0.00  0.00    +0.000 A 
ATOM     18  O   UNL     1       0.561  12.240  20.641  0.00  0.00    +0.000 OA
ATOM     19  C   UNL     1      -1.405  11.766  19.381  0.00  0.00    +0.000 A 
ATOM     20  C   UNL     1      -2.794  12.018  19.325  0.00  0.00    +0.000 A 
ENDROOT
BRANCH   1  21
ATOM     21  N   UNL     1       0.626  10.694  18.434  0.00  0.00    +0.000 N 
ATOM     22  H   UNL     1       1.178  11.230  17.756  0.00  0.00    +0.000 HD
BRANCH  21  23
ATOM     23  C   UNL     1       1.063   9.334  18.749  0.00  0.00    +0.000 C 
BRANCH  23  24
ATOM     24  C   UNL     1       2.217   8.821  17.874  0.00  0.00    +0.000 C 
BRANCH  24  26
ATOM     25  C   UNL     1       3.852   7.067  17.604  0.00  0.00    +0.000 C 
ATOM     26  N   UNL     1       2.512   7.384  18.102  0.00  0.00    +0.000 NA
ATOM     27  C   UNL     1       2.415   7.006  19.516  0.00  0.00    +0.000 C 
ENDBRANCH  24  26
ENDBRANCH  23  24
ENDBRANCH  21  23
ENDBRANCH   1  21
BRANCH  13  28
ATOM     28  O   UNL     1      -2.499  16.537  23.232  0.00  0.00    +0.000 OA
ATOM     29  H   UNL     1      -2.106  17.001  22.460  0.00  0.00    +0.000 HD
ENDBRANCH  13  28
BRANCH  14  30
ATOM     30  O   UNL     1      -0.740  14.955  24.607  0.00  0.00    +0.000 OA
ATOM     31  H   UNL     1       0.067  15.447  24.348  0.00  0.00    +0.000 HD
ENDBRANCH  14  30
BRANCH   7  32
ATOM     32  C   UNL     1      -7.038  12.348  19.253  0.00  0.00    +0.000 C 
BRANCH  32  33
ATOM     33  C   UNL     1      -7.717  13.509  18.508  0.00  0.00    +0.000 C 
BRANCH  33  34
ATOM     34  N   UNL     1      -6.846  14.438  17.759  0.00  0.00    +0.000 NA
ATOM     35  C   UNL     1      -7.283  14.621  16.372  0.00  0.00    +0.000 C 
ATOM     36  C   UNL     1      -6.851  15.740  18.436  0.00  0.00    +0.000 C 
ENDBRANCH  33  34
ENDBRANCH  32  33
ENDBRANCH   7  32
TORSDOF 9
ENDMDL
MODEL 4
REMARK VINA RESULT:      -6.3      5.013     11.123
REMARK  Name = 
REMARK  13 active torsions:
REMARK  status: ('A' for Active; 'I' for Inactive)
REMARK    1  A    between atoms: C_1  and  N_2
REMARK    2  A    between atoms: N_2  and  C_3
REMARK    3  A    between atoms: N_2  and  C_4
REMARK    4  A    between atoms: C_4  and  C_5
REMARK    5  A    between atoms: C_5  and  N_6
REMARK    6  A    between atoms: N_6  and  C_7
REMARK    7  A    between atoms: N_13  and  C_14
REMARK    8  A    between atoms: C_14  and  C_15
REMARK    9  A    between atoms: C_15  and  N_16
REMARK   10  A    between atoms: N_16  and  C_17
REMARK   11  A    between atoms: N_16  and  C_18
REMARK   12  A    between atoms: C_24  and  O_25
REMARK   13  A    between atoms: C_26  and  O_27
REMARK                            x       y       z     vdW  Elec       q    Type
REMARK                         _______ _______ _______ _____ _____    ______ ____
ROOT
ATOM      1  C   UNL     1       2.014   8.412  19.071  0.00  0.00    +0.000 A 
ATOM      2  C   UNL     1       2.668   9.162  18.086  0.00  0.00    +0.000 A 
ATOM      3  C   UNL     1       3.538   8.582  17.183  0.00  0.00    +0.000 A 
ATOM      4  C   UNL     1       3.784   7.212  17.238  0.00  0.00    +0.000 A 
ATOM      5  C   UNL     1       4.726   6.649  16.280  0.00  0.00    +0.000 A 
ATOM      6  O   UNL     1       5.260   7.403  15.470  0.00  0.00    +0.000 OA
ATOM      7  N   UNL     1       5.010   5.305  16.393  0.00  0.00    +0.000 N 
ATOM      8  C   UNL     1       4.466   4.463  17.358  0.00  0.00    +0.000 A 
ATOM      9  O   UNL     1       4.911   3.330  17.511  0.00  0.00    +0.000 OA
ATOM     10  N   UNL     1       3.464   5.015  18.192  0.00  0.00    +0.000 N 
ATOM     11  C   UNL     1       2.798   4.204  19.172  0.00  0.00    +0.000 A 
ATOM     12  C   UNL     1       2.642   2.824  19.004  0.00  0.00    +0.000 A 
ATOM     13  C   UNL     1       2.060   2.084  20.021  0.00  0.00    +0.000 A 
ATOM     14  C   UNL     1       1.860   2.623  21.279  0.00  0.00    +0.000 A 
ATOM     15  C   UNL     1       1.876   3.990  21.424  0.00  0.00    +0.000 A 
ATOM     16  C   UNL     1       2.229   4.774  20.314  0.00  0.00    +0.000 A 
ATOM     17  C   UNL     1       1.820   6.187  20.262  0.00  0.00    +0.000 A 
ATOM     18  O   UNL     1       0.991   6.589  21.073  0.00  0.00    +0.000 OA
ATOM     19  C   UNL     1       2.331   7.024  19.152  0.00  0.00    +0.000 A 
ATOM     20  C   UNL     1       3.186   6.406  18.212  0.00  0.00    +0.000 A 
ENDROOT
BRANCH   1  21
ATOM     21  N   UNL     1       1.186   9.057  20.005  0.00  0.00    +0.000 N 
ATOM     22  H   UNL     1       0.571   8.418  20.519  0.00  0.00    +0.000 HD
BRANCH  21  23
ATOM     23  C   UNL     1       0.682  10.397  19.705  0.00  0.00    +0.000 C 
BRANCH  23  24
ATOM     24  C   UNL     1      -0.491  10.845  20.588  0.00  0.00    +0.000 C 
BRANCH  24  26
ATOM     25  C   UNL     1      -0.593  12.521  22.322  0.00  0.00    +0.000 C 
ATOM     26  N   UNL     1      -0.068  11.202  21.966  0.00  0.00    +0.000 NA
ATOM     27  C   UNL     1      -0.504  10.218  22.962  0.00  0.00    +0.000 C 
ENDBRANCH  24  26
ENDBRANCH  23  24
ENDBRANCH  21  23
ENDBRANCH   1  21
BRANCH  13  28
ATOM     28  O   UNL     1       1.467   0.885  19.741  0.00  0.00    +0.000 OA
ATOM     29  H   UNL     1       2.028   0.239  20.224  0.00  0.00    +0.000 HD
ENDBRANCH  13  28
BRANCH  14  30
ATOM     30  O   UNL     1       1.550   1.802  22.319  0.00  0.00    +0.000 OA
ATOM     31  H   UNL     1       0.674   1.420  22.105  0.00  0.00    +0.000 HD
ENDBRANCH  14  30
BRANCH   7  32
ATOM     32  C   UNL     1       6.090   4.775  15.560  0.00  0.00    +0.000 C 
BRANCH  32  33
ATOM     33  C   UNL     1       5.655   4.091  14.253  0.00  0.00    +0.000 C 
BRANCH  33  34
ATOM     34  N   UNL     1       6.709   3.783  13.264  0.00  0.00    +0.000 NA
ATOM     35  C   UNL     1       6.162   3.308  11.990  0.00  0.00    +0.000 C 
ATOM     36  C   UNL     1       7.498   4.997  13.022  0.00  0.00    +0.000 C 
ENDBRANCH  33  34
ENDBRANCH  32  33
ENDBRANCH   7  32
TORSDOF 9
ENDMDL
MODEL 5
REMARK VINA RESULT:      -6.3      3.207      4.531
REMARK  Name = 
REMARK  13 active torsions:
REMARK  status: ('A' for Active; 'I' for Inactive)
REMARK    1  A    between atoms: C_1  and  N_2
REMARK    2  A    between atoms: N_2  and  C_3
REMARK    3  A    between atoms: N_2  and  C_4
REMARK    4  A    between atoms: C_4  and  C_5
REMARK    5  A    between atoms: C_5  and  N_6
REMARK    6  A    between atoms: N_6  and  C_7
REMARK    7  A    between atoms: N_13  and  C_14
REMARK    8  A    between atoms: C_14  and  C_15
REMARK    9  A    between atoms: C_15  and  N_16
REMARK   10  A    between atoms: N_16  and  C_17
REMARK   11  A    between atoms: N_16  and  C_18
REMARK   12  A    between atoms: C_24  and  O_25
REMARK   13  A    between atoms: C_26  and  O_27
REMARK                            x       y       z     vdW  Elec       q    Type
REMARK                         _______ _______ _______ _____ _____    ______ ____
ROOT
ATOM      1  C   UNL     1       1.333  10.252  19.192  0.00  0.00    +0.000 A 
ATOM      2  C   UNL     1       0.636   9.436  20.091  0.00  0.00    +0.000 A 
ATOM      3  C   UNL     1      -0.141   9.963  21.106  0.00  0.00    +0.000 A 
ATOM      4  C   UNL     1      -0.246  11.344  21.253  0.00  0.00    +0.000 A 
ATOM      5  C   UNL     1      -1.057  11.854  22.351  0.00  0.00    +0.000 A 
ATOM      6  O   UNL     1      -1.610  11.047  23.095  0.00  0.00    +0.000 OA
ATOM      7  N   UNL     1      -1.093  13.221  22.524  0.00  0.00    +0.000 N 
ATOM      8  C   UNL     1      -0.406  14.134  21.730  0.00  0.00    +0.000 A 
ATOM      9  O   UNL     1      -0.338  15.313  22.063  0.00  0.00    +0.000 OA
ATOM     10  N   UNL     1       0.271  13.613  20.601  0.00  0.00    +0.000 N 
ATOM     11  C   UNL     1       0.952  14.487  19.688  0.00  0.00    +0.000 A 
ATOM     12  C   UNL     1       0.545  15.812  19.493  0.00  0.00    +0.000 A 
ATOM     13  C   UNL     1       1.290  16.628  18.658  0.00  0.00    +0.000 A 
ATOM     14  C   UNL     1       2.544  16.251  18.213  0.00  0.00    +0.000 A 
ATOM     15  C   UNL     1       2.897  14.923  18.276  0.00  0.00    +0.000 A 
ATOM     16  C   UNL     1       2.020  14.030  18.913  0.00  0.00    +0.000 A 
ATOM     17  C   UNL     1       2.100  12.592  18.608  0.00  0.00    +0.000 A 
ATOM     18  O   UNL     1       2.769  12.231  17.644  0.00  0.00    +0.000 OA
ATOM     19  C   UNL     1       1.265  11.660  19.402  0.00  0.00    +0.000 A 
ATOM     20  C   UNL     1       0.444  12.219  20.407  0.00  0.00    +0.000 A 
ENDROOT
BRANCH   1  21
ATOM     21  N   UNL     1       2.158   9.668  18.216  0.00  0.00    +0.000 N 
ATOM     22  H   UNL     1       2.410  10.308  17.455  0.00  0.00    +0.000 HD
BRANCH  21  23
ATOM     23  C   UNL     1       1.985   8.253  17.889  0.00  0.00    +0.000 C 
BRANCH  23  24
ATOM     24  C   UNL     1       3.288   7.441  17.881  0.00  0.00    +0.000 C 
BRANCH  24  26
ATOM     25  C   UNL     1       2.245   5.288  18.199  0.00  0.00    +0.000 C 
ATOM     26  N   UNL     1       3.218   6.236  18.746  0.00  0.00    +0.000 NA
ATOM     27  C   UNL     1       4.517   5.572  18.893  0.00  0.00    +0.000 C 
ENDBRANCH  24  26
ENDBRANCH  23  24
ENDBRANCH  21  23
ENDBRANCH   1  21
BRANCH  13  28
ATOM     28  O   UNL     1       0.710  17.719  18.074  0.00  0.00    +0.000 OA
ATOM     29  H   UNL     1       0.729  17.498  17.116  0.00  0.00    +0.000 HD
ENDBRANCH  13  28
BRANCH  14  30
ATOM     30  O   UNL     1       3.356  17.175  17.633  0.00  0.00    +0.000 OA
ATOM     31  H   UNL     1       3.806  16.710  16.897  0.00  0.00    +0.000 HD
ENDBRANCH  14  30
BRANCH   7  32
ATOM     32  C   UNL     1      -1.750  13.727  23.729  0.00  0.00    +0.000 C 
BRANCH  32  33
ATOM     33  C   UNL     1      -3.091  14.446  23.512  0.00  0.00    +0.000 C 
BRANCH  33  34
ATOM     34  N   UNL     1      -4.322  13.634  23.613  0.00  0.00    +0.000 NA
ATOM     35  C   UNL     1      -4.637  12.934  22.365  0.00  0.00    +0.000 C 
ATOM     36  C   UNL     1      -4.148  12.646  24.684  0.00  0.00    +0.000 C 
ENDBRANCH  33  34
ENDBRANCH  32  33
ENDBRANCH   7  32
TORSDOF 9
ENDMDL
MODEL 6
REMARK VINA RESULT:      -6.2      3.340      4.847
REMARK  Name = 
REMARK  13 active torsions:
REMARK  status: ('A' for Active; 'I' for Inactive)
REMARK    1  A    between atoms: C_1  and  N_2
REMARK    2  A    between atoms: N_2  and  C_3
REMARK    3  A    between atoms: N_2  and  C_4
REMARK    4  A    between atoms: C_4  and  C_5
REMARK    5  A    between atoms: C_5  and  N_6
REMARK    6  A    between atoms: N_6  and  C_7
REMARK    7  A    between atoms: N_13  and  C_14
REMARK    8  A    between atoms: C_14  and  C_15
REMARK    9  A    between atoms: C_15  and  N_16
REMARK   10  A    between atoms: N_16  and  C_17
REMARK   11  A    between atoms: N_16  and  C_18
REMARK   12  A    between atoms: C_24  and  O_25
REMARK   13  A    between atoms: C_26  and  O_27
REMARK                            x       y       z     vdW  Elec       q    Type
REMARK                         _______ _______ _______ _____ _____    ______ ____
ROOT
ATOM      1  C   UNL     1       1.064  10.717  19.041  0.00  0.00    +0.000 A 
ATOM      2  C   UNL     1       0.183   9.956  19.818  0.00  0.00    +0.000 A 
ATOM      3  C   UNL     1      -0.500  10.497  20.891  0.00  0.00    +0.000 A 
ATOM      4  C   UNL     1      -0.318  11.837  21.224  0.00  0.00    +0.000 A 
ATOM      5  C   UNL     1      -1.040  12.358  22.378  0.00  0.00    +0.000 A 
ATOM      6  O   UNL     1      -1.774  11.596  23.002  0.00  0.00    +0.000 OA
ATOM      7  N   UNL     1      -0.795  13.667  22.734  0.00  0.00    +0.000 N 
ATOM      8  C   UNL     1       0.094  14.510  22.075  0.00  0.00    +0.000 A 
ATOM      9  O   UNL     1       0.396  15.593  22.566  0.00  0.00    +0.000 OA
ATOM     10  N   UNL     1       0.684  14.011  20.889  0.00  0.00    +0.000 N 
ATOM     11  C   UNL     1       1.562  14.834  20.106  0.00  0.00    +0.000 A 
ATOM     12  C   UNL     1       1.448  16.229  20.092  0.00  0.00    +0.000 A 
ATOM     13  C   UNL     1       2.375  16.972  19.378  0.00  0.00    +0.000 A 
ATOM     14  C   UNL     1       3.536  16.399  18.892  0.00  0.00    +0.000 A 
ATOM     15  C   UNL     1       3.601  15.030  18.775  0.00  0.00    +0.000 A 
ATOM     16  C   UNL     1       2.536  14.267  19.281  0.00  0.00    +0.000 A 
ATOM     17  C   UNL     1       2.323  12.898  18.783  0.00  0.00    +0.000 A 
ATOM     18  O   UNL     1       2.933  12.534  17.782  0.00  0.00    +0.000 OA
ATOM     19  C   UNL     1       1.286  12.068  19.440  0.00  0.00    +0.000 A 
ATOM     20  C   UNL     1       0.567  12.650  20.508  0.00  0.00    +0.000 A 
ENDROOT
BRANCH   1  21
ATOM     21  N   UNL     1       1.780  10.107  17.997  0.00  0.00    +0.000 N 
ATOM     22  H   UNL     1       1.857  10.687  17.156  0.00  0.00    +0.000 HD
BRANCH  21  23
ATOM     23  C   UNL     1       1.686   8.658  17.820  0.00  0.00    +0.000 C 
BRANCH  23  24
ATOM     24  C   UNL     1       3.039   7.932  17.803  0.00  0.00    +0.000 C 
BRANCH  24  26
ATOM     25  C   UNL     1       4.203   5.824  17.966  0.00  0.00    +0.000 C 
ATOM     26  N   UNL     1       2.929   6.506  18.200  0.00  0.00    +0.000 NA
ATOM     27  C   UNL     1       2.538   6.340  19.604  0.00  0.00    +0.000 C 
ENDBRANCH  24  26
ENDBRANCH  23  24
ENDBRANCH  21  23
ENDBRANCH   1  21
BRANCH  13  28
ATOM     28  O   UNL     1       2.056  18.228  18.945  0.00  0.00    +0.000 OA
ATOM     29  H   UNL     1       1.259  18.078  18.390  0.00  0.00    +0.000 HD
ENDBRANCH  13  28
BRANCH  14  30
ATOM     30  O   UNL     1       4.542  17.199  18.446  0.00  0.00    +0.000 OA
ATOM     31  H   UNL     1       4.520  17.997  19.013  0.00  0.00    +0.000 HD
ENDBRANCH  14  30
BRANCH   7  32
ATOM     32  C   UNL     1      -1.371  14.137  23.995  0.00  0.00    +0.000 C 
BRANCH  32  33
ATOM     33  C   UNL     1      -2.732  14.842  23.889  0.00  0.00    +0.000 C 
BRANCH  33  34
ATOM     34  N   UNL     1      -3.381  14.874  22.562  0.00  0.00    +0.000 NA
ATOM     35  C   UNL     1      -4.752  14.357  22.594  0.00  0.00    +0.000 C 
ATOM     36  C   UNL     1      -3.404  16.260  22.081  0.00  0.00    +0.000 C 
ENDBRANCH  33  34
ENDBRANCH  32  33
ENDBRANCH   7  32
TORSDOF 9
ENDMDL
MODEL 7
REMARK VINA RESULT:      -6.2      2.002      5.639
REMARK  Name = 
REMARK  13 active torsions:
REMARK  status: ('A' for Active; 'I' for Inactive)
REMARK    1  A    between atoms: C_1  and  N_2
REMARK    2  A    between atoms: N_2  and  C_3
REMARK    3  A    between atoms: N_2  and  C_4
REMARK    4  A    between atoms: C_4  and  C_5
REMARK    5  A    between atoms: C_5  and  N_6
REMARK    6  A    between atoms: N_6  and  C_7
REMARK    7  A    between atoms: N_13  and  C_14
REMARK    8  A    between atoms: C_14  and  C_15
REMARK    9  A    between atoms: C_15  and  N_16
REMARK   10  A    between atoms: N_16  and  C_17
REMARK   11  A    between atoms: N_16  and  C_18
REMARK   12  A    between atoms: C_24  and  O_25
REMARK   13  A    between atoms: C_26  and  O_27
REMARK                            x       y       z     vdW  Elec       q    Type
REMARK                         _______ _______ _______ _____ _____    ______ ____
ROOT
ATOM      1  C   UNL     1       0.420  10.875  18.872  0.00  0.00    +0.000 A 
ATOM      2  C   UNL     1       1.504  11.409  19.580  0.00  0.00    +0.000 A 
ATOM      3  C   UNL     1       1.340  12.399  20.530  0.00  0.00    +0.000 A 
ATOM      4  C   UNL     1       0.067  12.893  20.805  0.00  0.00    +0.000 A 
ATOM      5  C   UNL     1      -0.054  13.953  21.797  0.00  0.00    +0.000 A 
ATOM      6  O   UNL     1       0.967  14.363  22.344  0.00  0.00    +0.000 OA
ATOM      7  N   UNL     1      -1.312  14.478  22.006  0.00  0.00    +0.000 N 
ATOM      8  C   UNL     1      -2.458  14.069  21.332  0.00  0.00    +0.000 A 
ATOM      9  O   UNL     1      -3.499  14.711  21.438  0.00  0.00    +0.000 OA
ATOM     10  N   UNL     1      -2.326  12.956  20.467  0.00  0.00    +0.000 N 
ATOM     11  C   UNL     1      -3.467  12.422  19.781  0.00  0.00    +0.000 A 
ATOM     12  C   UNL     1      -4.760  12.530  20.306  0.00  0.00    +0.000 A 
ATOM     13  C   UNL     1      -5.830  12.063  19.559  0.00  0.00    +0.000 A 
ATOM     14  C   UNL     1      -5.685  11.727  18.225  0.00  0.00    +0.000 A 
ATOM     15  C   UNL     1      -4.423  11.484  17.737  0.00  0.00    +0.000 A 
ATOM     16  C   UNL     1      -3.325  11.721  18.581  0.00  0.00    +0.000 A 
ATOM     17  C   UNL     1      -2.040  11.059  18.304  0.00  0.00    +0.000 A 
ATOM     18  O   UNL     1      -2.013  10.144  17.486  0.00  0.00    +0.000 OA
ATOM     19  C   UNL     1      -0.865  11.441  19.122  0.00  0.00    +0.000 A 
ATOM     20  C   UNL     1      -1.058  12.424  20.118  0.00  0.00    +0.000 A 
ENDROOT
BRANCH   1  21
ATOM     21  N   UNL     1       0.644   9.912  17.874  0.00  0.00    +0.000 N 
ATOM     22  H   UNL     1      -0.170   9.318  17.685  0.00  0.00    +0.000 HD
BRANCH  21  23
ATOM     23  C   UNL     1       1.972   9.311  17.748  0.00  0.00    +0.000 C 
BRANCH  23  24
ATOM     24  C   UNL     1       1.971   7.776  17.703  0.00  0.00    +0.000 C 
BRANCH  24  26
ATOM     25  C   UNL     1       2.413   6.545  19.731  0.00  0.00    +0.000 C 
ATOM     26  N   UNL     1       3.024   7.178  18.562  0.00  0.00    +0.000 NA
ATOM     27  C   UNL     1       3.842   6.193  17.846  0.00  0.00    +0.000 C 
ENDBRANCH  24  26
ENDBRANCH  23  24
ENDBRANCH  21  23
ENDBRANCH   1  21
BRANCH  13  28
ATOM     28  O   UNL     1      -6.996  11.712  20.180  0.00  0.00    +0.000 OA
ATOM     29  H   UNL     1      -7.659  11.756  19.456  0.00  0.00    +0.000 HD
ENDBRANCH  13  28
BRANCH  14  30
ATOM     30  O   UNL     1      -6.792  11.542  17.456  0.00  0.00    +0.000 OA
ATOM     31  H   UNL     1      -7.536  11.429  18.082  0.00  0.00    +0.000 HD
ENDBRANCH  14  30
BRANCH   7  32
ATOM     32  C   UNL     1      -1.410  15.662  22.859  0.00  0.00    +0.000 C 
BRANCH  32  33
ATOM     33  C   UNL     1      -1.513  15.396  24.370  0.00  0.00    +0.000 C 
BRANCH  33  34
ATOM     34  N   UNL     1      -0.381  15.829  25.215  0.00  0.00    +0.000 NA
ATOM     35  C   UNL     1       0.284  17.026  24.692  0.00  0.00    +0.000 C 
ATOM     36  C   UNL     1      -0.881  16.112  26.565  0.00  0.00    +0.000 C 
ENDBRANCH  33  34
ENDBRANCH  32  33
ENDBRANCH   7  32
TORSDOF 9
ENDMDL
MODEL 8
REMARK VINA RESULT:      -6.2      1.126      1.460
REMARK  Name = 
REMARK  13 active torsions:
REMARK  status: ('A' for Active; 'I' for Inactive)
REMARK    1  A    between atoms: C_1  and  N_2
REMARK    2  A    between atoms: N_2  and  C_3
REMARK    3  A    between atoms: N_2  and  C_4
REMARK    4  A    between atoms: C_4  and  C_5
REMARK    5  A    between atoms: C_5  and  N_6
REMARK    6  A    between atoms: N_6  and  C_7
REMARK    7  A    between atoms: N_13  and  C_14
REMARK    8  A    between atoms: C_14  and  C_15
REMARK    9  A    between atoms: C_15  and  N_16
REMARK   10  A    between atoms: N_16  and  C_17
REMARK   11  A    between atoms: N_16  and  C_18
REMARK   12  A    between atoms: C_24  and  O_25
REMARK   13  A    between atoms: C_26  and  O_27
REMARK                            x       y       z     vdW  Elec       q    Type
REMARK                         _______ _______ _______ _____ _____    ______ ____
ROOT
ATOM      1  C   UNL     1       0.222  10.173  18.937  0.00  0.00    +0.000 A 
ATOM      2  C   UNL     1      -0.348   9.569  17.810  0.00  0.00    +0.000 A 
ATOM      3  C   UNL     1      -1.606   9.912  17.353  0.00  0.00    +0.000 A 
ATOM      4  C   UNL     1      -2.344  10.887  18.021  0.00  0.00    +0.000 A 
ATOM      5  C   UNL     1      -3.676  11.200  17.518  0.00  0.00    +0.000 A 
ATOM      6  O   UNL     1      -4.087  10.593  16.532  0.00  0.00    +0.000 OA
ATOM      7  N   UNL     1      -4.418  12.117  18.231  0.00  0.00    +0.000 N 
ATOM      8  C   UNL     1      -3.985  12.749  19.392  0.00  0.00    +0.000 A 
ATOM      9  O   UNL     1      -4.772  13.404  20.069  0.00  0.00    +0.000 OA
ATOM     10  N   UNL     1      -2.644  12.515  19.783  0.00  0.00    +0.000 N 
ATOM     11  C   UNL     1      -2.090  13.176  20.930  0.00  0.00    +0.000 A 
ATOM     12  C   UNL     1      -2.551  14.428  21.354  0.00  0.00    +0.000 A 
ATOM     13  C   UNL     1      -2.029  14.978  22.514  0.00  0.00    +0.000 A 
ATOM     14  C   UNL     1      -1.259  14.228  23.384  0.00  0.00    +0.000 A 
ATOM     15  C   UNL     1      -0.688  13.063  22.928  0.00  0.00    +0.000 A 
ATOM     16  C   UNL     1      -1.024  12.618  21.639  0.00  0.00    +0.000 A 
ATOM     17  C   UNL     1      -0.126  11.686  20.936  0.00  0.00    +0.000 A 
ATOM     18  O   UNL     1       0.998  11.496  21.391  0.00  0.00    +0.000 OA
ATOM     19  C   UNL     1      -0.577  11.120  19.643  0.00  0.00    +0.000 A 
ATOM     20  C   UNL     1      -1.848  11.515  19.169  0.00  0.00    +0.000 A 
ENDROOT
BRANCH   1  21
ATOM     21  N   UNL     1       1.479   9.747  19.397  0.00  0.00    +0.000 N 
ATOM     22  H   UNL     1       2.266  10.182  18.905  0.00  0.00    +0.000 HD
BRANCH  21  23
ATOM     23  C   UNL     1       1.639   8.368  19.857  0.00  0.00    +0.000 C 
BRANCH  23  24
ATOM     24  C   UNL     1       2.422   7.465  18.893  0.00  0.00    +0.000 C 
BRANCH  24  26
ATOM     25  C   UNL     1       1.854   5.735  20.478  0.00  0.00    +0.000 C 
ATOM     26  N   UNL     1       2.868   6.199  19.529  0.00  0.00    +0.000 NA
ATOM     27  C   UNL     1       3.139   5.142  18.549  0.00  0.00    +0.000 C 
ENDBRANCH  24  26
ENDBRANCH  23  24
ENDBRANCH  21  23
ENDBRANCH   1  21
BRANCH  13  28
ATOM     28  O   UNL     1      -2.074  16.330  22.708  0.00  0.00    +0.000 OA
ATOM     29  H   UNL     1      -2.919  16.591  22.279  0.00  0.00    +0.000 HD
ENDBRANCH  13  28
BRANCH  14  30
ATOM     30  O   UNL     1      -0.999  14.706  24.631  0.00  0.00    +0.000 OA
ATOM     31  H   UNL     1      -1.844  15.080  24.955  0.00  0.00    +0.000 HD
ENDBRANCH  14  30
BRANCH   7  32
ATOM     32  C   UNL     1      -5.817  12.295  17.841  0.00  0.00    +0.000 C 
BRANCH  32  33
ATOM     33  C   UNL     1      -6.808  11.263  18.402  0.00  0.00    +0.000 C 
BRANCH  33  34
ATOM     34  N   UNL     1      -7.744  11.719  19.450  0.00  0.00    +0.000 NA
ATOM     35  C   UNL     1      -7.315  11.327  20.795  0.00  0.00    +0.000 C 
ATOM     36  C   UNL     1      -7.846  13.182  19.387  0.00  0.00    +0.000 C 
ENDBRANCH  33  34
ENDBRANCH  32  33
ENDBRANCH   7  32
TORSDOF 9
ENDMDL
MODEL 9
REMARK VINA RESULT:      -6.1      3.920      4.961
REMARK  Name = 
REMARK  13 active torsions:
REMARK  status: ('A' for Active; 'I' for Inactive)
REMARK    1  A    between atoms: C_1  and  N_2
REMARK    2  A    between atoms: N_2  and  C_3
REMARK    3  A    between atoms: N_2  and  C_4
REMARK    4  A    between atoms: C_4  and  C_5
REMARK    5  A    between atoms: C_5  and  N_6
REMARK    6  A    between atoms: N_6  and  C_7
REMARK    7  A    between atoms: N_13  and  C_14
REMARK    8  A    between atoms: C_14  and  C_15
REMARK    9  A    between atoms: C_15  and  N_16
REMARK   10  A    between atoms: N_16  and  C_17
REMARK   11  A    between atoms: N_16  and  C_18
REMARK   12  A    between atoms: C_24  and  O_25
REMARK   13  A    between atoms: C_26  and  O_27
REMARK                            x       y       z     vdW  Elec       q    Type
REMARK                         _______ _______ _______ _____ _____    ______ ____
ROOT
ATOM      1  C   UNL     1       1.211  10.325  19.192  0.00  0.00    +0.000 A 
ATOM      2  C   UNL     1       0.489   9.525  20.085  0.00  0.00    +0.000 A 
ATOM      3  C   UNL     1      -0.226  10.066  21.137  0.00  0.00    +0.000 A 
ATOM      4  C   UNL     1      -0.240  11.445  21.330  0.00  0.00    +0.000 A 
ATOM      5  C   UNL     1      -0.988  11.969  22.466  0.00  0.00    +0.000 A 
ATOM      6  O   UNL     1      -1.571  11.174  23.200  0.00  0.00    +0.000 OA
ATOM      7  N   UNL     1      -0.934  13.329  22.681  0.00  0.00    +0.000 N 
ATOM      8  C   UNL     1      -0.212  14.223  21.897  0.00  0.00    +0.000 A 
ATOM      9  O   UNL     1      -0.062  15.384  22.264  0.00  0.00    +0.000 OA
ATOM     10  N   UNL     1       0.400  13.698  20.733  0.00  0.00    +0.000 N 
ATOM     11  C   UNL     1       1.110  14.558  19.829  0.00  0.00    +0.000 A 
ATOM     12  C   UNL     1       0.781  15.911  19.686  0.00  0.00    +0.000 A 
ATOM     13  C   UNL     1       1.554  16.706  18.855  0.00  0.00    +0.000 A 
ATOM     14  C   UNL     1       2.770  16.266  18.364  0.00  0.00    +0.000 A 
ATOM     15  C   UNL     1       3.040  14.918  18.375  0.00  0.00    +0.000 A 
ATOM     16  C   UNL     1       2.126  14.061  19.010  0.00  0.00    +0.000 A 
ATOM     17  C   UNL     1       2.108  12.631  18.658  0.00  0.00    +0.000 A 
ATOM     18  O   UNL     1       2.727  12.261  17.665  0.00  0.00    +0.000 OA
ATOM     19  C   UNL     1       1.238  11.727  19.447  0.00  0.00    +0.000 A 
ATOM     20  C   UNL     1       0.480  12.303  20.492  0.00  0.00    +0.000 A 
ENDROOT
BRANCH   1  21
ATOM     21  N   UNL     1       1.971   9.724  18.175  0.00  0.00    +0.000 N 
ATOM     22  H   UNL     1       2.078  10.310  17.341  0.00  0.00    +0.000 HD
BRANCH  21  23
ATOM     23  C   UNL     1       1.892   8.276  17.987  0.00  0.00    +0.000 C 
BRANCH  23  24
ATOM     24  C   UNL     1       3.252   7.582  17.823  0.00  0.00    +0.000 C 
BRANCH  24  26
ATOM     25  C   UNL     1       2.453   6.378  19.755  0.00  0.00    +0.000 C 
ATOM     26  N   UNL     1       3.349   6.321  18.599  0.00  0.00    +0.000 NA
ATOM     27  C   UNL     1       3.031   5.137  17.794  0.00  0.00    +0.000 C 
ENDBRANCH  24  26
ENDBRANCH  23  24
ENDBRANCH  21  23
ENDBRANCH   1  21
BRANCH  13  28
ATOM     28  O   UNL     1       1.028  17.849  18.321  0.00  0.00    +0.000 OA
ATOM     29  H   UNL     1       0.582  17.531  17.505  0.00  0.00    +0.000 HD
ENDBRANCH  13  28
BRANCH  14  30
ATOM     30  O   UNL     1       3.622  17.157  17.789  0.00  0.00    +0.000 OA
ATOM     31  H   UNL     1       3.055  17.848  17.388  0.00  0.00    +0.000 HD
ENDBRANCH  14  30
BRANCH   7  32
ATOM     32  C   UNL     1      -1.526  13.835  23.920  0.00  0.00    +0.000 C 
BRANCH  32  33
ATOM     33  C   UNL     1      -2.979  14.326  23.819  0.00  0.00    +0.000 C 
BRANCH  33  34
ATOM     34  N   UNL     1      -3.219  15.776  23.965  0.00  0.00    +0.000 NA
ATOM     35  C   UNL     1      -4.605  16.082  24.331  0.00  0.00    +0.000 C 
ATOM     36  C   UNL     1      -2.324  16.300  25.005  0.00  0.00    +0.000 C 
ENDBRANCH  33  34
ENDBRANCH  32  33
ENDBRANCH   7  32
TORSDOF 9
ENDMDL
