MODEL 1
REMARK VINA RESULT:      -7.7      0.000      0.000
REMARK  Name = 
REMARK  10 active torsions:
REMARK  status: ('A' for Active; 'I' for Inactive)
REMARK    1  A    between atoms: C_1  and  C_2
REMARK    2  A    between atoms: C_2  and  O_3
REMARK    3  A    between atoms: O_3  and  C_4
REMARK    4  A    between atoms: C_6  and  C_7
REMARK    5  A    between atoms: N_10  and  C_11
REMARK    6  A    between atoms: C_11  and  C_12
REMARK    7  A    between atoms: C_12  and  C_13
REMARK    8  A    between atoms: C_13  and  O_15
REMARK    9  A    between atoms: C_20  and  O_21
REMARK   10  A    between atoms: C_20  and  C_22
REMARK                            x       y       z     vdW  Elec       q    Type
REMARK                         _______ _______ _______ _____ _____    ______ ____
ROOT
ATOM      1  C   UNL     1       2.031   4.059  17.765  0.00  0.00    +0.000 A 
ATOM      2  C   UNL     1       1.722   5.383  18.113  0.00  0.00    +0.000 A 
ATOM      3  C   UNL     1       2.689   6.421  18.133  0.00  0.00    +0.000 A 
ATOM      4  C   UNL     1       4.005   6.091  17.789  0.00  0.00    +0.000 A 
ATOM      5  C   UNL     1       4.305   4.735  17.474  0.00  0.00    +0.000 A 
ATOM      6  C   UNL     1       3.343   3.725  17.468  0.00  0.00    +0.000 A 
ATOM      7  C   UNL     1       5.784   4.553  17.144  0.00  0.00    +0.000 C 
ATOM      8  C   UNL     1       6.298   5.977  17.279  0.00  0.00    +0.000 A 
ATOM      9  C   UNL     1       7.605   6.419  17.086  0.00  0.00    +0.000 A 
ATOM     10  C   UNL     1       7.880   7.773  17.251  0.00  0.00    +0.000 A 
ATOM     11  C   UNL     1       6.854   8.660  17.584  0.00  0.00    +0.000 A 
ATOM     12  C   UNL     1       5.538   8.207  17.751  0.00  0.00    +0.000 A 
ATOM     13  C   UNL     1       5.248   6.856  17.636  0.00  0.00    +0.000 A 
ENDROOT
BRANCH   3  14
ATOM     14  C   UNL     1       2.233   7.759  18.482  0.00  0.00    +0.000 A 
ATOM     15  C   UNL     1       2.222   8.981  17.772  0.00  0.00    +0.000 A 
ATOM     16  N   UNL     1       1.648   9.976  18.458  0.00  0.00    +0.000 NA
ATOM     17  N   UNL     1       1.390   9.421  19.655  0.00  0.00    +0.000 N 
ATOM     18  C   UNL     1       1.748   8.107  19.728  0.00  0.00    +0.000 A 
BRANCH  17  19
ATOM     19  C   UNL     1       0.776  10.216  20.701  0.00  0.00    +0.000 C 
BRANCH  19  20
ATOM     20  C   UNL     1      -0.209   9.403  21.525  0.00  0.00    +0.000 C 
BRANCH  20  21
ATOM     21  C   UNL     1      -0.281   9.937  22.923  0.00  0.00    +0.000 C 
ATOM     22  O   UNL     1       0.519   9.674  23.812  0.00  0.00    +0.000 OA
BRANCH  21  23
ATOM     23  O   UNL     1      -1.352  10.734  23.128  0.00  0.00    +0.000 OA
ATOM     24  H   UNL     1      -1.139  11.599  23.529  0.00  0.00    +0.000 HD
ENDBRANCH  21  23
ENDBRANCH  20  21
ENDBRANCH  19  20
ENDBRANCH  17  19
ENDBRANCH   3  14
BRANCH   7  25
ATOM     25  C   UNL     1       6.049   3.906  15.745  0.00  0.00    +0.000 C 
ATOM     26  F   UNL     1       7.316   4.087  15.301  0.00  0.00    +0.000 F 
ATOM     27  F   UNL     1       5.795   2.581  15.690  0.00  0.00    +0.000 F 
ATOM     28  F   UNL     1       5.241   4.498  14.818  0.00  0.00    +0.000 F 
ENDBRANCH   7  25
BRANCH   7  29
ATOM     29  O   UNL     1       6.350   3.800  18.237  0.00  0.00    +0.000 OA
ATOM     30  H   UNL     1       5.617   3.321  18.664  0.00  0.00    +0.000 HD
ENDBRANCH   7  29
BRANCH   1  31
ATOM     31  O   UNL     1       0.965   3.198  17.740  0.00  0.00    +0.000 OA
BRANCH  31  33
ATOM     32  C   UNL     1       0.881   2.886  20.114  0.00  0.00    +0.000 C 
ATOM     33  C   UNL     1       0.921   2.200  18.760  0.00  0.00    +0.000 C 
ENDBRANCH  31  33
ENDBRANCH   1  31
TORSDOF 9
ENDMDL
MODEL 2
REMARK VINA RESULT:      -7.2      1.327      1.516
REMARK  Name = 
REMARK  10 active torsions:
REMARK  status: ('A' for Active; 'I' for Inactive)
REMARK    1  A    between atoms: C_1  and  C_2
REMARK    2  A    between atoms: C_2  and  O_3
REMARK    3  A    between atoms: O_3  and  C_4
REMARK    4  A    between atoms: C_6  and  C_7
REMARK    5  A    between atoms: N_10  and  C_11
REMARK    6  A    between atoms: C_11  and  C_12
REMARK    7  A    between atoms: C_12  and  C_13
REMARK    8  A    between atoms: C_13  and  O_15
REMARK    9  A    between atoms: C_20  and  O_21
REMARK   10  A    between atoms: C_20  and  C_22
REMARK                            x       y       z     vdW  Elec       q    Type
REMARK                         _______ _______ _______ _____ _____    ______ ____
ROOT
ATOM      1  C   UNL     1       2.024   4.033  17.734  0.00  0.00    +0.000 A 
ATOM      2  C   UNL     1       1.707   5.355  18.084  0.00  0.00    +0.000 A 
ATOM      3  C   UNL     1       2.668   6.398  18.108  0.00  0.00    +0.000 A 
ATOM      4  C   UNL     1       3.987   6.076  17.765  0.00  0.00    +0.000 A 
ATOM      5  C   UNL     1       4.295   4.722  17.449  0.00  0.00    +0.000 A 
ATOM      6  C   UNL     1       3.338   3.707  17.438  0.00  0.00    +0.000 A 
ATOM      7  C   UNL     1       5.775   4.549  17.120  0.00  0.00    +0.000 C 
ATOM      8  C   UNL     1       6.281   5.976  17.259  0.00  0.00    +0.000 A 
ATOM      9  C   UNL     1       7.586   6.425  17.069  0.00  0.00    +0.000 A 
ATOM     10  C   UNL     1       7.853   7.780  17.237  0.00  0.00    +0.000 A 
ATOM     11  C   UNL     1       6.821   8.661  17.570  0.00  0.00    +0.000 A 
ATOM     12  C   UNL     1       5.508   8.201  17.735  0.00  0.00    +0.000 A 
ATOM     13  C   UNL     1       5.225   6.848  17.616  0.00  0.00    +0.000 A 
ENDROOT
BRANCH   3  14
ATOM     14  C   UNL     1       2.204   7.733  18.459  0.00  0.00    +0.000 A 
ATOM     15  C   UNL     1       2.084   8.929  17.717  0.00  0.00    +0.000 A 
ATOM     16  N   UNL     1       1.547   9.929  18.424  0.00  0.00    +0.000 NA
ATOM     17  N   UNL     1       1.424   9.407  19.657  0.00  0.00    +0.000 N 
ATOM     18  C   UNL     1       1.831   8.108  19.735  0.00  0.00    +0.000 A 
BRANCH  17  19
ATOM     19  C   UNL     1       0.889  10.219  20.734  0.00  0.00    +0.000 C 
BRANCH  19  20
ATOM     20  C   UNL     1       0.352  11.547  20.226  0.00  0.00    +0.000 C 
BRANCH  20  21
ATOM     21  C   UNL     1       1.314  12.651  20.547  0.00  0.00    +0.000 C 
ATOM     22  O   UNL     1       1.279  13.334  21.563  0.00  0.00    +0.000 OA
BRANCH  21  23
ATOM     23  O   UNL     1       2.231  12.850  19.574  0.00  0.00    +0.000 OA
ATOM     24  H   UNL     1       1.987  12.470  18.709  0.00  0.00    +0.000 HD
ENDBRANCH  21  23
ENDBRANCH  20  21
ENDBRANCH  19  20
ENDBRANCH  17  19
ENDBRANCH   3  14
BRANCH   7  25
ATOM     25  C   UNL     1       6.046   3.907  15.720  0.00  0.00    +0.000 C 
ATOM     26  F   UNL     1       7.316   4.083  15.285  0.00  0.00    +0.000 F 
ATOM     27  F   UNL     1       5.787   2.583  15.658  0.00  0.00    +0.000 F 
ATOM     28  F   UNL     1       5.247   4.506  14.790  0.00  0.00    +0.000 F 
ENDBRANCH   7  25
BRANCH   7  29
ATOM     29  O   UNL     1       6.343   3.797  18.212  0.00  0.00    +0.000 OA
ATOM     30  H   UNL     1       7.274   3.621  17.985  0.00  0.00    +0.000 HD
ENDBRANCH   7  29
BRANCH   1  31
ATOM     31  O   UNL     1       0.963   3.166  17.706  0.00  0.00    +0.000 OA
BRANCH  31  33
ATOM     32  C   UNL     1       0.863   2.945  20.089  0.00  0.00    +0.000 C 
ATOM     33  C   UNL     1       0.886   2.208  18.762  0.00  0.00    +0.000 C 
ENDBRANCH  31  33
ENDBRANCH   1  31
TORSDOF 9
ENDMDL
MODEL 3
REMARK VINA RESULT:      -7.1      1.272      1.600
REMARK  Name = 
REMARK  10 active torsions:
REMARK  status: ('A' for Active; 'I' for Inactive)
REMARK    1  A    between atoms: C_1  and  C_2
REMARK    2  A    between atoms: C_2  and  O_3
REMARK    3  A    between atoms: O_3  and  C_4
REMARK    4  A    between atoms: C_6  and  C_7
REMARK    5  A    between atoms: N_10  and  C_11
REMARK    6  A    between atoms: C_11  and  C_12
REMARK    7  A    between atoms: C_12  and  C_13
REMARK    8  A    between atoms: C_13  and  O_15
REMARK    9  A    between atoms: C_20  and  O_21
REMARK   10  A    between atoms: C_20  and  C_22
REMARK                            x       y       z     vdW  Elec       q    Type
REMARK                         _______ _______ _______ _____ _____    ______ ____
ROOT
ATOM      1  C   UNL     1       1.997   4.131  17.771  0.00  0.00    +0.000 A 
ATOM      2  C   UNL     1       1.695   5.469  18.069  0.00  0.00    +0.000 A 
ATOM      3  C   UNL     1       2.672   6.497  18.074  0.00  0.00    +0.000 A 
ATOM      4  C   UNL     1       3.991   6.143  17.767  0.00  0.00    +0.000 A 
ATOM      5  C   UNL     1       4.283   4.775  17.503  0.00  0.00    +0.000 A 
ATOM      6  C   UNL     1       3.311   3.774  17.511  0.00  0.00    +0.000 A 
ATOM      7  C   UNL     1       5.766   4.568  17.208  0.00  0.00    +0.000 C 
ATOM      8  C   UNL     1       6.292   5.990  17.307  0.00  0.00    +0.000 A 
ATOM      9  C   UNL     1       7.607   6.413  17.126  0.00  0.00    +0.000 A 
ATOM     10  C   UNL     1       7.893   7.769  17.251  0.00  0.00    +0.000 A 
ATOM     11  C   UNL     1       6.870   8.676  17.535  0.00  0.00    +0.000 A 
ATOM     12  C   UNL     1       5.546   8.242  17.691  0.00  0.00    +0.000 A 
ATOM     13  C   UNL     1       5.245   6.890  17.615  0.00  0.00    +0.000 A 
ENDROOT
BRANCH   3  14
ATOM     14  C   UNL     1       2.223   7.850  18.370  0.00  0.00    +0.000 A 
ATOM     15  C   UNL     1       2.246   9.050  17.624  0.00  0.00    +0.000 A 
ATOM     16  N   UNL     1       1.666  10.072  18.263  0.00  0.00    +0.000 NA
ATOM     17  N   UNL     1       1.370   9.557  19.469  0.00  0.00    +0.000 N 
ATOM     18  C   UNL     1       1.709   8.242  19.592  0.00  0.00    +0.000 A 
BRANCH  17  19
ATOM     19  C   UNL     1       0.738  10.391  20.474  0.00  0.00    +0.000 C 
BRANCH  19  20
ATOM     20  C   UNL     1       0.417  11.776  19.937  0.00  0.00    +0.000 C 
BRANCH  20  21
ATOM     21  C   UNL     1      -0.952  11.790  19.326  0.00  0.00    +0.000 C 
ATOM     22  O   UNL     1      -1.995  11.920  19.955  0.00  0.00    +0.000 OA
BRANCH  21  23
ATOM     23  O   UNL     1      -0.933  11.612  17.987  0.00  0.00    +0.000 OA
ATOM     24  H   UNL     1      -0.474  12.320  17.495  0.00  0.00    +0.000 HD
ENDBRANCH  21  23
ENDBRANCH  20  21
ENDBRANCH  19  20
ENDBRANCH  17  19
ENDBRANCH   3  14
BRANCH   7  25
ATOM     25  C   UNL     1       6.051   3.873  15.836  0.00  0.00    +0.000 C 
ATOM     26  F   UNL     1       7.335   4.005  15.424  0.00  0.00    +0.000 F 
ATOM     27  F   UNL     1       5.762   2.554  15.812  0.00  0.00    +0.000 F 
ATOM     28  F   UNL     1       5.287   4.459  14.870  0.00  0.00    +0.000 F 
ENDBRANCH   7  25
BRANCH   7  29
ATOM     29  O   UNL     1       6.303   3.846  18.336  0.00  0.00    +0.000 OA
ATOM     30  H   UNL     1       6.496   4.502  19.030  0.00  0.00    +0.000 HD
ENDBRANCH   7  29
BRANCH   1  31
ATOM     31  O   UNL     1       0.923   3.280  17.753  0.00  0.00    +0.000 OA
BRANCH  31  33
ATOM     32  C   UNL     1       0.879   2.905  20.118  0.00  0.00    +0.000 C 
ATOM     33  C   UNL     1       0.898   2.255  18.747  0.00  0.00    +0.000 C 
ENDBRANCH  31  33
ENDBRANCH   1  31
TORSDOF 9
ENDMDL
MODEL 4
REMARK VINA RESULT:      -7.0      1.625      2.146
REMARK  Name = 
REMARK  10 active torsions:
REMARK  status: ('A' for Active; 'I' for Inactive)
REMARK    1  A    between atoms: C_1  and  C_2
REMARK    2  A    between atoms: C_2  and  O_3
REMARK    3  A    between atoms: O_3  and  C_4
REMARK    4  A    between atoms: C_6  and  C_7
REMARK    5  A    between atoms: N_10  and  C_11
REMARK    6  A    between atoms: C_11  and  C_12
REMARK    7  A    between atoms: C_12  and  C_13
REMARK    8  A    between atoms: C_13  and  O_15
REMARK    9  A    between atoms: C_20  and  O_21
REMARK   10  A    between atoms: C_20  and  C_22
REMARK                            x       y       z     vdW  Elec       q    Type
REMARK                         _______ _______ _______ _____ _____    ______ ____
ROOT
ATOM      1  C   UNL     1       2.058   4.028  17.750  0.00  0.00    +0.000 A 
ATOM      2  C   UNL     1       1.748   5.333  18.163  0.00  0.00    +0.000 A 
ATOM      3  C   UNL     1       2.705   6.380  18.196  0.00  0.00    +0.000 A 
ATOM      4  C   UNL     1       4.013   6.077  17.797  0.00  0.00    +0.000 A 
ATOM      5  C   UNL     1       4.315   4.739  17.417  0.00  0.00    +0.000 A 
ATOM      6  C   UNL     1       3.363   3.720  17.399  0.00  0.00    +0.000 A 
ATOM      7  C   UNL     1       5.785   4.587  17.034  0.00  0.00    +0.000 C 
ATOM      8  C   UNL     1       6.289   6.009  17.212  0.00  0.00    +0.000 A 
ATOM      9  C   UNL     1       7.586   6.472  16.997  0.00  0.00    +0.000 A 
ATOM     10  C   UNL     1       7.853   7.821  17.209  0.00  0.00    +0.000 A 
ATOM     11  C   UNL     1       6.830   8.683  17.611  0.00  0.00    +0.000 A 
ATOM     12  C   UNL     1       5.524   8.210  17.800  0.00  0.00    +0.000 A 
ATOM     13  C   UNL     1       5.243   6.861  17.638  0.00  0.00    +0.000 A 
ENDROOT
BRANCH   3  14
ATOM     14  C   UNL     1       2.248   7.697  18.614  0.00  0.00    +0.000 A 
ATOM     15  C   UNL     1       1.793   8.203  19.852  0.00  0.00    +0.000 A 
ATOM     16  N   UNL     1       1.523   9.513  19.811  0.00  0.00    +0.000 NA
ATOM     17  N   UNL     1       1.699   9.827  18.516  0.00  0.00    +0.000 N 
ATOM     18  C   UNL     1       2.104   8.770  17.755  0.00  0.00    +0.000 A 
BRANCH  17  19
ATOM     19  C   UNL     1       1.469  11.187  18.066  0.00  0.00    +0.000 C 
BRANCH  19  20
ATOM     20  C   UNL     1       0.550  11.946  19.009  0.00  0.00    +0.000 C 
BRANCH  20  21
ATOM     21  C   UNL     1      -0.849  11.958  18.471  0.00  0.00    +0.000 C 
ATOM     22  O   UNL     1      -1.755  11.235  18.865  0.00  0.00    +0.000 OA
BRANCH  21  23
ATOM     23  O   UNL     1      -1.018  12.844  17.464  0.00  0.00    +0.000 OA
ATOM     24  H   UNL     1      -0.568  12.597  16.633  0.00  0.00    +0.000 HD
ENDBRANCH  21  23
ENDBRANCH  20  21
ENDBRANCH  19  20
ENDBRANCH  17  19
ENDBRANCH   3  14
BRANCH   7  25
ATOM     25  C   UNL     1       6.011   4.001  15.601  0.00  0.00    +0.000 C 
ATOM     26  F   UNL     1       5.146   4.489  14.679  0.00  0.00    +0.000 F 
ATOM     27  F   UNL     1       7.256   4.191  15.114  0.00  0.00    +0.000 F 
ATOM     28  F   UNL     1       5.803   2.653  15.630  0.00  0.00    +0.000 F 
ENDBRANCH   7  25
BRANCH   7  29
ATOM     29  O   UNL     1       6.391   3.795  18.076  0.00  0.00    +0.000 OA
ATOM     30  H   UNL     1       6.872   4.410  18.659  0.00  0.00    +0.000 HD
ENDBRANCH   7  29
BRANCH   1  31
ATOM     31  O   UNL     1       1.000   3.158  17.723  0.00  0.00    +0.000 OA
BRANCH  31  33
ATOM     32  C   UNL     1       0.922   2.873  20.100  0.00  0.00    +0.000 C 
ATOM     33  C   UNL     1       0.951   2.171  18.754  0.00  0.00    +0.000 C 
ENDBRANCH  31  33
ENDBRANCH   1  31
TORSDOF 9
ENDMDL
MODEL 5
REMARK VINA RESULT:      -6.9      8.297     11.046
REMARK  Name = 
REMARK  10 active torsions:
REMARK  status: ('A' for Active; 'I' for Inactive)
REMARK    1  A    between atoms: C_1  and  C_2
REMARK    2  A    between atoms: C_2  and  O_3
REMARK    3  A    between atoms: O_3  and  C_4
REMARK    4  A    between atoms: C_6  and  C_7
REMARK    5  A    between atoms: N_10  and  C_11
REMARK    6  A    between atoms: C_11  and  C_12
REMARK    7  A    between atoms: C_12  and  C_13
REMARK    8  A    between atoms: C_13  and  O_15
REMARK    9  A    between atoms: C_20  and  O_21
REMARK   10  A    between atoms: C_20  and  C_22
REMARK                            x       y       z     vdW  Elec       q    Type
REMARK                         _______ _______ _______ _____ _____    ______ ____
ROOT
ATOM      1  C   UNL     1      -5.885  12.362  19.901  0.00  0.00    +0.000 A 
ATOM      2  C   UNL     1      -5.335  11.701  18.791  0.00  0.00    +0.000 A 
ATOM      3  C   UNL     1      -3.938  11.607  18.562  0.00  0.00    +0.000 A 
ATOM      4  C   UNL     1      -3.085  12.207  19.497  0.00  0.00    +0.000 A 
ATOM      5  C   UNL     1      -3.663  12.903  20.596  0.00  0.00    +0.000 A 
ATOM      6  C   UNL     1      -5.040  12.992  20.800  0.00  0.00    +0.000 A 
ATOM      7  C   UNL     1      -2.591  13.509  21.499  0.00  0.00    +0.000 C 
ATOM      8  C   UNL     1      -1.320  13.053  20.800  0.00  0.00    +0.000 A 
ATOM      9  C   UNL     1      -0.009  13.318  21.189  0.00  0.00    +0.000 A 
ATOM     10  C   UNL     1       1.029  12.804  20.418  0.00  0.00    +0.000 A 
ATOM     11  C   UNL     1       0.747  12.028  19.292  0.00  0.00    +0.000 A 
ATOM     12  C   UNL     1      -0.576  11.748  18.925  0.00  0.00    +0.000 A 
ATOM     13  C   UNL     1      -1.628  12.286  19.652  0.00  0.00    +0.000 A 
ENDROOT
BRANCH   3  14
ATOM     14  C   UNL     1      -3.496  10.868  17.389  0.00  0.00    +0.000 A 
ATOM     15  C   UNL     1      -2.697   9.714  17.231  0.00  0.00    +0.000 A 
ATOM     16  N   UNL     1      -2.584   9.329  15.955  0.00  0.00    +0.000 NA
ATOM     17  N   UNL     1      -3.219  10.302  15.279  0.00  0.00    +0.000 N 
ATOM     18  C   UNL     1      -3.756  11.259  16.089  0.00  0.00    +0.000 A 
BRANCH  17  19
ATOM     19  C   UNL     1      -3.288  10.248  13.831  0.00  0.00    +0.000 C 
BRANCH  19  20
ATOM     20  C   UNL     1      -4.606   9.661  13.350  0.00  0.00    +0.000 C 
BRANCH  20  21
ATOM     21  C   UNL     1      -4.669   9.689  11.853  0.00  0.00    +0.000 C 
ATOM     22  O   UNL     1      -5.698   9.582  11.196  0.00  0.00    +0.000 OA
BRANCH  21  23
ATOM     23  O   UNL     1      -3.454   9.817  11.276  0.00  0.00    +0.000 OA
ATOM     24  H   UNL     1      -3.079  10.717  11.327  0.00  0.00    +0.000 HD
ENDBRANCH  21  23
ENDBRANCH  20  21
ENDBRANCH  19  20
ENDBRANCH  17  19
ENDBRANCH   3  14
BRANCH   7  25
ATOM     25  C   UNL     1      -2.694  13.065  22.995  0.00  0.00    +0.000 C 
ATOM     26  F   UNL     1      -3.740  13.624  23.649  0.00  0.00    +0.000 F 
ATOM     27  F   UNL     1      -2.785  11.729  23.172  0.00  0.00    +0.000 F 
ATOM     28  F   UNL     1      -1.576  13.473  23.662  0.00  0.00    +0.000 F 
ENDBRANCH   7  25
BRANCH   7  29
ATOM     29  O   UNL     1      -2.677  14.937  21.320  0.00  0.00    +0.000 OA
ATOM     30  H   UNL     1      -3.574  15.206  21.586  0.00  0.00    +0.000 HD
ENDBRANCH   7  29
BRANCH   1  31
ATOM     31  O   UNL     1      -7.250  12.304  19.997  0.00  0.00    +0.000 OA
BRANCH  31  33
ATOM     32  C   UNL     1      -7.841  10.167  20.901  0.00  0.00    +0.000 C 
ATOM     33  C   UNL     1      -7.788  11.662  21.154  0.00  0.00    +0.000 C 
ENDBRANCH  31  33
ENDBRANCH   1  31
TORSDOF 9
ENDMDL
MODEL 6
REMARK VINA RESULT:      -6.9      6.330      9.729
REMARK  Name = 
REMARK  10 active torsions:
REMARK  status: ('A' for Active; 'I' for Inactive)
REMARK    1  A    between atoms: C_1  and  C_2
REMARK    2  A    between atoms: C_2  and  O_3
REMARK    3  A    between atoms: O_3  and  C_4
REMARK    4  A    between atoms: C_6  and  C_7
REMARK    5  A    between atoms: N_10  and  C_11
REMARK    6  A    between atoms: C_11  and  C_12
REMARK    7  A    between atoms: C_12  and  C_13
REMARK    8  A    between atoms: C_13  and  O_15
REMARK    9  A    between atoms: C_20  and  O_21
REMARK   10  A    between atoms: C_20  and  C_22
REMARK                            x       y       z     vdW  Elec       q    Type
REMARK                         _______ _______ _______ _____ _____    ______ ____
ROOT
ATOM      1  C   UNL     1      -0.051  11.017  20.516  0.00  0.00    +0.000 A 
ATOM      2  C   UNL     1      -0.783  11.696  21.503  0.00  0.00    +0.000 A 
ATOM      3  C   UNL     1      -2.088  12.205  21.282  0.00  0.00    +0.000 A 
ATOM      4  C   UNL     1      -2.655  12.013  20.016  0.00  0.00    +0.000 A 
ATOM      5  C   UNL     1      -1.882  11.355  19.018  0.00  0.00    +0.000 A 
ATOM      6  C   UNL     1      -0.596  10.868  19.251  0.00  0.00    +0.000 A 
ATOM      7  C   UNL     1      -2.645  11.251  17.700  0.00  0.00    +0.000 C 
ATOM      8  C   UNL     1      -3.966  11.906  18.067  0.00  0.00    +0.000 A 
ATOM      9  C   UNL     1      -5.069  12.092  17.236  0.00  0.00    +0.000 A 
ATOM     10  C   UNL     1      -6.199  12.711  17.760  0.00  0.00    +0.000 A 
ATOM     11  C   UNL     1      -6.219  13.115  19.097  0.00  0.00    +0.000 A 
ATOM     12  C   UNL     1      -5.112  12.900  19.930  0.00  0.00    +0.000 A 
ATOM     13  C   UNL     1      -3.958  12.325  19.418  0.00  0.00    +0.000 A 
ENDROOT
BRANCH   3  14
ATOM     14  C   UNL     1      -2.753  12.862  22.398  0.00  0.00    +0.000 A 
ATOM     15  C   UNL     1      -3.588  12.382  23.431  0.00  0.00    +0.000 A 
ATOM     16  N   UNL     1      -3.941  13.336  24.301  0.00  0.00    +0.000 NA
ATOM     17  N   UNL     1      -3.425  14.454  23.763  0.00  0.00    +0.000 N 
ATOM     18  C   UNL     1      -2.731  14.228  22.611  0.00  0.00    +0.000 A 
BRANCH  17  19
ATOM     19  C   UNL     1      -3.626  15.730  24.423  0.00  0.00    +0.000 C 
BRANCH  19  20
ATOM     20  C   UNL     1      -2.403  16.626  24.304  0.00  0.00    +0.000 C 
BRANCH  20  21
ATOM     21  C   UNL     1      -1.465  16.376  25.445  0.00  0.00    +0.000 C 
ATOM     22  O   UNL     1      -1.447  17.019  26.488  0.00  0.00    +0.000 OA
BRANCH  21  23
ATOM     23  O   UNL     1      -0.597  15.369  25.204  0.00  0.00    +0.000 OA
ATOM     24  H   UNL     1      -0.228  15.366  24.300  0.00  0.00    +0.000 HD
ENDBRANCH  21  23
ENDBRANCH  20  21
ENDBRANCH  19  20
ENDBRANCH  17  19
ENDBRANCH   3  14
BRANCH   7  25
ATOM     25  C   UNL     1      -2.782   9.790  17.158  0.00  0.00    +0.000 C 
ATOM     26  F   UNL     1      -3.437   8.962  18.007  0.00  0.00    +0.000 F 
ATOM     27  F   UNL     1      -3.401   9.698  15.961  0.00  0.00    +0.000 F 
ATOM     28  F   UNL     1      -1.539   9.252  16.998  0.00  0.00    +0.000 F 
ENDBRANCH   7  25
BRANCH   7  29
ATOM     29  O   UNL     1      -1.979  12.140  16.780  0.00  0.00    +0.000 OA
ATOM     30  H   UNL     1      -1.717  11.609  16.007  0.00  0.00    +0.000 HD
ENDBRANCH   7  29
BRANCH   1  31
ATOM     31  O   UNL     1       1.169  10.541  20.919  0.00  0.00    +0.000 OA
BRANCH  31  33
ATOM     32  C   UNL     1       1.156   8.159  21.167  0.00  0.00    +0.000 C 
ATOM     33  C   UNL     1       1.162   9.493  21.890  0.00  0.00    +0.000 C 
ENDBRANCH  31  33
ENDBRANCH   1  31
TORSDOF 9
ENDMDL
MODEL 7
REMARK VINA RESULT:      -6.9      6.713     10.730
REMARK  Name = 
REMARK  10 active torsions:
REMARK  status: ('A' for Active; 'I' for Inactive)
REMARK    1  A    between atoms: C_1  and  C_2
REMARK    2  A    between atoms: C_2  and  O_3
REMARK    3  A    between atoms: O_3  and  C_4
REMARK    4  A    between atoms: C_6  and  C_7
REMARK    5  A    between atoms: N_10  and  C_11
REMARK    6  A    between atoms: C_11  and  C_12
REMARK    7  A    between atoms: C_12  and  C_13
REMARK    8  A    between atoms: C_13  and  O_15
REMARK    9  A    between atoms: C_20  and  O_21
REMARK   10  A    between atoms: C_20  and  C_22
REMARK                            x       y       z     vdW  Elec       q    Type
REMARK                         _______ _______ _______ _____ _____    ______ ____
ROOT
ATOM      1  C   UNL     1      -3.987  11.213  16.669  0.00  0.00    +0.000 A 
ATOM      2  C   UNL     1      -2.706  11.005  17.204  0.00  0.00    +0.000 A 
ATOM      3  C   UNL     1      -2.358  11.360  18.532  0.00  0.00    +0.000 A 
ATOM      4  C   UNL     1      -3.350  11.943  19.331  0.00  0.00    +0.000 A 
ATOM      5  C   UNL     1      -4.632  12.177  18.759  0.00  0.00    +0.000 A 
ATOM      6  C   UNL     1      -4.954  11.830  17.447  0.00  0.00    +0.000 A 
ATOM      7  C   UNL     1      -5.579  12.834  19.761  0.00  0.00    +0.000 C 
ATOM      8  C   UNL     1      -4.693  12.924  20.993  0.00  0.00    +0.000 A 
ATOM      9  C   UNL     1      -5.039  13.447  22.237  0.00  0.00    +0.000 A 
ATOM     10  C   UNL     1      -4.086  13.435  23.251  0.00  0.00    +0.000 A 
ATOM     11  C   UNL     1      -2.821  12.891  23.016  0.00  0.00    +0.000 A 
ATOM     12  C   UNL     1      -2.493  12.346  21.767  0.00  0.00    +0.000 A 
ATOM     13  C   UNL     1      -3.412  12.387  20.728  0.00  0.00    +0.000 A 
ENDROOT
BRANCH   3  14
ATOM     14  C   UNL     1      -1.004  11.063  18.976  0.00  0.00    +0.000 A 
ATOM     15  C   UNL     1       0.060  11.883  19.414  0.00  0.00    +0.000 A 
ATOM     16  N   UNL     1       1.136  11.183  19.792  0.00  0.00    +0.000 NA
ATOM     17  N   UNL     1       0.804   9.916  19.490  0.00  0.00    +0.000 N 
ATOM     18  C   UNL     1      -0.452   9.796  18.973  0.00  0.00    +0.000 A 
BRANCH  17  19
ATOM     19  C   UNL     1       1.750   8.844  19.738  0.00  0.00    +0.000 C 
BRANCH  19  20
ATOM     20  C   UNL     1       2.146   8.133  18.454  0.00  0.00    +0.000 C 
BRANCH  20  21
ATOM     21  C   UNL     1       2.606   6.738  18.755  0.00  0.00    +0.000 C 
ATOM     22  O   UNL     1       2.946   5.918  17.911  0.00  0.00    +0.000 OA
BRANCH  21  23
ATOM     23  O   UNL     1       2.585   6.450  20.075  0.00  0.00    +0.000 OA
ATOM     24  H   UNL     1       2.866   5.541  20.292  0.00  0.00    +0.000 HD
ENDBRANCH  21  23
ENDBRANCH  20  21
ENDBRANCH  19  20
ENDBRANCH  17  19
ENDBRANCH   3  14
BRANCH   7  25
ATOM     25  C   UNL     1      -6.912  12.047  19.985  0.00  0.00    +0.000 C 
ATOM     26  F   UNL     1      -7.680  12.565  20.973  0.00  0.00    +0.000 F 
ATOM     27  F   UNL     1      -7.691  11.952  18.887  0.00  0.00    +0.000 F 
ATOM     28  F   UNL     1      -6.620  10.771  20.370  0.00  0.00    +0.000 F 
ENDBRANCH   7  25
BRANCH   7  29
ATOM     29  O   UNL     1      -5.783  14.183  19.294  0.00  0.00    +0.000 OA
ATOM     30  H   UNL     1      -6.284  14.125  18.460  0.00  0.00    +0.000 HD
ENDBRANCH   7  29
BRANCH   1  31
ATOM     31  O   UNL     1      -4.166  10.756  15.390  0.00  0.00    +0.000 OA
BRANCH  31  33
ATOM     32  C   UNL     1      -3.394   9.823  13.323  0.00  0.00    +0.000 C 
ATOM     33  C   UNL     1      -3.048  10.120  14.771  0.00  0.00    +0.000 C 
ENDBRANCH  31  33
ENDBRANCH   1  31
TORSDOF 9
ENDMDL
MODEL 8
REMARK VINA RESULT:      -6.9      5.900      9.425
REMARK  Name = 
REMARK  10 active torsions:
REMARK  status: ('A' for Active; 'I' for Inactive)
REMARK    1  A    between atoms: C_1  and  C_2
REMARK    2  A    between atoms: C_2  and  O_3
REMARK    3  A    between atoms: O_3  and  C_4
REMARK    4  A    between atoms: C_6  and  C_7
REMARK    5  A    between atoms: N_10  and  C_11
REMARK    6  A    between atoms: C_11  and  C_12
REMARK    7  A    between atoms: C_12  and  C_13
REMARK    8  A    between atoms: C_13  and  O_15
REMARK    9  A    between atoms: C_20  and  O_21
REMARK   10  A    between atoms: C_20  and  C_22
REMARK                            x       y       z     vdW  Elec       q    Type
REMARK                         _______ _______ _______ _____ _____    ______ ____
ROOT
ATOM      1  C   UNL     1       0.170  10.508  19.727  0.00  0.00    +0.000 A 
ATOM      2  C   UNL     1      -0.385  11.212  20.807  0.00  0.00    +0.000 A 
ATOM      3  C   UNL     1      -1.659  11.831  20.752  0.00  0.00    +0.000 A 
ATOM      4  C   UNL     1      -2.382  11.726  19.557  0.00  0.00    +0.000 A 
ATOM      5  C   UNL     1      -1.787  11.039  18.462  0.00  0.00    +0.000 A 
ATOM      6  C   UNL     1      -0.528  10.443  18.531  0.00  0.00    +0.000 A 
ATOM      7  C   UNL     1      -2.703  11.038  17.240  0.00  0.00    +0.000 C 
ATOM      8  C   UNL     1      -3.913  11.786  17.774  0.00  0.00    +0.000 A 
ATOM      9  C   UNL     1      -5.085  12.086  17.083  0.00  0.00    +0.000 A 
ATOM     10  C   UNL     1      -6.092  12.777  17.750  0.00  0.00    +0.000 A 
ATOM     11  C   UNL     1      -5.923  13.139  19.088  0.00  0.00    +0.000 A 
ATOM     12  C   UNL     1      -4.750  12.810  19.781  0.00  0.00    +0.000 A 
ATOM     13  C   UNL     1      -3.715  12.160  19.124  0.00  0.00    +0.000 A 
ENDROOT
BRANCH   3  14
ATOM     14  C   UNL     1      -2.134  12.504  21.953  0.00  0.00    +0.000 A 
ATOM     15  C   UNL     1      -1.503  13.363  22.880  0.00  0.00    +0.000 A 
ATOM     16  N   UNL     1      -2.338  13.813  23.824  0.00  0.00    +0.000 NA
ATOM     17  N   UNL     1      -3.481  13.154  23.568  0.00  0.00    +0.000 N 
ATOM     18  C   UNL     1      -3.401  12.338  22.478  0.00  0.00    +0.000 A 
BRANCH  17  19
ATOM     19  C   UNL     1      -4.640  13.365  24.416  0.00  0.00    +0.000 C 
BRANCH  19  20
ATOM     20  C   UNL     1      -5.894  13.633  23.601  0.00  0.00    +0.000 C 
BRANCH  20  21
ATOM     21  C   UNL     1      -7.044  12.839  24.143  0.00  0.00    +0.000 C 
ATOM     22  O   UNL     1      -7.214  11.640  23.957  0.00  0.00    +0.000 OA
BRANCH  21  23
ATOM     23  O   UNL     1      -7.916  13.591  24.851  0.00  0.00    +0.000 OA
ATOM     24  H   UNL     1      -7.562  14.455  25.136  0.00  0.00    +0.000 HD
ENDBRANCH  21  23
ENDBRANCH  20  21
ENDBRANCH  19  20
ENDBRANCH  17  19
ENDBRANCH   3  14
BRANCH   7  25
ATOM     25  C   UNL     1      -3.024   9.611  16.687  0.00  0.00    +0.000 C 
ATOM     26  F   UNL     1      -3.828   9.626  15.597  0.00  0.00    +0.000 F 
ATOM     27  F   UNL     1      -1.933   8.884  16.363  0.00  0.00    +0.000 F 
ATOM     28  F   UNL     1      -3.698   8.902  17.638  0.00  0.00    +0.000 F 
ENDBRANCH   7  25
BRANCH   7  29
ATOM     29  O   UNL     1      -2.075  11.900  16.268  0.00  0.00    +0.000 OA
ATOM     30  H   UNL     1      -2.558  11.784  15.430  0.00  0.00    +0.000 HD
ENDBRANCH   7  29
BRANCH   1  31
ATOM     31  O   UNL     1       1.384   9.922  19.973  0.00  0.00    +0.000 OA
BRANCH  31  33
ATOM     32  C   UNL     1       2.071   7.655  19.623  0.00  0.00    +0.000 C 
ATOM     33  C   UNL     1       1.363   8.619  20.557  0.00  0.00    +0.000 C 
ENDBRANCH  31  33
ENDBRANCH   1  31
TORSDOF 9
ENDMDL
MODEL 9
REMARK VINA RESULT:      -6.8      7.099     10.079
REMARK  Name = 
REMARK  10 active torsions:
REMARK  status: ('A' for Active; 'I' for Inactive)
REMARK    1  A    between atoms: C_1  and  C_2
REMARK    2  A    between atoms: C_2  and  O_3
REMARK    3  A    between atoms: O_3  and  C_4
REMARK    4  A    between atoms: C_6  and  C_7
REMARK    5  A    between atoms: N_10  and  C_11
REMARK    6  A    between atoms: C_11  and  C_12
REMARK    7  A    between atoms: C_12  and  C_13
REMARK    8  A    between atoms: C_13  and  O_15
REMARK    9  A    between atoms: C_20  and  O_21
REMARK   10  A    between atoms: C_20  and  C_22
REMARK                            x       y       z     vdW  Elec       q    Type
REMARK                         _______ _______ _______ _____ _____    ______ ____
ROOT
ATOM      1  C   UNL     1      -0.452  11.618  20.902  0.00  0.00    +0.000 A 
ATOM      2  C   UNL     1      -1.371  12.313  21.704  0.00  0.00    +0.000 A 
ATOM      3  C   UNL     1      -2.669  12.670  21.259  0.00  0.00    +0.000 A 
ATOM      4  C   UNL     1      -3.033  12.305  19.956  0.00  0.00    +0.000 A 
ATOM      5  C   UNL     1      -2.074  11.633  19.147  0.00  0.00    +0.000 A 
ATOM      6  C   UNL     1      -0.798  11.297  19.599  0.00  0.00    +0.000 A 
ATOM      7  C   UNL     1      -2.631  11.330  17.758  0.00  0.00    +0.000 C 
ATOM      8  C   UNL     1      -4.040  11.887  17.874  0.00  0.00    +0.000 A 
ATOM      9  C   UNL     1      -5.026  11.886  16.889  0.00  0.00    +0.000 A 
ATOM     10  C   UNL     1      -6.266  12.440  17.189  0.00  0.00    +0.000 A 
ATOM     11  C   UNL     1      -6.509  12.966  18.460  0.00  0.00    +0.000 A 
ATOM     12  C   UNL     1      -5.517  12.939  19.451  0.00  0.00    +0.000 A 
ATOM     13  C   UNL     1      -4.259  12.432  19.161  0.00  0.00    +0.000 A 
ENDROOT
BRANCH   3  14
ATOM     14  C   UNL     1      -3.537  13.364  22.199  0.00  0.00    +0.000 A 
ATOM     15  C   UNL     1      -4.361  12.910  23.253  0.00  0.00    +0.000 A 
ATOM     16  N   UNL     1      -4.955  13.909  23.916  0.00  0.00    +0.000 NA
ATOM     17  N   UNL     1      -4.601  15.001  23.217  0.00  0.00    +0.000 N 
ATOM     18  C   UNL     1      -3.778  14.724  22.165  0.00  0.00    +0.000 A 
BRANCH  17  19
ATOM     19  C   UNL     1      -5.085  16.307  23.625  0.00  0.00    +0.000 C 
BRANCH  19  20
ATOM     20  C   UNL     1      -4.559  16.700  24.996  0.00  0.00    +0.000 C 
BRANCH  20  21
ATOM     21  C   UNL     1      -3.063  16.788  24.972  0.00  0.00    +0.000 C 
ATOM     22  O   UNL     1      -2.312  16.084  25.635  0.00  0.00    +0.000 OA
BRANCH  21  23
ATOM     23  O   UNL     1      -2.606  17.761  24.153  0.00  0.00    +0.000 OA
ATOM     24  H   UNL     1      -2.504  17.486  23.222  0.00  0.00    +0.000 HD
ENDBRANCH  21  23
ENDBRANCH  20  21
ENDBRANCH  19  20
ENDBRANCH  17  19
ENDBRANCH   3  14
BRANCH   7  25
ATOM     25  C   UNL     1      -2.569   9.818  17.363  0.00  0.00    +0.000 C 
ATOM     26  F   UNL     1      -1.310   9.321  17.339  0.00  0.00    +0.000 F 
ATOM     27  F   UNL     1      -3.300   9.007  18.159  0.00  0.00    +0.000 F 
ATOM     28  F   UNL     1      -3.055   9.665  16.097  0.00  0.00    +0.000 F 
ENDBRANCH   7  25
BRANCH   7  29
ATOM     29  O   UNL     1      -1.917  12.188  16.844  0.00  0.00    +0.000 OA
ATOM     30  H   UNL     1      -1.172  12.576  17.338  0.00  0.00    +0.000 HD
ENDBRANCH   7  29
BRANCH   1  31
ATOM     31  O   UNL     1       0.733  11.302  21.512  0.00  0.00    +0.000 OA
BRANCH  31  33
ATOM     32  C   UNL     1       0.255   9.295  22.729  0.00  0.00    +0.000 C 
ATOM     33  C   UNL     1       1.061   9.915  21.602  0.00  0.00    +0.000 C 
ENDBRANCH  31  33
ENDBRANCH   1  31
TORSDOF 9
ENDMDL
