MODEL 1
REMARK VINA RESULT:      -6.9      0.000      0.000
REMARK  Name = 
REMARK  10 active torsions:
REMARK  status: ('A' for Active; 'I' for Inactive)
REMARK    1  A    between atoms: C_1  and  O_2
REMARK    2  A    between atoms: O_2  and  C_3
REMARK    3  A    between atoms: C_7  and  C_8
REMARK    4  A    between atoms: C_8  and  C_9
REMARK    5  A    between atoms: C_8  and  N_17
REMARK    6  A    between atoms: N_11  and  C_12
REMARK    7  A    between atoms: N_17  and  C_25
REMARK    8  A    between atoms: C_18  and  C_20
REMARK    9  A    between atoms: C_31  and  O_32
REMARK   10  A    between atoms: O_32  and  C_33
REMARK                            x       y       z     vdW  Elec       q    Type
REMARK                         _______ _______ _______ _____ _____    ______ ____
ROOT
ATOM      1  C   UNL     1      -1.192  13.405  21.181  0.00  0.00    +0.000 C 
ENDROOT
BRANCH   1   6
ATOM      2  C   UNL     1       0.834  10.241  20.981  0.00  0.00    +0.000 A 
ATOM      3  C   UNL     1       0.180   9.519  22.104  0.00  0.00    +0.000 A 
ATOM      4  C   UNL     1      -0.797  10.089  22.916  0.00  0.00    +0.000 A 
ATOM      5  C   UNL     1      -1.265  11.332  22.602  0.00  0.00    +0.000 A 
ATOM      6  C   UNL     1      -0.439  12.155  21.722  0.00  0.00    +0.000 A 
ATOM      7  C   UNL     1       0.743  11.735  21.017  0.00  0.00    +0.000 A 
BRANCH   2   9
ATOM      8  C   UNL     1       1.761   9.937  18.190  0.00  0.00    +0.000 C 
ATOM      9  O   UNL     1       1.204   9.501  19.631  0.00  0.00    +0.000 OA
ENDBRANCH   2   9
BRANCH   7  10
ATOM     10  O   UNL     1       1.490  12.731  20.383  0.00  0.00    +0.000 OA
ATOM     11  C   UNL     1       2.552  13.618  20.784  0.00  0.00    +0.000 C 
ENDBRANCH   7  10
ENDBRANCH   1   6
BRANCH   1  12
ATOM     12  C   UNL     1      -1.215  13.033  19.601  0.00  0.00    +0.000 C 
ATOM     13  O   UNL     1      -0.828  13.806  18.702  0.00  0.00    +0.000 OA
ATOM     14  N   UNL     1      -1.919  11.853  19.302  0.00  0.00    +0.000 N 
ATOM     15  H   UNL     1      -2.525  11.447  19.990  0.00  0.00    +0.000 HD
BRANCH  14  16
ATOM     16  C   UNL     1      -2.157  11.478  17.921  0.00  0.00    +0.000 C 
ATOM     17  C   UNL     1      -1.857  10.007  17.703  0.00  0.00    +0.000 C 
ATOM     18  C   UNL     1      -2.438   9.759  16.323  0.00  0.00    +0.000 C 
ATOM     19  C   UNL     1      -3.646  10.695  16.214  0.00  0.00    +0.000 C 
ATOM     20  C   UNL     1      -3.607  11.589  17.458  0.00  0.00    +0.000 C 
ENDBRANCH  14  16
ENDBRANCH   1  12
BRANCH   1  21
ATOM     21  N   UNL     1      -2.499  13.870  21.985  0.00  0.00    +0.000 N 
ATOM     22  C   UNL     1      -3.877  13.193  21.756  0.00  0.00    +0.000 C 
ATOM     23  O   UNL     1      -3.955  12.408  20.921  0.00  0.00    +0.000 OA
BRANCH  21  24
ATOM     24  C   UNL     1      -2.231  14.809  23.026  0.00  0.00    +0.000 A 
ATOM     25  C   UNL     1      -1.853  14.435  24.333  0.00  0.00    +0.000 A 
ATOM     26  C   UNL     1      -1.760  15.402  25.372  0.00  0.00    +0.000 A 
ATOM     27  C   UNL     1      -1.939  16.740  25.123  0.00  0.00    +0.000 A 
ATOM     28  C   UNL     1      -2.219  17.140  23.819  0.00  0.00    +0.000 A 
ATOM     29  C   UNL     1      -2.357  16.177  22.795  0.00  0.00    +0.000 A 
ENDBRANCH  21  24
BRANCH  22  30
ATOM     30  C   UNL     1      -5.332  13.498  22.646  0.00  0.00    +0.000 A 
ATOM     31  C   UNL     1      -5.836  14.808  23.102  0.00  0.00    +0.000 A 
ATOM     32  C   UNL     1      -7.148  14.607  24.021  0.00  0.00    +0.000 A 
ATOM     33  C   UNL     1      -7.354  13.203  24.193  0.00  0.00    +0.000 A 
ATOM     34  O   UNL     1      -6.293  12.568  23.353  0.00  0.00    +0.000 OA
ENDBRANCH  22  30
ENDBRANCH   1  21
TORSDOF 8
ENDMDL
MODEL 2
REMARK VINA RESULT:      -6.6      1.794      3.106
REMARK  Name = 
REMARK  10 active torsions:
REMARK  status: ('A' for Active; 'I' for Inactive)
REMARK    1  A    between atoms: C_1  and  O_2
REMARK    2  A    between atoms: O_2  and  C_3
REMARK    3  A    between atoms: C_7  and  C_8
REMARK    4  A    between atoms: C_8  and  C_9
REMARK    5  A    between atoms: C_8  and  N_17
REMARK    6  A    between atoms: N_11  and  C_12
REMARK    7  A    between atoms: N_17  and  C_25
REMARK    8  A    between atoms: C_18  and  C_20
REMARK    9  A    between atoms: C_31  and  O_32
REMARK   10  A    between atoms: O_32  and  C_33
REMARK                            x       y       z     vdW  Elec       q    Type
REMARK                         _______ _______ _______ _____ _____    ______ ____
ROOT
ATOM      1  C   UNL     1      -0.744  13.566  21.162  0.00  0.00    +0.000 C 
ENDROOT
BRANCH   1   6
ATOM      2  C   UNL     1       0.650  10.076  20.990  0.00  0.00    +0.000 A 
ATOM      3  C   UNL     1      -0.033   9.534  22.193  0.00  0.00    +0.000 A 
ATOM      4  C   UNL     1      -0.823  10.307  23.041  0.00  0.00    +0.000 A 
ATOM      5  C   UNL     1      -1.080  11.602  22.694  0.00  0.00    +0.000 A 
ATOM      6  C   UNL     1      -0.190  12.221  21.715  0.00  0.00    +0.000 A 
ATOM      7  C   UNL     1       0.836  11.561  20.951  0.00  0.00    +0.000 A 
BRANCH   2   9
ATOM      8  C   UNL     1       1.959   8.791  18.671  0.00  0.00    +0.000 C 
ATOM      9  O   UNL     1       0.771   9.227  19.659  0.00  0.00    +0.000 OA
ENDBRANCH   2   9
BRANCH   7  10
ATOM     10  O   UNL     1       1.699  12.375  20.213  0.00  0.00    +0.000 OA
ATOM     11  C   UNL     1       2.651  13.407  20.537  0.00  0.00    +0.000 C 
ENDBRANCH   7  10
ENDBRANCH   1   6
BRANCH   1  12
ATOM     12  C   UNL     1      -1.061  13.112  19.636  0.00  0.00    +0.000 C 
ATOM     13  O   UNL     1      -0.698  13.756  18.632  0.00  0.00    +0.000 OA
ATOM     14  N   UNL     1      -1.977  12.049  19.536  0.00  0.00    +0.000 N 
ATOM     15  H   UNL     1      -2.527  11.790  20.333  0.00  0.00    +0.000 HD
BRANCH  14  16
ATOM     16  C   UNL     1      -2.475  11.639  18.237  0.00  0.00    +0.000 C 
ATOM     17  C   UNL     1      -2.131  10.186  17.963  0.00  0.00    +0.000 C 
ATOM     18  C   UNL     1      -2.972   9.880  16.737  0.00  0.00    +0.000 C 
ATOM     19  C   UNL     1      -4.235  10.736  16.884  0.00  0.00    +0.000 C 
ATOM     20  C   UNL     1      -3.994  11.650  18.089  0.00  0.00    +0.000 C 
ENDBRANCH  14  16
ENDBRANCH   1  12
BRANCH   1  21
ATOM     21  N   UNL     1      -1.805  14.347  22.076  0.00  0.00    +0.000 N 
ATOM     22  C   UNL     1      -1.351  15.274  23.236  0.00  0.00    +0.000 C 
ATOM     23  O   UNL     1      -0.229  15.309  23.483  0.00  0.00    +0.000 OA
BRANCH  21  24
ATOM     24  C   UNL     1      -3.150  14.250  21.608  0.00  0.00    +0.000 A 
ATOM     25  C   UNL     1      -3.757  15.217  20.779  0.00  0.00    +0.000 A 
ATOM     26  C   UNL     1      -5.145  15.154  20.479  0.00  0.00    +0.000 A 
ATOM     27  C   UNL     1      -5.924  14.105  20.903  0.00  0.00    +0.000 A 
ATOM     28  C   UNL     1      -5.322  13.091  21.644  0.00  0.00    +0.000 A 
ATOM     29  C   UNL     1      -3.953  13.174  21.981  0.00  0.00    +0.000 A 
ENDBRANCH  21  24
BRANCH  22  30
ATOM     30  C   UNL     1      -2.373  16.278  24.209  0.00  0.00    +0.000 A 
ATOM     31  C   UNL     1      -3.779  16.023  24.575  0.00  0.00    +0.000 A 
ATOM     32  C   UNL     1      -4.384  17.293  25.368  0.00  0.00    +0.000 A 
ATOM     33  C   UNL     1      -3.390  18.320  25.377  0.00  0.00    +0.000 A 
ATOM     34  O   UNL     1      -2.205  17.693  24.716  0.00  0.00    +0.000 OA
ENDBRANCH  22  30
ENDBRANCH   1  21
TORSDOF 8
ENDMDL
MODEL 3
REMARK VINA RESULT:      -6.6      2.776      4.945
REMARK  Name = 
REMARK  10 active torsions:
REMARK  status: ('A' for Active; 'I' for Inactive)
REMARK    1  A    between atoms: C_1  and  O_2
REMARK    2  A    between atoms: O_2  and  C_3
REMARK    3  A    between atoms: C_7  and  C_8
REMARK    4  A    between atoms: C_8  and  C_9
REMARK    5  A    between atoms: C_8  and  N_17
REMARK    6  A    between atoms: N_11  and  C_12
REMARK    7  A    between atoms: N_17  and  C_25
REMARK    8  A    between atoms: C_18  and  C_20
REMARK    9  A    between atoms: C_31  and  O_32
REMARK   10  A    between atoms: O_32  and  C_33
REMARK                            x       y       z     vdW  Elec       q    Type
REMARK                         _______ _______ _______ _____ _____    ______ ____
ROOT
ATOM      1  C   UNL     1      -0.232  13.419  20.734  0.00  0.00    +0.000 C 
ENDROOT
BRANCH   1   6
ATOM      2  C   UNL     1      -0.692  10.216  18.815  0.00  0.00    +0.000 A 
ATOM      3  C   UNL     1      -2.062  10.488  18.307  0.00  0.00    +0.000 A 
ATOM      4  C   UNL     1      -2.801  11.614  18.659  0.00  0.00    +0.000 A 
ATOM      5  C   UNL     1      -2.202  12.578  19.418  0.00  0.00    +0.000 A 
ATOM      6  C   UNL     1      -1.005  12.195  20.162  0.00  0.00    +0.000 A 
ATOM      7  C   UNL     1      -0.292  10.950  20.057  0.00  0.00    +0.000 A 
BRANCH   2   9
ATOM      8  C   UNL     1       2.011   9.394  17.940  0.00  0.00    +0.000 C 
ATOM      9  O   UNL     1       0.414   9.563  17.889  0.00  0.00    +0.000 OA
ENDBRANCH   2   9
BRANCH   7  10
ATOM     10  O   UNL     1       0.713  10.713  20.998  0.00  0.00    +0.000 OA
ATOM     11  C   UNL     1       0.989   9.671  21.953  0.00  0.00    +0.000 C 
ENDBRANCH   7  10
ENDBRANCH   1   6
BRANCH   1  12
ATOM     12  C   UNL     1      -0.046  14.274  19.365  0.00  0.00    +0.000 C 
ATOM     13  O   UNL     1       0.596  13.866  18.377  0.00  0.00    +0.000 OA
ATOM     14  N   UNL     1      -0.477  15.609  19.463  0.00  0.00    +0.000 N 
ATOM     15  H   UNL     1      -0.651  16.010  20.365  0.00  0.00    +0.000 HD
BRANCH  14  16
ATOM     16  C   UNL     1      -0.231  16.534  18.374  0.00  0.00    +0.000 C 
ATOM     17  C   UNL     1      -1.267  17.642  18.364  0.00  0.00    +0.000 C 
ATOM     18  C   UNL     1      -0.675  18.630  17.375  0.00  0.00    +0.000 C 
ATOM     19  C   UNL     1       0.845  18.503  17.530  0.00  0.00    +0.000 C 
ATOM     20  C   UNL     1       1.080  17.311  18.463  0.00  0.00    +0.000 C 
ENDBRANCH  14  16
ENDBRANCH   1  12
BRANCH   1  21
ATOM     21  N   UNL     1      -0.790  14.063  22.092  0.00  0.00    +0.000 N 
ATOM     22  C   UNL     1       0.008  15.147  22.866  0.00  0.00    +0.000 C 
ATOM     23  O   UNL     1       1.061  15.407  22.486  0.00  0.00    +0.000 OA
BRANCH  21  24
ATOM     24  C   UNL     1      -2.132  13.684  22.401  0.00  0.00    +0.000 A 
ATOM     25  C   UNL     1      -3.265  14.378  21.925  0.00  0.00    +0.000 A 
ATOM     26  C   UNL     1      -4.568  14.057  22.395  0.00  0.00    +0.000 A 
ATOM     27  C   UNL     1      -4.783  13.006  23.252  0.00  0.00    +0.000 A 
ATOM     28  C   UNL     1      -3.686  12.249  23.659  0.00  0.00    +0.000 A 
ATOM     29  C   UNL     1      -2.386  12.593  23.228  0.00  0.00    +0.000 A 
ENDBRANCH  21  24
BRANCH  22  30
ATOM     30  C   UNL     1      -0.531  16.022  24.260  0.00  0.00    +0.000 A 
ATOM     31  C   UNL     1      -1.199  17.338  24.278  0.00  0.00    +0.000 A 
ATOM     32  C   UNL     1      -1.390  17.840  25.801  0.00  0.00    +0.000 A 
ATOM     33  C   UNL     1      -0.754  16.891  26.660  0.00  0.00    +0.000 A 
ATOM     34  O   UNL     1      -0.281  15.815  25.737  0.00  0.00    +0.000 OA
ENDBRANCH  22  30
ENDBRANCH   1  21
TORSDOF 8
ENDMDL
MODEL 4
REMARK VINA RESULT:      -6.6      2.699      4.935
REMARK  Name = 
REMARK  10 active torsions:
REMARK  status: ('A' for Active; 'I' for Inactive)
REMARK    1  A    between atoms: C_1  and  O_2
REMARK    2  A    between atoms: O_2  and  C_3
REMARK    3  A    between atoms: C_7  and  C_8
REMARK    4  A    between atoms: C_8  and  C_9
REMARK    5  A    between atoms: C_8  and  N_17
REMARK    6  A    between atoms: N_11  and  C_12
REMARK    7  A    between atoms: N_17  and  C_25
REMARK    8  A    between atoms: C_18  and  C_20
REMARK    9  A    between atoms: C_31  and  O_32
REMARK   10  A    between atoms: O_32  and  C_33
REMARK                            x       y       z     vdW  Elec       q    Type
REMARK                         _______ _______ _______ _____ _____    ______ ____
ROOT
ATOM      1  C   UNL     1       0.246  13.033  18.843  0.00  0.00    +0.000 C 
ENDROOT
BRANCH   1   6
ATOM      2  C   UNL     1       2.287  16.115  19.545  0.00  0.00    +0.000 A 
ATOM      3  C   UNL     1       3.076  15.572  20.682  0.00  0.00    +0.000 A 
ATOM      4  C   UNL     1       2.869  14.306  21.223  0.00  0.00    +0.000 A 
ATOM      5  C   UNL     1       1.978  13.471  20.613  0.00  0.00    +0.000 A 
ATOM      6  C   UNL     1       0.999  14.080  19.715  0.00  0.00    +0.000 A 
ATOM      7  C   UNL     1       0.973  15.451  19.278  0.00  0.00    +0.000 A 
BRANCH   2   9
ATOM      8  C   UNL     1       3.010  17.018  16.823  0.00  0.00    +0.000 C 
ATOM      9  O   UNL     1       2.963  17.012  18.428  0.00  0.00    +0.000 OA
ENDBRANCH   2   9
BRANCH   7  10
ATOM     10  O   UNL     1      -0.160  15.870  18.576  0.00  0.00    +0.000 OA
ATOM     11  C   UNL     1      -0.802  17.139  18.344  0.00  0.00    +0.000 C 
ENDBRANCH   7  10
ENDBRANCH   1   6
BRANCH   1  12
ATOM     12  C   UNL     1       1.383  11.875  18.787  0.00  0.00    +0.000 C 
ATOM     13  O   UNL     1       2.469  11.999  18.187  0.00  0.00    +0.000 OA
ATOM     14  N   UNL     1       0.953  10.629  19.279  0.00  0.00    +0.000 N 
ATOM     15  H   UNL     1      -0.026  10.460  19.417  0.00  0.00    +0.000 HD
BRANCH  14  16
ATOM     16  C   UNL     1       1.805   9.463  19.149  0.00  0.00    +0.000 C 
ATOM     17  C   UNL     1       1.433   8.407  20.173  0.00  0.00    +0.000 C 
ATOM     18  C   UNL     1       2.209   7.197  19.688  0.00  0.00    +0.000 C 
ATOM     19  C   UNL     1       2.255   7.326  18.161  0.00  0.00    +0.000 C 
ATOM     20  C   UNL     1       1.671   8.703  17.831  0.00  0.00    +0.000 C 
ENDBRANCH  14  16
ENDBRANCH   1  12
BRANCH   1  21
ATOM     21  N   UNL     1      -1.282  12.735  19.222  0.00  0.00    +0.000 N 
ATOM     22  C   UNL     1      -2.269  12.121  18.193  0.00  0.00    +0.000 C 
ATOM     23  O   UNL     1      -1.895  11.974  17.116  0.00  0.00    +0.000 OA
BRANCH  21  24
ATOM     24  C   UNL     1      -1.578  12.912  20.607  0.00  0.00    +0.000 A 
ATOM     25  C   UNL     1      -1.350  11.920  21.585  0.00  0.00    +0.000 A 
ATOM     26  C   UNL     1      -1.814  12.088  22.919  0.00  0.00    +0.000 A 
ATOM     27  C   UNL     1      -2.414  13.254  23.327  0.00  0.00    +0.000 A 
ATOM     28  C   UNL     1      -2.564  14.283  22.400  0.00  0.00    +0.000 A 
ATOM     29  C   UNL     1      -2.144  14.100  21.063  0.00  0.00    +0.000 A 
ENDBRANCH  21  24
BRANCH  22  30
ATOM     30  C   UNL     1      -3.899  11.621  18.502  0.00  0.00    +0.000 A 
ATOM     31  C   UNL     1      -4.856  12.246  19.435  0.00  0.00    +0.000 A 
ATOM     32  C   UNL     1      -6.207  11.363  19.515  0.00  0.00    +0.000 A 
ATOM     33  C   UNL     1      -6.010  10.187  18.728  0.00  0.00    +0.000 A 
ATOM     34  O   UNL     1      -4.658  10.371  18.118  0.00  0.00    +0.000 OA
ENDBRANCH  22  30
ENDBRANCH   1  21
TORSDOF 8
ENDMDL
MODEL 5
REMARK VINA RESULT:      -6.6      2.135      7.645
REMARK  Name = 
REMARK  10 active torsions:
REMARK  status: ('A' for Active; 'I' for Inactive)
REMARK    1  A    between atoms: C_1  and  O_2
REMARK    2  A    between atoms: O_2  and  C_3
REMARK    3  A    between atoms: C_7  and  C_8
REMARK    4  A    between atoms: C_8  and  C_9
REMARK    5  A    between atoms: C_8  and  N_17
REMARK    6  A    between atoms: N_11  and  C_12
REMARK    7  A    between atoms: N_17  and  C_25
REMARK    8  A    between atoms: C_18  and  C_20
REMARK    9  A    between atoms: C_31  and  O_32
REMARK   10  A    between atoms: O_32  and  C_33
REMARK                            x       y       z     vdW  Elec       q    Type
REMARK                         _______ _______ _______ _____ _____    ______ ____
ROOT
ATOM      1  C   UNL     1      -2.094  12.911  20.006  0.00  0.00    +0.000 C 
ENDROOT
BRANCH   1   6
ATOM      2  C   UNL     1      -4.846  13.091  22.564  0.00  0.00    +0.000 A 
ATOM      3  C   UNL     1      -4.027  12.752  23.757  0.00  0.00    +0.000 A 
ATOM      4  C   UNL     1      -2.681  12.402  23.688  0.00  0.00    +0.000 A 
ATOM      5  C   UNL     1      -2.045  12.482  22.483  0.00  0.00    +0.000 A 
ATOM      6  C   UNL     1      -2.883  12.509  21.286  0.00  0.00    +0.000 A 
ATOM      7  C   UNL     1      -4.317  12.622  21.246  0.00  0.00    +0.000 A 
BRANCH   2   9
ATOM      8  C   UNL     1      -6.316  15.432  23.618  0.00  0.00    +0.000 C 
ATOM      9  O   UNL     1      -5.944  14.232  22.617  0.00  0.00    +0.000 OA
ENDBRANCH   2   9
BRANCH   7  10
ATOM     10  O   UNL     1      -4.933  12.432  20.006  0.00  0.00    +0.000 OA
ATOM     11  C   UNL     1      -6.295  12.410  19.539  0.00  0.00    +0.000 C 
ENDBRANCH   7  10
ENDBRANCH   1   6
BRANCH   1  12
ATOM     12  C   UNL     1      -1.452  14.310  20.523  0.00  0.00    +0.000 C 
ATOM     13  O   UNL     1      -2.102  15.193  21.117  0.00  0.00    +0.000 OA
ATOM     14  N   UNL     1      -0.150  14.550  20.049  0.00  0.00    +0.000 N 
ATOM     15  H   UNL     1       0.211  14.005  19.288  0.00  0.00    +0.000 HD
BRANCH  14  16
ATOM     16  C   UNL     1       0.491  15.826  20.299  0.00  0.00    +0.000 C 
ATOM     17  C   UNL     1       1.805  15.634  21.035  0.00  0.00    +0.000 C 
ATOM     18  C   UNL     1       2.437  17.010  20.933  0.00  0.00    +0.000 C 
ATOM     19  C   UNL     1       1.964  17.579  19.590  0.00  0.00    +0.000 C 
ATOM     20  C   UNL     1       0.923  16.593  19.052  0.00  0.00    +0.000 C 
ENDBRANCH  14  16
ENDBRANCH   1  12
BRANCH   1  21
ATOM     21  N   UNL     1      -1.227  11.766  19.295  0.00  0.00    +0.000 N 
ATOM     22  C   UNL     1       0.110  11.264  19.904  0.00  0.00    +0.000 C 
ATOM     23  O   UNL     1       0.511  11.807  20.834  0.00  0.00    +0.000 OA
BRANCH  21  24
ATOM     24  C   UNL     1      -1.883  11.149  18.187  0.00  0.00    +0.000 A 
ATOM     25  C   UNL     1      -1.871  11.682  16.881  0.00  0.00    +0.000 A 
ATOM     26  C   UNL     1      -2.675  11.116  15.854  0.00  0.00    +0.000 A 
ATOM     27  C   UNL     1      -3.416   9.979  16.068  0.00  0.00    +0.000 A 
ATOM     28  C   UNL     1      -3.367   9.383  17.326  0.00  0.00    +0.000 A 
ATOM     29  C   UNL     1      -2.604   9.970  18.360  0.00  0.00    +0.000 A 
ENDBRANCH  21  24
BRANCH  22  30
ATOM     30  C   UNL     1       1.074   9.947  19.323  0.00  0.00    +0.000 A 
ATOM     31  C   UNL     1       1.461   9.680  17.924  0.00  0.00    +0.000 A 
ATOM     32  C   UNL     1       2.235   8.266  17.824  0.00  0.00    +0.000 A 
ATOM     33  C   UNL     1       2.213   7.661  19.119  0.00  0.00    +0.000 A 
ATOM     34  O   UNL     1       1.551   8.677  19.992  0.00  0.00    +0.000 OA
ENDBRANCH  22  30
ENDBRANCH   1  21
TORSDOF 8
ENDMDL
MODEL 6
REMARK VINA RESULT:      -6.5      2.623      5.536
REMARK  Name = 
REMARK  10 active torsions:
REMARK  status: ('A' for Active; 'I' for Inactive)
REMARK    1  A    between atoms: C_1  and  O_2
REMARK    2  A    between atoms: O_2  and  C_3
REMARK    3  A    between atoms: C_7  and  C_8
REMARK    4  A    between atoms: C_8  and  C_9
REMARK    5  A    between atoms: C_8  and  N_17
REMARK    6  A    between atoms: N_11  and  C_12
REMARK    7  A    between atoms: N_17  and  C_25
REMARK    8  A    between atoms: C_18  and  C_20
REMARK    9  A    between atoms: C_31  and  O_32
REMARK   10  A    between atoms: O_32  and  C_33
REMARK                            x       y       z     vdW  Elec       q    Type
REMARK                         _______ _______ _______ _____ _____    ______ ____
ROOT
ATOM      1  C   UNL     1      -3.888  13.202  21.725  0.00  0.00    +0.000 C 
ENDROOT
BRANCH   1   6
ATOM      2  C   UNL     1      -7.275  12.415  20.290  0.00  0.00    +0.000 A 
ATOM      3  C   UNL     1      -7.315  13.501  19.276  0.00  0.00    +0.000 A 
ATOM      4  C   UNL     1      -6.324  14.472  19.153  0.00  0.00    +0.000 A 
ATOM      5  C   UNL     1      -5.201  14.360  19.921  0.00  0.00    +0.000 A 
ATOM      6  C   UNL     1      -5.282  13.507  21.105  0.00  0.00    +0.000 A 
ATOM      7  C   UNL     1      -6.373  12.640  21.463  0.00  0.00    +0.000 A 
BRANCH   2   9
ATOM      8  C   UNL     1      -7.546   9.481  20.543  0.00  0.00    +0.000 C 
ATOM      9  O   UNL     1      -7.784  10.954  19.950  0.00  0.00    +0.000 OA
ENDBRANCH   2   9
BRANCH   7  10
ATOM     10  O   UNL     1      -6.331  12.060  22.733  0.00  0.00    +0.000 OA
ATOM     11  C   UNL     1      -7.044  12.260  23.968  0.00  0.00    +0.000 C 
ENDBRANCH   7  10
ENDBRANCH   1   6
BRANCH   1  12
ATOM     12  C   UNL     1      -3.061  12.878  20.366  0.00  0.00    +0.000 C 
ATOM     13  O   UNL     1      -2.068  13.531  19.987  0.00  0.00    +0.000 OA
ATOM     14  N   UNL     1      -3.689  11.941  19.526  0.00  0.00    +0.000 N 
ATOM     15  H   UNL     1      -4.651  11.704  19.676  0.00  0.00    +0.000 HD
BRANCH  14  16
ATOM     16  C   UNL     1      -3.148  11.669  18.208  0.00  0.00    +0.000 C 
ATOM     17  C   UNL     1      -2.461  10.316  18.176  0.00  0.00    +0.000 C 
ATOM     18  C   UNL     1      -2.240  10.100  16.690  0.00  0.00    +0.000 C 
ATOM     19  C   UNL     1      -3.423  10.786  15.997  0.00  0.00    +0.000 C 
ATOM     20  C   UNL     1      -4.183  11.538  17.094  0.00  0.00    +0.000 C 
ENDBRANCH  14  16
ENDBRANCH   1  12
BRANCH   1  21
ATOM     21  N   UNL     1      -3.355  14.213  22.848  0.00  0.00    +0.000 N 
ATOM     22  C   UNL     1      -1.982  14.004  23.544  0.00  0.00    +0.000 C 
ATOM     23  O   UNL     1      -1.400  13.045  23.298  0.00  0.00    +0.000 OA
BRANCH  21  24
ATOM     24  C   UNL     1      -4.158  15.384  22.999  0.00  0.00    +0.000 A 
ATOM     25  C   UNL     1      -5.264  15.461  23.873  0.00  0.00    +0.000 A 
ATOM     26  C   UNL     1      -6.125  16.593  23.862  0.00  0.00    +0.000 A 
ATOM     27  C   UNL     1      -5.862  17.686  23.075  0.00  0.00    +0.000 A 
ATOM     28  C   UNL     1      -4.722  17.668  22.275  0.00  0.00    +0.000 A 
ATOM     29  C   UNL     1      -3.889  16.527  22.251  0.00  0.00    +0.000 A 
ENDBRANCH  21  24
BRANCH  22  30
ATOM     30  C   UNL     1      -1.223  15.084  24.666  0.00  0.00    +0.000 A 
ATOM     31  C   UNL     1      -1.734  15.491  25.990  0.00  0.00    +0.000 A 
ATOM     32  C   UNL     1      -0.776  16.625  26.627  0.00  0.00    +0.000 A 
ATOM     33  C   UNL     1       0.219  16.956  25.656  0.00  0.00    +0.000 A 
ATOM     34  O   UNL     1      -0.044  16.019  24.522  0.00  0.00    +0.000 OA
ENDBRANCH  22  30
ENDBRANCH   1  21
TORSDOF 8
ENDMDL
MODEL 7
REMARK VINA RESULT:      -6.5      2.813      4.916
REMARK  Name = 
REMARK  10 active torsions:
REMARK  status: ('A' for Active; 'I' for Inactive)
REMARK    1  A    between atoms: C_1  and  O_2
REMARK    2  A    between atoms: O_2  and  C_3
REMARK    3  A    between atoms: C_7  and  C_8
REMARK    4  A    between atoms: C_8  and  C_9
REMARK    5  A    between atoms: C_8  and  N_17
REMARK    6  A    between atoms: N_11  and  C_12
REMARK    7  A    between atoms: N_17  and  C_25
REMARK    8  A    between atoms: C_18  and  C_20
REMARK    9  A    between atoms: C_31  and  O_32
REMARK   10  A    between atoms: O_32  and  C_33
REMARK                            x       y       z     vdW  Elec       q    Type
REMARK                         _______ _______ _______ _____ _____    ______ ____
ROOT
ATOM      1  C   UNL     1      -0.033  13.535  20.815  0.00  0.00    +0.000 C 
ENDROOT
BRANCH   1   6
ATOM      2  C   UNL     1      -0.284  10.063  19.387  0.00  0.00    +0.000 A 
ATOM      3  C   UNL     1      -1.323  10.348  18.363  0.00  0.00    +0.000 A 
ATOM      4  C   UNL     1      -1.951  11.584  18.230  0.00  0.00    +0.000 A 
ATOM      5  C   UNL     1      -1.515  12.625  18.999  0.00  0.00    +0.000 A 
ATOM      6  C   UNL     1      -0.737  12.295  20.191  0.00  0.00    +0.000 A 
ATOM      7  C   UNL     1      -0.240  10.995  20.558  0.00  0.00    +0.000 A 
BRANCH   2   9
ATOM      8  C   UNL     1       2.095   9.087  17.928  0.00  0.00    +0.000 C 
ATOM      9  O   UNL     1       0.960   9.139  19.062  0.00  0.00    +0.000 OA
ENDBRANCH   2   9
BRANCH   7  10
ATOM     10  O   UNL     1       0.314  10.865  21.834  0.00  0.00    +0.000 OA
ATOM     11  C   UNL     1       0.071  10.010  22.967  0.00  0.00    +0.000 C 
ENDBRANCH   7  10
ENDBRANCH   1   6
BRANCH   1  12
ATOM     12  C   UNL     1       0.285  14.366  19.457  0.00  0.00    +0.000 C 
ATOM     13  O   UNL     1       1.110  13.997  18.596  0.00  0.00    +0.000 OA
ATOM     14  N   UNL     1      -0.277  15.655  19.431  0.00  0.00    +0.000 N 
ATOM     15  H   UNL     1      -0.627  16.061  20.278  0.00  0.00    +0.000 HD
BRANCH  14  16
ATOM     16  C   UNL     1       0.050  16.569  18.354  0.00  0.00    +0.000 C 
ATOM     17  C   UNL     1      -1.089  17.541  18.108  0.00  0.00    +0.000 C 
ATOM     18  C   UNL     1      -0.449  18.564  17.187  0.00  0.00    +0.000 C 
ATOM     19  C   UNL     1       1.023  18.630  17.610  0.00  0.00    +0.000 C 
ATOM     20  C   UNL     1       1.225  17.505  18.629  0.00  0.00    +0.000 C 
ENDBRANCH  14  16
ENDBRANCH   1  12
BRANCH   1  21
ATOM     21  N   UNL     1      -0.729  14.198  22.097  0.00  0.00    +0.000 N 
ATOM     22  C   UNL     1       0.022  15.221  22.992  0.00  0.00    +0.000 C 
ATOM     23  O   UNL     1       1.130  15.417  22.762  0.00  0.00    +0.000 OA
BRANCH  21  24
ATOM     24  C   UNL     1      -2.121  13.902  22.215  0.00  0.00    +0.000 A 
ATOM     25  C   UNL     1      -2.632  12.875  23.037  0.00  0.00    +0.000 A 
ATOM     26  C   UNL     1      -4.008  12.518  22.990  0.00  0.00    +0.000 A 
ATOM     27  C   UNL     1      -4.904  13.217  22.220  0.00  0.00    +0.000 A 
ATOM     28  C   UNL     1      -4.436  14.297  21.474  0.00  0.00    +0.000 A 
ATOM     29  C   UNL     1      -3.062  14.624  21.484  0.00  0.00    +0.000 A 
ENDBRANCH  21  24
BRANCH  22  30
ATOM     30  C   UNL     1      -0.647  16.113  24.317  0.00  0.00    +0.000 A 
ATOM     31  C   UNL     1      -1.766  17.074  24.265  0.00  0.00    +0.000 A 
ATOM     32  C   UNL     1      -1.956  17.781  25.705  0.00  0.00    +0.000 A 
ATOM     33  C   UNL     1      -0.905  17.325  26.560  0.00  0.00    +0.000 A 
ATOM     34  O   UNL     1      -0.164  16.325  25.734  0.00  0.00    +0.000 OA
ENDBRANCH  22  30
ENDBRANCH   1  21
TORSDOF 8
ENDMDL
MODEL 8
REMARK VINA RESULT:      -6.4      2.168      7.600
REMARK  Name = 
REMARK  10 active torsions:
REMARK  status: ('A' for Active; 'I' for Inactive)
REMARK    1  A    between atoms: C_1  and  O_2
REMARK    2  A    between atoms: O_2  and  C_3
REMARK    3  A    between atoms: C_7  and  C_8
REMARK    4  A    between atoms: C_8  and  C_9
REMARK    5  A    between atoms: C_8  and  N_17
REMARK    6  A    between atoms: N_11  and  C_12
REMARK    7  A    between atoms: N_17  and  C_25
REMARK    8  A    between atoms: C_18  and  C_20
REMARK    9  A    between atoms: C_31  and  O_32
REMARK   10  A    between atoms: O_32  and  C_33
REMARK                            x       y       z     vdW  Elec       q    Type
REMARK                         _______ _______ _______ _____ _____    ______ ____
ROOT
ATOM      1  C   UNL     1      -2.607  12.956  19.988  0.00  0.00    +0.000 C 
ENDROOT
BRANCH   1   6
ATOM      2  C   UNL     1      -5.078  13.212  22.813  0.00  0.00    +0.000 A 
ATOM      3  C   UNL     1      -4.195  12.696  23.892  0.00  0.00    +0.000 A 
ATOM      4  C   UNL     1      -2.907  12.218  23.666  0.00  0.00    +0.000 A 
ATOM      5  C   UNL     1      -2.379  12.328  22.411  0.00  0.00    +0.000 A 
ATOM      6  C   UNL     1      -3.315  12.536  21.308  0.00  0.00    +0.000 A 
ATOM      7  C   UNL     1      -4.725  12.797  21.419  0.00  0.00    +0.000 A 
BRANCH   2   9
ATOM      8  C   UNL     1      -5.980  15.801  23.921  0.00  0.00    +0.000 C 
ATOM      9  O   UNL     1      -6.035  14.450  23.054  0.00  0.00    +0.000 OA
ENDBRANCH   2   9
BRANCH   7  10
ATOM     10  O   UNL     1      -5.469  12.772  20.236  0.00  0.00    +0.000 OA
ATOM     11  C   UNL     1      -6.462  13.627  19.639  0.00  0.00    +0.000 C 
ENDBRANCH   7  10
ENDBRANCH   1   6
BRANCH   1  12
ATOM     12  C   UNL     1      -2.010  14.392  20.456  0.00  0.00    +0.000 C 
ATOM     13  O   UNL     1      -2.567  15.135  21.290  0.00  0.00    +0.000 OA
ATOM     14  N   UNL     1      -0.927  14.841  19.680  0.00  0.00    +0.000 N 
ATOM     15  H   UNL     1      -0.732  14.404  18.799  0.00  0.00    +0.000 HD
BRANCH  14  16
ATOM     16  C   UNL     1      -0.391  16.173  19.881  0.00  0.00    +0.000 C 
ATOM     17  C   UNL     1       0.838  16.132  20.770  0.00  0.00    +0.000 C 
ATOM     18  C   UNL     1       1.400  17.533  20.612  0.00  0.00    +0.000 C 
ATOM     19  C   UNL     1       1.053  17.953  19.179  0.00  0.00    +0.000 C 
ATOM     20  C   UNL     1       0.137  16.859  18.623  0.00  0.00    +0.000 C 
ENDBRANCH  14  16
ENDBRANCH   1  12
BRANCH   1  21
ATOM     21  N   UNL     1      -1.718  11.843  19.252  0.00  0.00    +0.000 N 
ATOM     22  C   UNL     1      -0.350  11.386  19.826  0.00  0.00    +0.000 C 
ATOM     23  O   UNL     1       0.054  11.940  20.747  0.00  0.00    +0.000 OA
BRANCH  21  24
ATOM     24  C   UNL     1      -2.380  11.208  18.158  0.00  0.00    +0.000 A 
ATOM     25  C   UNL     1      -1.822  10.138  17.426  0.00  0.00    +0.000 A 
ATOM     26  C   UNL     1      -2.451   9.654  16.246  0.00  0.00    +0.000 A 
ATOM     27  C   UNL     1      -3.666  10.140  15.831  0.00  0.00    +0.000 A 
ATOM     28  C   UNL     1      -4.280  11.131  16.594  0.00  0.00    +0.000 A 
ATOM     29  C   UNL     1      -3.635  11.645  17.741  0.00  0.00    +0.000 A 
ENDBRANCH  21  24
BRANCH  22  30
ATOM     30  C   UNL     1       0.644  10.105  19.217  0.00  0.00    +0.000 A 
ATOM     31  C   UNL     1       1.074   8.893  19.942  0.00  0.00    +0.000 A 
ATOM     32  C   UNL     1       2.111   8.047  19.039  0.00  0.00    +0.000 A 
ATOM     33  C   UNL     1       2.371   8.796  17.849  0.00  0.00    +0.000 A 
ATOM     34  O   UNL     1       1.477   9.988  17.960  0.00  0.00    +0.000 OA
ENDBRANCH  22  30
ENDBRANCH   1  21
TORSDOF 8
ENDMDL
MODEL 9
REMARK VINA RESULT:      -6.3      2.245      4.324
REMARK  Name = 
REMARK  10 active torsions:
REMARK  status: ('A' for Active; 'I' for Inactive)
REMARK    1  A    between atoms: C_1  and  O_2
REMARK    2  A    between atoms: O_2  and  C_3
REMARK    3  A    between atoms: C_7  and  C_8
REMARK    4  A    between atoms: C_8  and  C_9
REMARK    5  A    between atoms: C_8  and  N_17
REMARK    6  A    between atoms: N_11  and  C_12
REMARK    7  A    between atoms: N_17  and  C_25
REMARK    8  A    between atoms: C_18  and  C_20
REMARK    9  A    between atoms: C_31  and  O_32
REMARK   10  A    between atoms: O_32  and  C_33
REMARK                            x       y       z     vdW  Elec       q    Type
REMARK                         _______ _______ _______ _____ _____    ______ ____
ROOT
ATOM      1  C   UNL     1      -1.279  12.878  21.576  0.00  0.00    +0.000 C 
ENDROOT
BRANCH   1   6
ATOM      2  C   UNL     1      -0.200  10.302  19.055  0.00  0.00    +0.000 A 
ATOM      3  C   UNL     1      -1.260  10.561  18.046  0.00  0.00    +0.000 A 
ATOM      4  C   UNL     1      -2.303  11.463  18.243  0.00  0.00    +0.000 A 
ATOM      5  C   UNL     1      -2.295  12.235  19.368  0.00  0.00    +0.000 A 
ATOM      6  C   UNL     1      -1.462  11.787  20.481  0.00  0.00    +0.000 A 
ATOM      7  C   UNL     1      -0.519  10.700  20.462  0.00  0.00    +0.000 A 
BRANCH   2   9
ATOM      8  C   UNL     1       2.154   8.801  18.081  0.00  0.00    +0.000 C 
ATOM      9  O   UNL     1       1.302  10.049  18.624  0.00  0.00    +0.000 OA
ENDBRANCH   2   9
BRANCH   7  10
ATOM     10  O   UNL     1       0.031  10.317  21.689  0.00  0.00    +0.000 OA
ATOM     11  C   UNL     1       0.916   9.268  22.124  0.00  0.00    +0.000 C 
ENDBRANCH   7  10
ENDBRANCH   1   6
BRANCH   1  12
ATOM     12  C   UNL     1       0.231  13.356  21.220  0.00  0.00    +0.000 C 
ATOM     13  O   UNL     1       1.109  13.575  22.079  0.00  0.00    +0.000 OA
ATOM     14  N   UNL     1       0.411  13.725  19.875  0.00  0.00    +0.000 N 
ATOM     15  H   UNL     1      -0.389  13.885  19.292  0.00  0.00    +0.000 HD
BRANCH  14  16
ATOM     16  C   UNL     1       1.662  14.319  19.445  0.00  0.00    +0.000 C 
ATOM     17  C   UNL     1       2.334  13.456  18.393  0.00  0.00    +0.000 C 
ATOM     18  C   UNL     1       3.430  14.371  17.877  0.00  0.00    +0.000 C 
ATOM     19  C   UNL     1       2.862  15.790  17.982  0.00  0.00    +0.000 C 
ATOM     20  C   UNL     1       1.533  15.663  18.734  0.00  0.00    +0.000 C 
ENDBRANCH  14  16
ENDBRANCH   1  12
BRANCH   1  21
ATOM     21  N   UNL     1      -2.490  13.906  21.788  0.00  0.00    +0.000 N 
ATOM     22  C   UNL     1      -2.531  15.275  21.056  0.00  0.00    +0.000 C 
ATOM     23  O   UNL     1      -1.616  15.572  20.428  0.00  0.00    +0.000 OA
BRANCH  21  24
ATOM     24  C   UNL     1      -3.576  13.371  22.545  0.00  0.00    +0.000 A 
ATOM     25  C   UNL     1      -4.897  13.280  22.054  0.00  0.00    +0.000 A 
ATOM     26  C   UNL     1      -5.967  12.892  22.906  0.00  0.00    +0.000 A 
ATOM     27  C   UNL     1      -5.745  12.502  24.204  0.00  0.00    +0.000 A 
ATOM     28  C   UNL     1      -4.435  12.494  24.679  0.00  0.00    +0.000 A 
ATOM     29  C   UNL     1      -3.376  12.922  23.848  0.00  0.00    +0.000 A 
ENDBRANCH  21  24
BRANCH  22  30
ATOM     30  C   UNL     1      -3.834  16.416  21.082  0.00  0.00    +0.000 A 
ATOM     31  C   UNL     1      -4.515  16.958  22.274  0.00  0.00    +0.000 A 
ATOM     32  C   UNL     1      -5.767  17.876  21.826  0.00  0.00    +0.000 A 
ATOM     33  C   UNL     1      -5.886  17.793  20.404  0.00  0.00    +0.000 A 
ATOM     34  O   UNL     1      -4.724  16.954  19.983  0.00  0.00    +0.000 OA
ENDBRANCH  22  30
ENDBRANCH   1  21
TORSDOF 8
ENDMDL
