MODEL 1
REMARK VINA RESULT:      -8.0      0.000      0.000
REMARK  Name = 
REMARK  12 active torsions:
REMARK  status: ('A' for Active; 'I' for Inactive)
REMARK    1  A    between atoms: C_1  and  C_2
REMARK    2  A    between atoms: C_5  and  O_6
REMARK    3  A    between atoms: O_6  and  C_7
REMARK    4  A    between atoms: C_7  and  C_8
REMARK    5  A    between atoms: C_9  and  C_10
REMARK    6  A    between atoms: C_14  and  C_15
REMARK    7  A    between atoms: C_15  and  C_16
REMARK    8  A    between atoms: C_16  and  C_17
REMARK    9  A    between atoms: C_17  and  O_18
REMARK   10  A    between atoms: O_18  and  C_19
REMARK   11  A    between atoms: C_22  and  C_23
REMARK   12  A    between atoms: N_26  and  C_27
REMARK                            x       y       z     vdW  Elec       q    Type
REMARK                         _______ _______ _______ _____ _____    ______ ____
ROOT
ATOM      1  C   UNL     1       6.600   5.886  16.994  0.00  0.00    +0.000 A 
ATOM      2  C   UNL     1       6.437   5.566  15.650  0.00  0.00    +0.000 A 
ATOM      3  C   UNL     1       5.787   4.400  15.299  0.00  0.00    +0.000 A 
ATOM      4  C   UNL     1       5.267   3.601  16.305  0.00  0.00    +0.000 A 
ATOM      5  C   UNL     1       5.435   3.934  17.666  0.00  0.00    +0.000 A 
ATOM      6  N   UNL     1       6.158   5.054  17.983  0.00  0.00    +0.000 N 
ATOM      7  C   UNL     1       6.506   5.409  19.380  0.00  0.00    +0.000 C 
ENDROOT
BRANCH   1   9
ATOM      8  C   UNL     1       7.785   8.275  17.590  0.00  0.00    +0.000 C 
ATOM      9  C   UNL     1       7.251   7.113  17.335  0.00  0.00    +0.000 C 
BRANCH   8  10
ATOM     10  C   UNL     1       8.407   9.630  17.887  0.00  0.00    +0.000 C 
BRANCH  10  11
ATOM     11  O   UNL     1       9.043   9.572  19.158  0.00  0.00    +0.000 OA
BRANCH  11  16
ATOM     12  C   UNL     1      11.001  14.656  20.766  0.00  0.00    +0.000 C 
ATOM     13  C   UNL     1      10.489  13.304  20.364  0.00  0.00    +0.000 A 
ATOM     14  C   UNL     1      10.577  12.865  19.040  0.00  0.00    +0.000 A 
ATOM     15  C   UNL     1      10.081  11.609  18.679  0.00  0.00    +0.000 A 
ATOM     16  C   UNL     1       9.507  10.770  19.634  0.00  0.00    +0.000 A 
ATOM     17  C   UNL     1       9.405  11.210  20.956  0.00  0.00    +0.000 A 
ATOM     18  C   UNL     1       9.896  12.470  21.317  0.00  0.00    +0.000 A 
ENDBRANCH  11  16
ENDBRANCH  10  11
ENDBRANCH   8  10
ENDBRANCH   1   9
BRANCH   5  19
ATOM     19  C   UNL     1       4.693   3.111  18.700  0.00  0.00    +0.000 C 
BRANCH  19  20
ATOM     20  C   UNL     1       3.663   2.122  18.149  0.00  0.00    +0.000 C 
BRANCH  20  21
ATOM     21  C   UNL     1       2.208   2.541  18.349  0.00  0.00    +0.000 C 
BRANCH  21  22
ATOM     22  O   UNL     1       2.075   3.802  17.697  0.00  0.00    +0.000 OA
BRANCH  22  23
ATOM     23  C   UNL     1       2.029   4.906  18.496  0.00  0.00    +0.000 A 
ATOM     24  C   UNL     1       2.440   6.185  18.125  0.00  0.00    +0.000 A 
ATOM     25  C   UNL     1       2.319   7.247  19.027  0.00  0.00    +0.000 A 
ATOM     26  C   UNL     1       1.783   7.042  20.302  0.00  0.00    +0.000 A 
ATOM     27  C   UNL     1       1.664   8.171  21.281  0.00  0.00    +0.000 C 
ATOM     28  C   UNL     1       1.349   5.761  20.658  0.00  0.00    +0.000 A 
ATOM     29  C   UNL     1       1.465   4.703  19.756  0.00  0.00    +0.000 A 
ENDBRANCH  22  23
ENDBRANCH  21  22
ENDBRANCH  20  21
ENDBRANCH  19  20
ENDBRANCH   5  19
TORSDOF 9
ENDMDL
MODEL 2
REMARK VINA RESULT:      -8.0      1.374      1.799
REMARK  Name = 
REMARK  12 active torsions:
REMARK  status: ('A' for Active; 'I' for Inactive)
REMARK    1  A    between atoms: C_1  and  C_2
REMARK    2  A    between atoms: C_5  and  O_6
REMARK    3  A    between atoms: O_6  and  C_7
REMARK    4  A    between atoms: C_7  and  C_8
REMARK    5  A    between atoms: C_9  and  C_10
REMARK    6  A    between atoms: C_14  and  C_15
REMARK    7  A    between atoms: C_15  and  C_16
REMARK    8  A    between atoms: C_16  and  C_17
REMARK    9  A    between atoms: C_17  and  O_18
REMARK   10  A    between atoms: O_18  and  C_19
REMARK   11  A    between atoms: C_22  and  C_23
REMARK   12  A    between atoms: N_26  and  C_27
REMARK                            x       y       z     vdW  Elec       q    Type
REMARK                         _______ _______ _______ _____ _____    ______ ____
ROOT
ATOM      1  C   UNL     1       6.631   6.089  17.040  0.00  0.00    +0.000 A 
ATOM      2  C   UNL     1       6.649   5.985  15.652  0.00  0.00    +0.000 A 
ATOM      3  C   UNL     1       5.918   4.992  15.033  0.00  0.00    +0.000 A 
ATOM      4  C   UNL     1       5.141   4.152  15.815  0.00  0.00    +0.000 A 
ATOM      5  C   UNL     1       5.128   4.267  17.222  0.00  0.00    +0.000 A 
ATOM      6  N   UNL     1       5.930   5.209  17.811  0.00  0.00    +0.000 N 
ATOM      7  C   UNL     1       6.088   5.312  19.282  0.00  0.00    +0.000 C 
ENDROOT
BRANCH   1   9
ATOM      8  C   UNL     1       8.079   8.129  18.140  0.00  0.00    +0.000 C 
ATOM      9  C   UNL     1       7.374   7.144  17.660  0.00  0.00    +0.000 C 
BRANCH   8  10
ATOM     10  C   UNL     1       8.901   9.279  18.700  0.00  0.00    +0.000 C 
BRANCH  10  11
ATOM     11  O   UNL     1       8.739  10.411  17.855  0.00  0.00    +0.000 OA
BRANCH  11  16
ATOM     12  C   UNL     1      12.131  14.829  18.968  0.00  0.00    +0.000 C 
ATOM     13  C   UNL     1      11.224  13.665  18.696  0.00  0.00    +0.000 A 
ATOM     14  C   UNL     1      11.652  12.583  17.924  0.00  0.00    +0.000 A 
ATOM     15  C   UNL     1      10.790  11.513  17.666  0.00  0.00    +0.000 A 
ATOM     16  C   UNL     1       9.496  11.503  18.188  0.00  0.00    +0.000 A 
ATOM     17  C   UNL     1       9.058  12.590  18.949  0.00  0.00    +0.000 A 
ATOM     18  C   UNL     1       9.920  13.663  19.202  0.00  0.00    +0.000 A 
ENDBRANCH  11  16
ENDBRANCH  10  11
ENDBRANCH   8  10
ENDBRANCH   1   9
BRANCH   5  19
ATOM     19  C   UNL     1       4.125   3.434  17.997  0.00  0.00    +0.000 C 
BRANCH  19  20
ATOM     20  C   UNL     1       2.660   3.850  17.851  0.00  0.00    +0.000 C 
BRANCH  20  21
ATOM     21  C   UNL     1       2.019   4.383  19.130  0.00  0.00    +0.000 C 
BRANCH  21  22
ATOM     22  O   UNL     1       2.873   5.430  19.584  0.00  0.00    +0.000 OA
BRANCH  22  23
ATOM     23  C   UNL     1       2.487   6.706  19.297  0.00  0.00    +0.000 A 
ATOM     24  C   UNL     1       2.724   7.367  18.093  0.00  0.00    +0.000 A 
ATOM     25  C   UNL     1       2.255   8.671  17.906  0.00  0.00    +0.000 A 
ATOM     26  C   UNL     1       1.542   9.323  18.917  0.00  0.00    +0.000 A 
ATOM     27  C   UNL     1       1.048  10.726  18.732  0.00  0.00    +0.000 C 
ATOM     28  C   UNL     1       1.285   8.645  20.113  0.00  0.00    +0.000 A 
ATOM     29  C   UNL     1       1.749   7.342  20.296  0.00  0.00    +0.000 A 
ENDBRANCH  22  23
ENDBRANCH  21  22
ENDBRANCH  20  21
ENDBRANCH  19  20
ENDBRANCH   5  19
TORSDOF 9
ENDMDL
MODEL 3
REMARK VINA RESULT:      -7.9      5.053      8.793
REMARK  Name = 
REMARK  12 active torsions:
REMARK  status: ('A' for Active; 'I' for Inactive)
REMARK    1  A    between atoms: C_1  and  C_2
REMARK    2  A    between atoms: C_5  and  O_6
REMARK    3  A    between atoms: O_6  and  C_7
REMARK    4  A    between atoms: C_7  and  C_8
REMARK    5  A    between atoms: C_9  and  C_10
REMARK    6  A    between atoms: C_14  and  C_15
REMARK    7  A    between atoms: C_15  and  C_16
REMARK    8  A    between atoms: C_16  and  C_17
REMARK    9  A    between atoms: C_17  and  O_18
REMARK   10  A    between atoms: O_18  and  C_19
REMARK   11  A    between atoms: C_22  and  C_23
REMARK   12  A    between atoms: N_26  and  C_27
REMARK                            x       y       z     vdW  Elec       q    Type
REMARK                         _______ _______ _______ _____ _____    ______ ____
ROOT
ATOM      1  C   UNL     1       2.552   8.046  18.305  0.00  0.00    +0.000 A 
ATOM      2  C   UNL     1       2.179   9.227  17.672  0.00  0.00    +0.000 A 
ATOM      3  C   UNL     1       1.312  10.096  18.304  0.00  0.00    +0.000 A 
ATOM      4  C   UNL     1       0.874   9.787  19.582  0.00  0.00    +0.000 A 
ATOM      5  C   UNL     1       1.260   8.586  20.217  0.00  0.00    +0.000 A 
ATOM      6  N   UNL     1       2.053   7.706  19.530  0.00  0.00    +0.000 N 
ATOM      7  C   UNL     1       2.394   6.363  20.057  0.00  0.00    +0.000 C 
ENDROOT
BRANCH   1   9
ATOM      8  C   UNL     1       4.292   6.313  17.107  0.00  0.00    +0.000 C 
ATOM      9  C   UNL     1       3.474   7.173  17.645  0.00  0.00    +0.000 C 
BRANCH   8  10
ATOM     10  C   UNL     1       5.246   5.310  16.479  0.00  0.00    +0.000 C 
BRANCH  10  11
ATOM     11  O   UNL     1       4.593   4.050  16.392  0.00  0.00    +0.000 OA
BRANCH  11  16
ATOM     12  C   UNL     1       1.490   2.370  20.844  0.00  0.00    +0.000 C 
ATOM     13  C   UNL     1       2.326   2.825  19.684  0.00  0.00    +0.000 A 
ATOM     14  C   UNL     1       1.747   3.095  18.441  0.00  0.00    +0.000 A 
ATOM     15  C   UNL     1       2.541   3.503  17.366  0.00  0.00    +0.000 A 
ATOM     16  C   UNL     1       3.919   3.662  17.520  0.00  0.00    +0.000 A 
ATOM     17  C   UNL     1       4.504   3.380  18.757  0.00  0.00    +0.000 A 
ATOM     18  C   UNL     1       3.710   2.966  19.832  0.00  0.00    +0.000 A 
ENDBRANCH  11  16
ENDBRANCH  10  11
ENDBRANCH   8  10
ENDBRANCH   1   9
BRANCH   5  19
ATOM     19  C   UNL     1       0.886   8.398  21.674  0.00  0.00    +0.000 C 
BRANCH  19  20
ATOM     20  C   UNL     1      -0.452   9.004  22.102  0.00  0.00    +0.000 C 
BRANCH  20  21
ATOM     21  C   UNL     1      -0.375   9.918  23.322  0.00  0.00    +0.000 C 
BRANCH  21  22
ATOM     22  O   UNL     1      -0.277  11.244  22.807  0.00  0.00    +0.000 OA
BRANCH  22  23
ATOM     23  C   UNL     1      -1.436  11.832  22.395  0.00  0.00    +0.000 A 
ATOM     24  C   UNL     1      -2.578  11.994  23.178  0.00  0.00    +0.000 A 
ATOM     25  C   UNL     1      -3.702  12.638  22.651  0.00  0.00    +0.000 A 
ATOM     26  C   UNL     1      -3.692  13.130  21.342  0.00  0.00    +0.000 A 
ATOM     27  C   UNL     1      -4.898  13.808  20.763  0.00  0.00    +0.000 C 
ATOM     28  C   UNL     1      -2.534  12.986  20.571  0.00  0.00    +0.000 A 
ATOM     29  C   UNL     1      -1.412  12.348  21.100  0.00  0.00    +0.000 A 
ENDBRANCH  22  23
ENDBRANCH  21  22
ENDBRANCH  20  21
ENDBRANCH  19  20
ENDBRANCH   5  19
TORSDOF 9
ENDMDL
MODEL 4
REMARK VINA RESULT:      -7.8      4.875      8.574
REMARK  Name = 
REMARK  12 active torsions:
REMARK  status: ('A' for Active; 'I' for Inactive)
REMARK    1  A    between atoms: C_1  and  C_2
REMARK    2  A    between atoms: C_5  and  O_6
REMARK    3  A    between atoms: O_6  and  C_7
REMARK    4  A    between atoms: C_7  and  C_8
REMARK    5  A    between atoms: C_9  and  C_10
REMARK    6  A    between atoms: C_14  and  C_15
REMARK    7  A    between atoms: C_15  and  C_16
REMARK    8  A    between atoms: C_16  and  C_17
REMARK    9  A    between atoms: C_17  and  O_18
REMARK   10  A    between atoms: O_18  and  C_19
REMARK   11  A    between atoms: C_22  and  C_23
REMARK   12  A    between atoms: N_26  and  C_27
REMARK                            x       y       z     vdW  Elec       q    Type
REMARK                         _______ _______ _______ _____ _____    ______ ____
ROOT
ATOM      1  C   UNL     1       1.528   9.135  19.108  0.00  0.00    +0.000 A 
ATOM      2  C   UNL     1       2.183   8.970  17.891  0.00  0.00    +0.000 A 
ATOM      3  C   UNL     1       2.860   7.796  17.634  0.00  0.00    +0.000 A 
ATOM      4  C   UNL     1       2.825   6.786  18.582  0.00  0.00    +0.000 A 
ATOM      5  C   UNL     1       2.156   6.962  19.813  0.00  0.00    +0.000 A 
ATOM      6  N   UNL     1       1.565   8.170  20.073  0.00  0.00    +0.000 N 
ATOM      7  C   UNL     1       0.962   8.495  21.388  0.00  0.00    +0.000 C 
ENDROOT
BRANCH   1   9
ATOM      8  C   UNL     1       0.232  11.501  19.542  0.00  0.00    +0.000 C 
ATOM      9  C   UNL     1       0.808  10.349  19.343  0.00  0.00    +0.000 C 
BRANCH   8  10
ATOM     10  C   UNL     1      -0.440  12.845  19.774  0.00  0.00    +0.000 C 
BRANCH  10  11
ATOM     11  O   UNL     1      -1.845  12.684  19.627  0.00  0.00    +0.000 OA
BRANCH  11  16
ATOM     12  C   UNL     1      -4.447  12.510  24.674  0.00  0.00    +0.000 C 
ATOM     13  C   UNL     1      -3.780  12.548  23.330  0.00  0.00    +0.000 A 
ATOM     14  C   UNL     1      -2.405  12.342  23.202  0.00  0.00    +0.000 A 
ATOM     15  C   UNL     1      -1.796  12.396  21.945  0.00  0.00    +0.000 A 
ATOM     16  C   UNL     1      -2.554  12.639  20.799  0.00  0.00    +0.000 A 
ATOM     17  C   UNL     1      -3.928  12.859  20.923  0.00  0.00    +0.000 A 
ATOM     18  C   UNL     1      -4.536  12.811  22.183  0.00  0.00    +0.000 A 
ENDBRANCH  11  16
ENDBRANCH  10  11
ENDBRANCH   8  10
ENDBRANCH   1   9
BRANCH   5  19
ATOM     19  C   UNL     1       2.011   5.758  20.725  0.00  0.00    +0.000 C 
BRANCH  19  20
ATOM     20  C   UNL     1       1.609   4.450  20.041  0.00  0.00    +0.000 C 
BRANCH  20  21
ATOM     21  C   UNL     1       2.523   3.266  20.344  0.00  0.00    +0.000 C 
BRANCH  21  22
ATOM     22  O   UNL     1       2.869   2.710  19.077  0.00  0.00    +0.000 OA
BRANCH  22  23
ATOM     23  C   UNL     1       3.820   3.369  18.356  0.00  0.00    +0.000 A 
ATOM     24  C   UNL     1       3.755   3.629  16.988  0.00  0.00    +0.000 A 
ATOM     25  C   UNL     1       4.785   4.338  16.361  0.00  0.00    +0.000 A 
ATOM     26  C   UNL     1       5.883   4.798  17.096  0.00  0.00    +0.000 A 
ATOM     27  C   UNL     1       6.999   5.546  16.430  0.00  0.00    +0.000 C 
ATOM     28  C   UNL     1       5.929   4.555  18.472  0.00  0.00    +0.000 A 
ATOM     29  C   UNL     1       4.898   3.852  19.097  0.00  0.00    +0.000 A 
ENDBRANCH  22  23
ENDBRANCH  21  22
ENDBRANCH  20  21
ENDBRANCH  19  20
ENDBRANCH   5  19
TORSDOF 9
ENDMDL
MODEL 5
REMARK VINA RESULT:      -7.7      1.561      2.017
REMARK  Name = 
REMARK  12 active torsions:
REMARK  status: ('A' for Active; 'I' for Inactive)
REMARK    1  A    between atoms: C_1  and  C_2
REMARK    2  A    between atoms: C_5  and  O_6
REMARK    3  A    between atoms: O_6  and  C_7
REMARK    4  A    between atoms: C_7  and  C_8
REMARK    5  A    between atoms: C_9  and  C_10
REMARK    6  A    between atoms: C_14  and  C_15
REMARK    7  A    between atoms: C_15  and  C_16
REMARK    8  A    between atoms: C_16  and  C_17
REMARK    9  A    between atoms: C_17  and  O_18
REMARK   10  A    between atoms: O_18  and  C_19
REMARK   11  A    between atoms: C_22  and  C_23
REMARK   12  A    between atoms: N_26  and  C_27
REMARK                            x       y       z     vdW  Elec       q    Type
REMARK                         _______ _______ _______ _____ _____    ______ ____
ROOT
ATOM      1  C   UNL     1       6.590   6.548  17.408  0.00  0.00    +0.000 A 
ATOM      2  C   UNL     1       5.978   6.497  16.160  0.00  0.00    +0.000 A 
ATOM      3  C   UNL     1       5.194   5.410  15.828  0.00  0.00    +0.000 A 
ATOM      4  C   UNL     1       4.997   4.418  16.776  0.00  0.00    +0.000 A 
ATOM      5  C   UNL     1       5.621   4.480  18.041  0.00  0.00    +0.000 A 
ATOM      6  N   UNL     1       6.460   5.530  18.308  0.00  0.00    +0.000 N 
ATOM      7  C   UNL     1       7.266   5.608  19.550  0.00  0.00    +0.000 C 
ENDROOT
BRANCH   1   9
ATOM      8  C   UNL     1       8.152   8.685  18.086  0.00  0.00    +0.000 C 
ATOM      9  C   UNL     1       7.375   7.696  17.743  0.00  0.00    +0.000 C 
BRANCH   8  10
ATOM     10  C   UNL     1       9.059   9.838  18.487  0.00  0.00    +0.000 C 
BRANCH  10  11
ATOM     11  O   UNL     1       8.626  11.014  17.817  0.00  0.00    +0.000 OA
BRANCH  11  16
ATOM     12  C   UNL     1      12.075  15.525  17.962  0.00  0.00    +0.000 C 
ATOM     13  C   UNL     1      11.179  14.323  17.907  0.00  0.00    +0.000 A 
ATOM     14  C   UNL     1       9.804  14.439  18.122  0.00  0.00    +0.000 A 
ATOM     15  C   UNL     1       8.984  13.307  18.083  0.00  0.00    +0.000 A 
ATOM     16  C   UNL     1       9.524  12.049  17.813  0.00  0.00    +0.000 A 
ATOM     17  C   UNL     1      10.900  11.926  17.611  0.00  0.00    +0.000 A 
ATOM     18  C   UNL     1      11.722  13.058  17.657  0.00  0.00    +0.000 A 
ENDBRANCH  11  16
ENDBRANCH  10  11
ENDBRANCH   8  10
ENDBRANCH   1   9
BRANCH   5  19
ATOM     19  C   UNL     1       5.223   3.454  19.084  0.00  0.00    +0.000 C 
BRANCH  19  20
ATOM     20  C   UNL     1       3.927   2.690  18.805  0.00  0.00    +0.000 C 
BRANCH  20  21
ATOM     21  C   UNL     1       2.987   2.573  20.002  0.00  0.00    +0.000 C 
BRANCH  21  22
ATOM     22  O   UNL     1       1.809   3.290  19.640  0.00  0.00    +0.000 OA
BRANCH  22  23
ATOM     23  C   UNL     1       1.963   4.609  19.329  0.00  0.00    +0.000 A 
ATOM     24  C   UNL     1       2.327   5.610  20.228  0.00  0.00    +0.000 A 
ATOM     25  C   UNL     1       2.479   6.928  19.783  0.00  0.00    +0.000 A 
ATOM     26  C   UNL     1       2.274   7.254  18.439  0.00  0.00    +0.000 A 
ATOM     27  C   UNL     1       2.420   8.666  17.956  0.00  0.00    +0.000 C 
ATOM     28  C   UNL     1       1.934   6.239  17.538  0.00  0.00    +0.000 A 
ATOM     29  C   UNL     1       1.788   4.925  17.982  0.00  0.00    +0.000 A 
ENDBRANCH  22  23
ENDBRANCH  21  22
ENDBRANCH  20  21
ENDBRANCH  19  20
ENDBRANCH   5  19
TORSDOF 9
ENDMDL
MODEL 6
REMARK VINA RESULT:      -7.7      5.159      9.282
REMARK  Name = 
REMARK  12 active torsions:
REMARK  status: ('A' for Active; 'I' for Inactive)
REMARK    1  A    between atoms: C_1  and  C_2
REMARK    2  A    between atoms: C_5  and  O_6
REMARK    3  A    between atoms: O_6  and  C_7
REMARK    4  A    between atoms: C_7  and  C_8
REMARK    5  A    between atoms: C_9  and  C_10
REMARK    6  A    between atoms: C_14  and  C_15
REMARK    7  A    between atoms: C_15  and  C_16
REMARK    8  A    between atoms: C_16  and  C_17
REMARK    9  A    between atoms: C_17  and  O_18
REMARK   10  A    between atoms: O_18  and  C_19
REMARK   11  A    between atoms: C_22  and  C_23
REMARK   12  A    between atoms: N_26  and  C_27
REMARK                            x       y       z     vdW  Elec       q    Type
REMARK                         _______ _______ _______ _____ _____    ______ ____
ROOT
ATOM      1  C   UNL     1       2.397   8.055  18.504  0.00  0.00    +0.000 A 
ATOM      2  C   UNL     1       2.099   9.229  17.819  0.00  0.00    +0.000 A 
ATOM      3  C   UNL     1       1.338  10.203  18.433  0.00  0.00    +0.000 A 
ATOM      4  C   UNL     1       0.933  10.003  19.743  0.00  0.00    +0.000 A 
ATOM      5  C   UNL     1       1.243   8.809  20.431  0.00  0.00    +0.000 A 
ATOM      6  N   UNL     1       1.927   7.827  19.765  0.00  0.00    +0.000 N 
ATOM      7  C   UNL     1       2.176   6.490  20.355  0.00  0.00    +0.000 C 
ENDROOT
BRANCH   1   9
ATOM      8  C   UNL     1       3.951   6.125  17.351  0.00  0.00    +0.000 C 
ATOM      9  C   UNL     1       3.211   7.070  17.859  0.00  0.00    +0.000 C 
BRANCH   8  10
ATOM     10  C   UNL     1       4.814   5.022  16.759  0.00  0.00    +0.000 C 
BRANCH  10  11
ATOM     11  O   UNL     1       4.039   3.833  16.672  0.00  0.00    +0.000 OA
BRANCH  11  16
ATOM     12  C   UNL     1       1.459   2.526  21.561  0.00  0.00    +0.000 C 
ATOM     13  C   UNL     1       2.122   2.861  20.257  0.00  0.00    +0.000 A 
ATOM     14  C   UNL     1       3.514   2.897  20.144  0.00  0.00    +0.000 A 
ATOM     15  C   UNL     1       4.116   3.226  18.926  0.00  0.00    +0.000 A 
ATOM     16  C   UNL     1       3.338   3.508  17.803  0.00  0.00    +0.000 A 
ATOM     17  C   UNL     1       1.946   3.488  17.914  0.00  0.00    +0.000 A 
ATOM     18  C   UNL     1       1.343   3.164  19.135  0.00  0.00    +0.000 A 
ENDBRANCH  11  16
ENDBRANCH  10  11
ENDBRANCH   8  10
ENDBRANCH   1   9
BRANCH   5  19
ATOM     19  C   UNL     1       0.920   8.734  21.910  0.00  0.00    +0.000 C 
BRANCH  19  20
ATOM     20  C   UNL     1      -0.466   9.239  22.316  0.00  0.00    +0.000 C 
BRANCH  20  21
ATOM     21  C   UNL     1      -0.482  10.645  22.911  0.00  0.00    +0.000 C 
BRANCH  21  22
ATOM     22  O   UNL     1      -1.709  11.232  22.484  0.00  0.00    +0.000 OA
BRANCH  22  23
ATOM     23  C   UNL     1      -2.082  12.392  23.096  0.00  0.00    +0.000 A 
ATOM     24  C   UNL     1      -1.250  13.489  23.315  0.00  0.00    +0.000 A 
ATOM     25  C   UNL     1      -1.755  14.638  23.932  0.00  0.00    +0.000 A 
ATOM     26  C   UNL     1      -3.095  14.702  24.330  0.00  0.00    +0.000 A 
ATOM     27  C   UNL     1      -3.642  15.923  25.006  0.00  0.00    +0.000 C 
ATOM     28  C   UNL     1      -3.929  13.607  24.084  0.00  0.00    +0.000 A 
ATOM     29  C   UNL     1      -3.425  12.464  23.463  0.00  0.00    +0.000 A 
ENDBRANCH  22  23
ENDBRANCH  21  22
ENDBRANCH  20  21
ENDBRANCH  19  20
ENDBRANCH   5  19
TORSDOF 9
ENDMDL
MODEL 7
REMARK VINA RESULT:      -7.6      5.402      9.056
REMARK  Name = 
REMARK  12 active torsions:
REMARK  status: ('A' for Active; 'I' for Inactive)
REMARK    1  A    between atoms: C_1  and  C_2
REMARK    2  A    between atoms: C_5  and  O_6
REMARK    3  A    between atoms: O_6  and  C_7
REMARK    4  A    between atoms: C_7  and  C_8
REMARK    5  A    between atoms: C_9  and  C_10
REMARK    6  A    between atoms: C_14  and  C_15
REMARK    7  A    between atoms: C_15  and  C_16
REMARK    8  A    between atoms: C_16  and  C_17
REMARK    9  A    between atoms: C_17  and  O_18
REMARK   10  A    between atoms: O_18  and  C_19
REMARK   11  A    between atoms: C_22  and  C_23
REMARK   12  A    between atoms: N_26  and  C_27
REMARK                            x       y       z     vdW  Elec       q    Type
REMARK                         _______ _______ _______ _____ _____    ______ ____
ROOT
ATOM      1  C   UNL     1       1.411   8.907  19.290  0.00  0.00    +0.000 A 
ATOM      2  C   UNL     1       2.035   8.770  18.053  0.00  0.00    +0.000 A 
ATOM      3  C   UNL     1       2.777   7.637  17.785  0.00  0.00    +0.000 A 
ATOM      4  C   UNL     1       2.838   6.639  18.744  0.00  0.00    +0.000 A 
ATOM      5  C   UNL     1       2.200   6.786  19.995  0.00  0.00    +0.000 A 
ATOM      6  N   UNL     1       1.542   7.958  20.262  0.00  0.00    +0.000 N 
ATOM      7  C   UNL     1       0.962   8.259  21.593  0.00  0.00    +0.000 C 
ENDROOT
BRANCH   1   9
ATOM      8  C   UNL     1      -0.078  11.127  19.853  0.00  0.00    +0.000 C 
ATOM      9  C   UNL     1       0.623  10.075  19.537  0.00  0.00    +0.000 C 
BRANCH   8  10
ATOM     10  C   UNL     1      -0.895  12.355  20.221  0.00  0.00    +0.000 C 
BRANCH  10  11
ATOM     11  O   UNL     1      -1.603  12.795  19.070  0.00  0.00    +0.000 OA
BRANCH  11  16
ATOM     12  C   UNL     1      -6.867  10.714  18.589  0.00  0.00    +0.000 C 
ATOM     13  C   UNL     1      -5.468  11.243  18.706  0.00  0.00    +0.000 A 
ATOM     14  C   UNL     1      -5.112  12.118  19.735  0.00  0.00    +0.000 A 
ATOM     15  C   UNL     1      -3.808  12.614  19.821  0.00  0.00    +0.000 A 
ATOM     16  C   UNL     1      -2.839  12.232  18.893  0.00  0.00    +0.000 A 
ATOM     17  C   UNL     1      -3.194  11.368  17.854  0.00  0.00    +0.000 A 
ATOM     18  C   UNL     1      -4.501  10.876  17.764  0.00  0.00    +0.000 A 
ENDBRANCH  11  16
ENDBRANCH  10  11
ENDBRANCH   8  10
ENDBRANCH   1   9
BRANCH   5  19
ATOM     19  C   UNL     1       2.162   5.587  20.922  0.00  0.00    +0.000 C 
BRANCH  19  20
ATOM     20  C   UNL     1       1.173   4.483  20.543  0.00  0.00    +0.000 C 
BRANCH  20  21
ATOM     21  C   UNL     1       1.469   3.121  21.166  0.00  0.00    +0.000 C 
BRANCH  21  22
ATOM     22  O   UNL     1       1.800   2.262  20.078  0.00  0.00    +0.000 OA
BRANCH  22  23
ATOM     23  C   UNL     1       2.681   2.747  19.157  0.00  0.00    +0.000 A 
ATOM     24  C   UNL     1       4.026   3.021  19.396  0.00  0.00    +0.000 A 
ATOM     25  C   UNL     1       4.840   3.493  18.361  0.00  0.00    +0.000 A 
ATOM     26  C   UNL     1       4.318   3.689  17.078  0.00  0.00    +0.000 A 
ATOM     27  C   UNL     1       5.178   4.209  15.966  0.00  0.00    +0.000 C 
ATOM     28  C   UNL     1       2.973   3.387  16.839  0.00  0.00    +0.000 A 
ATOM     29  C   UNL     1       2.164   2.912  17.871  0.00  0.00    +0.000 A 
ENDBRANCH  22  23
ENDBRANCH  21  22
ENDBRANCH  20  21
ENDBRANCH  19  20
ENDBRANCH   5  19
TORSDOF 9
ENDMDL
MODEL 8
REMARK VINA RESULT:      -7.6      5.275      9.012
REMARK  Name = 
REMARK  12 active torsions:
REMARK  status: ('A' for Active; 'I' for Inactive)
REMARK    1  A    between atoms: C_1  and  C_2
REMARK    2  A    between atoms: C_5  and  O_6
REMARK    3  A    between atoms: O_6  and  C_7
REMARK    4  A    between atoms: C_7  and  C_8
REMARK    5  A    between atoms: C_9  and  C_10
REMARK    6  A    between atoms: C_14  and  C_15
REMARK    7  A    between atoms: C_15  and  C_16
REMARK    8  A    between atoms: C_16  and  C_17
REMARK    9  A    between atoms: C_17  and  O_18
REMARK   10  A    between atoms: O_18  and  C_19
REMARK   11  A    between atoms: C_22  and  C_23
REMARK   12  A    between atoms: N_26  and  C_27
REMARK                            x       y       z     vdW  Elec       q    Type
REMARK                         _______ _______ _______ _____ _____    ______ ____
ROOT
ATOM      1  C   UNL     1       2.413   7.716  18.545  0.00  0.00    +0.000 A 
ATOM      2  C   UNL     1       2.149   8.804  17.718  0.00  0.00    +0.000 A 
ATOM      3  C   UNL     1       1.431   9.876  18.207  0.00  0.00    +0.000 A 
ATOM      4  C   UNL     1       1.033   9.859  19.535  0.00  0.00    +0.000 A 
ATOM      5  C   UNL     1       1.307   8.752  20.367  0.00  0.00    +0.000 A 
ATOM      6  N   UNL     1       1.948   7.668  19.828  0.00  0.00    +0.000 N 
ATOM      7  C   UNL     1       2.155   6.409  20.583  0.00  0.00    +0.000 C 
ENDROOT
BRANCH   1   9
ATOM      8  C   UNL     1       3.882   5.678  17.471  0.00  0.00    +0.000 C 
ATOM      9  C   UNL     1       3.184   6.629  18.027  0.00  0.00    +0.000 C 
BRANCH   8  10
ATOM     10  C   UNL     1       4.696   4.570  16.823  0.00  0.00    +0.000 C 
BRANCH  10  11
ATOM     11  O   UNL     1       3.932   3.372  16.838  0.00  0.00    +0.000 OA
BRANCH  11  16
ATOM     12  C   UNL     1       1.386   2.444  21.831  0.00  0.00    +0.000 C 
ATOM     13  C   UNL     1       2.039   2.678  20.500  0.00  0.00    +0.000 A 
ATOM     14  C   UNL     1       3.430   2.690  20.373  0.00  0.00    +0.000 A 
ATOM     15  C   UNL     1       4.023   2.925  19.130  0.00  0.00    +0.000 A 
ATOM     16  C   UNL     1       3.238   3.136  17.996  0.00  0.00    +0.000 A 
ATOM     17  C   UNL     1       1.846   3.139  18.121  0.00  0.00    +0.000 A 
ATOM     18  C   UNL     1       1.252   2.910  19.367  0.00  0.00    +0.000 A 
ENDBRANCH  11  16
ENDBRANCH  10  11
ENDBRANCH   8  10
ENDBRANCH   1   9
BRANCH   5  19
ATOM     19  C   UNL     1       0.997   8.878  21.846  0.00  0.00    +0.000 C 
BRANCH  19  20
ATOM     20  C   UNL     1      -0.487   8.936  22.213  0.00  0.00    +0.000 C 
BRANCH  20  21
ATOM     21  C   UNL     1      -0.866  10.075  23.156  0.00  0.00    +0.000 C 
BRANCH  21  22
ATOM     22  O   UNL     1      -0.044  11.177  22.781  0.00  0.00    +0.000 OA
BRANCH  22  23
ATOM     23  C   UNL     1      -0.679  12.276  22.282  0.00  0.00    +0.000 A 
ATOM     24  C   UNL     1      -0.490  12.802  21.005  0.00  0.00    +0.000 A 
ATOM     25  C   UNL     1      -1.220  13.922  20.594  0.00  0.00    +0.000 A 
ATOM     26  C   UNL     1      -2.147  14.521  21.454  0.00  0.00    +0.000 A 
ATOM     27  C   UNL     1      -2.924  15.732  21.029  0.00  0.00    +0.000 C 
ATOM     28  C   UNL     1      -2.350  13.973  22.724  0.00  0.00    +0.000 A 
ATOM     29  C   UNL     1      -1.625  12.852  23.129  0.00  0.00    +0.000 A 
ENDBRANCH  22  23
ENDBRANCH  21  22
ENDBRANCH  20  21
ENDBRANCH  19  20
ENDBRANCH   5  19
TORSDOF 9
ENDMDL
MODEL 9
REMARK VINA RESULT:      -7.6      4.935      8.609
REMARK  Name = 
REMARK  12 active torsions:
REMARK  status: ('A' for Active; 'I' for Inactive)
REMARK    1  A    between atoms: C_1  and  C_2
REMARK    2  A    between atoms: C_5  and  O_6
REMARK    3  A    between atoms: O_6  and  C_7
REMARK    4  A    between atoms: C_7  and  C_8
REMARK    5  A    between atoms: C_9  and  C_10
REMARK    6  A    between atoms: C_14  and  C_15
REMARK    7  A    between atoms: C_15  and  C_16
REMARK    8  A    between atoms: C_16  and  C_17
REMARK    9  A    between atoms: C_17  and  O_18
REMARK   10  A    between atoms: O_18  and  C_19
REMARK   11  A    between atoms: C_22  and  C_23
REMARK   12  A    between atoms: N_26  and  C_27
REMARK                            x       y       z     vdW  Elec       q    Type
REMARK                         _______ _______ _______ _____ _____    ______ ____
ROOT
ATOM      1  C   UNL     1       2.537   8.167  18.308  0.00  0.00    +0.000 A 
ATOM      2  C   UNL     1       2.100   9.336  17.694  0.00  0.00    +0.000 A 
ATOM      3  C   UNL     1       1.204  10.157  18.349  0.00  0.00    +0.000 A 
ATOM      4  C   UNL     1       0.802   9.814  19.631  0.00  0.00    +0.000 A 
ATOM      5  C   UNL     1       1.253   8.626  20.246  0.00  0.00    +0.000 A 
ATOM      6  N   UNL     1       2.076   7.791  19.536  0.00  0.00    +0.000 N 
ATOM      7  C   UNL     1       2.487   6.460  20.043  0.00  0.00    +0.000 C 
ENDROOT
BRANCH   1   9
ATOM      8  C   UNL     1       4.355   6.660  16.932  0.00  0.00    +0.000 C 
ATOM      9  C   UNL     1       3.488   7.345  17.624  0.00  0.00    +0.000 C 
BRANCH   8  10
ATOM     10  C   UNL     1       5.366   5.860  16.126  0.00  0.00    +0.000 C 
BRANCH  10  11
ATOM     11  O   UNL     1       5.755   4.720  16.881  0.00  0.00    +0.000 OA
BRANCH  11  16
ATOM     12  C   UNL     1       1.680   2.082  19.830  0.00  0.00    +0.000 C 
ATOM     13  C   UNL     1       2.749   2.766  19.031  0.00  0.00    +0.000 A 
ATOM     14  C   UNL     1       3.934   3.196  19.633  0.00  0.00    +0.000 A 
ATOM     15  C   UNL     1       4.915   3.846  18.878  0.00  0.00    +0.000 A 
ATOM     16  C   UNL     1       4.733   4.060  17.511  0.00  0.00    +0.000 A 
ATOM     17  C   UNL     1       3.544   3.644  16.907  0.00  0.00    +0.000 A 
ATOM     18  C   UNL     1       2.560   2.999  17.664  0.00  0.00    +0.000 A 
ENDBRANCH  11  16
ENDBRANCH  10  11
ENDBRANCH   8  10
ENDBRANCH   1   9
BRANCH   5  19
ATOM     19  C   UNL     1       0.913   8.405  21.707  0.00  0.00    +0.000 C 
BRANCH  19  20
ATOM     20  C   UNL     1      -0.482   8.859  22.141  0.00  0.00    +0.000 C 
BRANCH  20  21
ATOM     21  C   UNL     1      -0.500   9.813  23.333  0.00  0.00    +0.000 C 
BRANCH  21  22
ATOM     22  O   UNL     1      -0.137  11.089  22.813  0.00  0.00    +0.000 OA
BRANCH  22  23
ATOM     23  C   UNL     1      -1.148  11.867  22.330  0.00  0.00    +0.000 A 
ATOM     24  C   UNL     1      -1.118  12.569  21.126  0.00  0.00    +0.000 A 
ATOM     25  C   UNL     1      -2.231  13.315  20.724  0.00  0.00    +0.000 A 
ATOM     26  C   UNL     1      -3.382  13.361  21.517  0.00  0.00    +0.000 A 
ATOM     27  C   UNL     1      -4.574  14.170  21.101  0.00  0.00    +0.000 C 
ATOM     28  C   UNL     1      -3.414  12.634  22.711  0.00  0.00    +0.000 A 
ATOM     29  C   UNL     1      -2.305  11.886  23.109  0.00  0.00    +0.000 A 
ENDBRANCH  22  23
ENDBRANCH  21  22
ENDBRANCH  20  21
ENDBRANCH  19  20
ENDBRANCH   5  19
TORSDOF 9
ENDMDL
