MODEL 1
REMARK VINA RESULT:      -8.0      0.000      0.000
REMARK  Name = 
REMARK  3 active torsions:
REMARK  status: ('A' for Active; 'I' for Inactive)
REMARK    1  A    between atoms: C_2  and  C_14
REMARK    2  A    between atoms: N_3  and  C_4
REMARK    3  A    between atoms: C_6  and  C_7
REMARK                            x       y       z     vdW  Elec       q    Type
REMARK                         _______ _______ _______ _____ _____    ______ ____
ROOT
ATOM      1  C   UNL     1      -0.677  11.836  20.631  0.00  0.00    +0.000 C 
ATOM      2  C   UNL     1      -0.573  11.724  22.182  0.00  0.00    +0.000 C 
ATOM      3  C   UNL     1      -1.191  12.879  22.963  0.00  0.00    +0.000 C 
ATOM      4  C   UNL     1      -2.560  13.247  22.411  0.00  0.00    +0.000 C 
ATOM      5  C   UNL     1      -2.430  13.493  20.917  0.00  0.00    +0.000 C 
ATOM      6  N   UNL     1      -2.069  12.230  20.281  0.00  0.00    +0.000 N 
ATOM      7  C   UNL     1      -2.605  11.897  19.041  0.00  0.00    +0.000 C 
ATOM      8  O   UNL     1      -1.882  11.548  18.108  0.00  0.00    +0.000 OA
ATOM      9  N   UNL     1      -4.003  11.932  18.911  0.00  0.00    +0.000 N 
ATOM     10  C   UNL     1      -4.614  11.418  17.675  0.00  0.00    +0.000 C 
ATOM     11  C   UNL     1      -5.544  12.422  17.019  0.00  0.00    +0.000 C 
ATOM     12  S   UNL     1      -6.779  13.017  18.148  0.00  0.00    +0.000 S 
ATOM     13  O   UNL     1      -7.297  14.264  17.627  0.00  0.00    +0.000 OA
ATOM     14  O   UNL     1      -7.670  11.928  18.479  0.00  0.00    +0.000 OA
ATOM     15  C   UNL     1      -5.824  13.403  19.598  0.00  0.00    +0.000 C 
ATOM     16  C   UNL     1      -4.995  12.187  19.963  0.00  0.00    +0.000 C 
ENDROOT
BRANCH   1  18
ATOM     17  O   UNL     1      -0.446   9.407  20.693  0.00  0.00    +0.000 OA
ATOM     18  C   UNL     1      -0.127  10.466  20.161  0.00  0.00    +0.000 C 
ATOM     19  N   UNL     1       0.856  10.600  19.183  0.00  0.00    +0.000 N 
ATOM     20  H   UNL     1       0.979  11.454  18.657  0.00  0.00    +0.000 HD
BRANCH  19  21
ATOM     21  C   UNL     1       1.532   9.501  18.745  0.00  0.00    +0.000 A 
ATOM     22  C   UNL     1       1.853   8.299  19.317  0.00  0.00    +0.000 A 
ATOM     23  C   UNL     1       2.474   7.566  18.291  0.00  0.00    +0.000 A 
ATOM     24  N   UNL     1       2.586   8.300  17.171  0.00  0.00    +0.000 NA
ATOM     25  O   UNL     1       2.038   9.538  17.480  0.00  0.00    +0.000 OA
BRANCH  23  26
ATOM     26  C   UNL     1       2.978   6.167  18.375  0.00  0.00    +0.000 C 
ATOM     27  C   UNL     1       1.947   5.106  17.994  0.00  0.00    +0.000 C 
ATOM     28  C   UNL     1       2.793   3.861  17.749  0.00  0.00    +0.000 C 
ATOM     29  C   UNL     1       4.151   4.362  17.260  0.00  0.00    +0.000 C 
ATOM     30  C   UNL     1       4.154   5.877  17.448  0.00  0.00    +0.000 C 
ENDBRANCH  23  26
ENDBRANCH  19  21
ENDBRANCH   1  18
TORSDOF 3
ENDMDL
MODEL 2
REMARK VINA RESULT:      -8.0      0.942      1.201
REMARK  Name = 
REMARK  3 active torsions:
REMARK  status: ('A' for Active; 'I' for Inactive)
REMARK    1  A    between atoms: C_2  and  C_14
REMARK    2  A    between atoms: N_3  and  C_4
REMARK    3  A    between atoms: C_6  and  C_7
REMARK                            x       y       z     vdW  Elec       q    Type
REMARK                         _______ _______ _______ _____ _____    ______ ____
ROOT
ATOM      1  C   UNL     1      -0.576  11.656  20.679  0.00  0.00    +0.000 C 
ATOM      2  C   UNL     1      -0.498  11.742  22.234  0.00  0.00    +0.000 C 
ATOM      3  C   UNL     1      -1.027  13.037  22.843  0.00  0.00    +0.000 C 
ATOM      4  C   UNL     1      -2.353  13.439  22.217  0.00  0.00    +0.000 C 
ATOM      5  C   UNL     1      -2.187  13.474  20.708  0.00  0.00    +0.000 C 
ATOM      6  N   UNL     1      -1.926  12.112  20.250  0.00  0.00    +0.000 N 
ATOM      7  C   UNL     1      -2.475  11.662  19.053  0.00  0.00    +0.000 C 
ATOM      8  O   UNL     1      -1.774  11.135  18.190  0.00  0.00    +0.000 OA
ATOM      9  N   UNL     1      -3.864  11.794  18.889  0.00  0.00    +0.000 N 
ATOM     10  C   UNL     1      -4.502  11.172  17.719  0.00  0.00    +0.000 C 
ATOM     11  C   UNL     1      -5.337  12.152  16.916  0.00  0.00    +0.000 C 
ATOM     12  S   UNL     1      -6.530  12.990  17.930  0.00  0.00    +0.000 S 
ATOM     13  O   UNL     1      -6.937  14.196  17.240  0.00  0.00    +0.000 OA
ATOM     14  O   UNL     1      -7.513  12.031  18.381  0.00  0.00    +0.000 OA
ATOM     15  C   UNL     1      -5.563  13.486  19.337  0.00  0.00    +0.000 C 
ATOM     16  C   UNL     1      -4.842  12.266  19.877  0.00  0.00    +0.000 C 
ENDROOT
BRANCH   1  18
ATOM     17  O   UNL     1      -0.601   9.238  21.019  0.00  0.00    +0.000 OA
ATOM     18  C   UNL     1      -0.138  10.195  20.405  0.00  0.00    +0.000 C 
ATOM     19  N   UNL     1       0.921  10.123  19.503  0.00  0.00    +0.000 N 
ATOM     20  H   UNL     1       1.168  10.896  18.900  0.00  0.00    +0.000 HD
BRANCH  19  21
ATOM     21  C   UNL     1       1.510   8.922  19.242  0.00  0.00    +0.000 A 
ATOM     22  C   UNL     1       1.915   8.298  18.093  0.00  0.00    +0.000 A 
ATOM     23  C   UNL     1       2.542   7.117  18.525  0.00  0.00    +0.000 A 
ATOM     24  N   UNL     1       2.468   6.992  19.861  0.00  0.00    +0.000 NA
ATOM     25  O   UNL     1       1.770   8.108  20.304  0.00  0.00    +0.000 OA
BRANCH  23  26
ATOM     26  C   UNL     1       3.201   6.093  17.669  0.00  0.00    +0.000 C 
ATOM     27  C   UNL     1       4.656   5.810  18.037  0.00  0.00    +0.000 C 
ATOM     28  C   UNL     1       4.950   4.487  17.339  0.00  0.00    +0.000 C 
ATOM     29  C   UNL     1       3.620   3.737  17.280  0.00  0.00    +0.000 C 
ATOM     30  C   UNL     1       2.541   4.719  17.727  0.00  0.00    +0.000 C 
ENDBRANCH  23  26
ENDBRANCH  19  21
ENDBRANCH   1  18
TORSDOF 3
ENDMDL
MODEL 3
REMARK VINA RESULT:      -7.9      5.051     10.208
REMARK  Name = 
REMARK  3 active torsions:
REMARK  status: ('A' for Active; 'I' for Inactive)
REMARK    1  A    between atoms: C_2  and  C_14
REMARK    2  A    between atoms: N_3  and  C_4
REMARK    3  A    between atoms: C_6  and  C_7
REMARK                            x       y       z     vdW  Elec       q    Type
REMARK                         _______ _______ _______ _____ _____    ______ ____
ROOT
ATOM      1  C   UNL     1       1.964   4.094  20.028  0.00  0.00    +0.000 C 
ATOM      2  C   UNL     1       2.368   3.485  21.405  0.00  0.00    +0.000 C 
ATOM      3  C   UNL     1       3.272   2.259  21.336  0.00  0.00    +0.000 C 
ATOM      4  C   UNL     1       4.402   2.462  20.339  0.00  0.00    +0.000 C 
ATOM      5  C   UNL     1       3.804   2.880  19.006  0.00  0.00    +0.000 C 
ATOM      6  N   UNL     1       3.183   4.190  19.180  0.00  0.00    +0.000 N 
ATOM      7  C   UNL     1       3.264   5.139  18.166  0.00  0.00    +0.000 C 
ATOM      8  O   UNL     1       2.256   5.707  17.745  0.00  0.00    +0.000 OA
ATOM      9  N   UNL     1       4.542   5.453  17.674  0.00  0.00    +0.000 N 
ATOM     10  C   UNL     1       4.683   6.574  16.732  0.00  0.00    +0.000 C 
ATOM     11  C   UNL     1       5.401   6.178  15.454  0.00  0.00    +0.000 C 
ATOM     12  S   UNL     1       6.970   5.414  15.786  0.00  0.00    +0.000 S 
ATOM     13  O   UNL     1       7.358   4.661  14.612  0.00  0.00    +0.000 OA
ATOM     14  O   UNL     1       7.857   6.401  16.356  0.00  0.00    +0.000 OA
ATOM     15  C   UNL     1       6.567   4.240  17.060  0.00  0.00    +0.000 C 
ATOM     16  C   UNL     1       5.837   4.970  18.170  0.00  0.00    +0.000 C 
ENDROOT
BRANCH   1  18
ATOM     17  O   UNL     1      -0.002   5.422  20.603  0.00  0.00    +0.000 OA
ATOM     18  C   UNL     1       1.214   5.385  20.442  0.00  0.00    +0.000 C 
ATOM     19  N   UNL     1       2.054   6.497  20.464  0.00  0.00    +0.000 N 
ATOM     20  H   UNL     1       3.061   6.411  20.488  0.00  0.00    +0.000 HD
BRANCH  19  21
ATOM     21  C   UNL     1       1.533   7.736  20.690  0.00  0.00    +0.000 A 
ATOM     22  C   UNL     1       1.060   8.373  21.805  0.00  0.00    +0.000 A 
ATOM     23  C   UNL     1       0.761   9.678  21.377  0.00  0.00    +0.000 A 
ATOM     24  N   UNL     1       0.978   9.815  20.058  0.00  0.00    +0.000 NA
ATOM     25  O   UNL     1       1.415   8.571  19.619  0.00  0.00    +0.000 OA
BRANCH  23  26
ATOM     26  C   UNL     1       0.253  10.797  22.216  0.00  0.00    +0.000 C 
ATOM     27  C   UNL     1      -0.089  12.063  21.433  0.00  0.00    +0.000 C 
ATOM     28  C   UNL     1      -0.953  12.859  22.404  0.00  0.00    +0.000 C 
ATOM     29  C   UNL     1      -1.667  11.829  23.277  0.00  0.00    +0.000 C 
ATOM     30  C   UNL     1      -1.038  10.475  22.962  0.00  0.00    +0.000 C 
ENDBRANCH  23  26
ENDBRANCH  19  21
ENDBRANCH   1  18
TORSDOF 3
ENDMDL
MODEL 4
REMARK VINA RESULT:      -7.7      4.972      9.988
REMARK  Name = 
REMARK  3 active torsions:
REMARK  status: ('A' for Active; 'I' for Inactive)
REMARK    1  A    between atoms: C_2  and  C_14
REMARK    2  A    between atoms: N_3  and  C_4
REMARK    3  A    between atoms: C_6  and  C_7
REMARK                            x       y       z     vdW  Elec       q    Type
REMARK                         _______ _______ _______ _____ _____    ______ ____
ROOT
ATOM      1  C   UNL     1       1.765   4.429  20.110  0.00  0.00    +0.000 C 
ATOM      2  C   UNL     1       2.146   3.794  21.481  0.00  0.00    +0.000 C 
ATOM      3  C   UNL     1       2.955   2.503  21.401  0.00  0.00    +0.000 C 
ATOM      4  C   UNL     1       4.079   2.620  20.383  0.00  0.00    +0.000 C 
ATOM      5  C   UNL     1       3.491   3.079  19.060  0.00  0.00    +0.000 C 
ATOM      6  N   UNL     1       2.973   4.433  19.241  0.00  0.00    +0.000 N 
ATOM      7  C   UNL     1       3.107   5.371  18.223  0.00  0.00    +0.000 C 
ATOM      8  O   UNL     1       2.138   6.012  17.817  0.00  0.00    +0.000 OA
ATOM      9  N   UNL     1       4.396   5.588  17.708  0.00  0.00    +0.000 N 
ATOM     10  C   UNL     1       4.605   6.692  16.760  0.00  0.00    +0.000 C 
ATOM     11  C   UNL     1       5.269   6.242  15.471  0.00  0.00    +0.000 C 
ATOM     12  S   UNL     1       6.781   5.363  15.778  0.00  0.00    +0.000 S 
ATOM     13  O   UNL     1       7.091   4.581  14.600  0.00  0.00    +0.000 OA
ATOM     14  O   UNL     1       7.750   6.282  16.330  0.00  0.00    +0.000 OA
ATOM     15  C   UNL     1       6.314   4.225  17.062  0.00  0.00    +0.000 C 
ATOM     16  C   UNL     1       5.660   5.009  18.183  0.00  0.00    +0.000 C 
ENDROOT
BRANCH   1  18
ATOM     17  O   UNL     1      -0.084   5.900  20.723  0.00  0.00    +0.000 OA
ATOM     18  C   UNL     1       1.122   5.774  20.533  0.00  0.00    +0.000 C 
ATOM     19  N   UNL     1       2.040   6.822  20.527  0.00  0.00    +0.000 N 
ATOM     20  H   UNL     1       3.038   6.663  20.527  0.00  0.00    +0.000 HD
BRANCH  19  21
ATOM     21  C   UNL     1       1.616   8.096  20.757  0.00  0.00    +0.000 A 
ATOM     22  C   UNL     1       1.206   9.117  19.942  0.00  0.00    +0.000 A 
ATOM     23  C   UNL     1       0.805  10.140  20.819  0.00  0.00    +0.000 A 
ATOM     24  N   UNL     1       1.017   9.790  22.099  0.00  0.00    +0.000 NA
ATOM     25  O   UNL     1       1.578   8.520  22.052  0.00  0.00    +0.000 OA
BRANCH  23  26
ATOM     26  C   UNL     1       0.231  11.461  20.444  0.00  0.00    +0.000 C 
ATOM     27  C   UNL     1       0.085  11.676  18.938  0.00  0.00    +0.000 C 
ATOM     28  C   UNL     1      -0.879  12.852  18.839  0.00  0.00    +0.000 C 
ATOM     29  C   UNL     1      -1.776  12.770  20.073  0.00  0.00    +0.000 C 
ATOM     30  C   UNL     1      -1.178  11.698  20.980  0.00  0.00    +0.000 C 
ENDBRANCH  23  26
ENDBRANCH  19  21
ENDBRANCH   1  18
TORSDOF 3
ENDMDL
MODEL 5
REMARK VINA RESULT:      -7.6      8.279     10.766
REMARK  Name = 
REMARK  3 active torsions:
REMARK  status: ('A' for Active; 'I' for Inactive)
REMARK    1  A    between atoms: C_2  and  C_14
REMARK    2  A    between atoms: N_3  and  C_4
REMARK    3  A    between atoms: C_6  and  C_7
REMARK                            x       y       z     vdW  Elec       q    Type
REMARK                         _______ _______ _______ _____ _____    ______ ____
ROOT
ATOM      1  C   UNL     1       7.070   5.168  17.109  0.00  0.00    +0.000 C 
ATOM      2  C   UNL     1       7.013   5.741  15.661  0.00  0.00    +0.000 C 
ATOM      3  C   UNL     1       6.268   4.879  14.647  0.00  0.00    +0.000 C 
ATOM      4  C   UNL     1       4.952   4.372  15.216  0.00  0.00    +0.000 C 
ATOM      5  C   UNL     1       5.229   3.687  16.543  0.00  0.00    +0.000 C 
ATOM      6  N   UNL     1       5.709   4.697  17.482  0.00  0.00    +0.000 N 
ATOM      7  C   UNL     1       5.321   4.646  18.818  0.00  0.00    +0.000 C 
ATOM      8  O   UNL     1       6.153   4.692  19.724  0.00  0.00    +0.000 OA
ATOM      9  N   UNL     1       3.944   4.583  19.090  0.00  0.00    +0.000 N 
ATOM     10  C   UNL     1       3.491   4.707  20.484  0.00  0.00    +0.000 C 
ATOM     11  C   UNL     1       2.595   3.559  20.912  0.00  0.00    +0.000 C 
ATOM     12  S   UNL     1       1.223   3.340  19.806  0.00  0.00    +0.000 S 
ATOM     13  O   UNL     1       0.712   1.998  19.986  0.00  0.00    +0.000 OA
ATOM     14  O   UNL     1       0.348   4.485  19.918  0.00  0.00    +0.000 OA
ATOM     15  C   UNL     1       2.001   3.401  18.208  0.00  0.00    +0.000 C 
ATOM     16  C   UNL     1       2.836   4.664  18.129  0.00  0.00    +0.000 C 
ENDROOT
BRANCH   1  18
ATOM     17  O   UNL     1       8.127   6.200  19.053  0.00  0.00    +0.000 OA
ATOM     18  C   UNL     1       7.723   6.329  17.901  0.00  0.00    +0.000 C 
ATOM     19  N   UNL     1       7.660   7.538  17.210  0.00  0.00    +0.000 N 
ATOM     20  H   UNL     1       7.474   7.582  16.218  0.00  0.00    +0.000 HD
BRANCH  19  21
ATOM     21  C   UNL     1       8.079   8.686  17.813  0.00  0.00    +0.000 A 
ATOM     22  C   UNL     1       8.964   8.954  18.822  0.00  0.00    +0.000 A 
ATOM     23  C   UNL     1       9.014  10.358  18.895  0.00  0.00    +0.000 A 
ATOM     24  N   UNL     1       8.158  10.917  18.023  0.00  0.00    +0.000 NA
ATOM     25  O   UNL     1       7.532   9.857  17.380  0.00  0.00    +0.000 OA
BRANCH  23  26
ATOM     26  C   UNL     1       9.865  11.173  19.804  0.00  0.00    +0.000 C 
ATOM     27  C   UNL     1      11.244  11.508  19.239  0.00  0.00    +0.000 C 
ATOM     28  C   UNL     1      11.722  12.654  20.124  0.00  0.00    +0.000 C 
ATOM     29  C   UNL     1      10.463  13.391  20.578  0.00  0.00    +0.000 C 
ATOM     30  C   UNL     1       9.274  12.536  20.147  0.00  0.00    +0.000 C 
ENDBRANCH  23  26
ENDBRANCH  19  21
ENDBRANCH   1  18
TORSDOF 3
ENDMDL
MODEL 6
REMARK VINA RESULT:      -7.5      5.033     10.267
REMARK  Name = 
REMARK  3 active torsions:
REMARK  status: ('A' for Active; 'I' for Inactive)
REMARK    1  A    between atoms: C_2  and  C_14
REMARK    2  A    between atoms: N_3  and  C_4
REMARK    3  A    between atoms: C_6  and  C_7
REMARK                            x       y       z     vdW  Elec       q    Type
REMARK                         _______ _______ _______ _____ _____    ______ ____
ROOT
ATOM      1  C   UNL     1       1.816   5.408  19.962  0.00  0.00    +0.000 C 
ATOM      2  C   UNL     1       2.061   4.676  21.316  0.00  0.00    +0.000 C 
ATOM      3  C   UNL     1       2.343   3.180  21.207  0.00  0.00    +0.000 C 
ATOM      4  C   UNL     1       3.342   2.887  20.098  0.00  0.00    +0.000 C 
ATOM      5  C   UNL     1       2.846   3.531  18.815  0.00  0.00    +0.000 C 
ATOM      6  N   UNL     1       2.866   4.979  18.998  0.00  0.00    +0.000 N 
ATOM      7  C   UNL     1       3.238   5.809  17.946  0.00  0.00    +0.000 C 
ATOM      8  O   UNL     1       2.533   6.757  17.602  0.00  0.00    +0.000 OA
ATOM      9  N   UNL     1       4.470   5.549  17.322  0.00  0.00    +0.000 N 
ATOM     10  C   UNL     1       4.979   6.507  16.329  0.00  0.00    +0.000 C 
ATOM     11  C   UNL     1       5.323   5.851  15.004  0.00  0.00    +0.000 C 
ATOM     12  S   UNL     1       6.440   4.486  15.212  0.00  0.00    +0.000 S 
ATOM     13  O   UNL     1       6.346   3.648  14.036  0.00  0.00    +0.000 OA
ATOM     14  O   UNL     1       7.718   4.994  15.656  0.00  0.00    +0.000 OA
ATOM     15  C   UNL     1       5.708   3.589  16.562  0.00  0.00    +0.000 C 
ATOM     16  C   UNL     1       5.478   4.553  17.709  0.00  0.00    +0.000 C 
ENDROOT
BRANCH   1  18
ATOM     17  O   UNL     1       2.704   7.648  20.356  0.00  0.00    +0.000 OA
ATOM     18  C   UNL     1       1.737   6.893  20.397  0.00  0.00    +0.000 C 
ATOM     19  N   UNL     1       0.503   7.212  20.961  0.00  0.00    +0.000 N 
ATOM     20  H   UNL     1      -0.313   6.629  20.834  0.00  0.00    +0.000 HD
BRANCH  19  21
ATOM     21  C   UNL     1       0.305   8.444  21.508  0.00  0.00    +0.000 A 
ATOM     22  C   UNL     1      -0.424   9.539  21.131  0.00  0.00    +0.000 A 
ATOM     23  C   UNL     1      -0.282  10.451  22.191  0.00  0.00    +0.000 A 
ATOM     24  N   UNL     1       0.541   9.967  23.137  0.00  0.00    +0.000 NA
ATOM     25  O   UNL     1       0.950   8.723  22.676  0.00  0.00    +0.000 OA
BRANCH  23  26
ATOM     26  C   UNL     1      -0.916  11.793  22.304  0.00  0.00    +0.000 C 
ATOM     27  C   UNL     1      -1.401  12.370  20.975  0.00  0.00    +0.000 C 
ATOM     28  C   UNL     1      -2.353  13.484  21.397  0.00  0.00    +0.000 C 
ATOM     29  C   UNL     1      -2.944  13.049  22.737  0.00  0.00    +0.000 C 
ATOM     30  C   UNL     1      -2.163  11.816  23.183  0.00  0.00    +0.000 C 
ENDBRANCH  23  26
ENDBRANCH  19  21
ENDBRANCH   1  18
TORSDOF 3
ENDMDL
MODEL 7
REMARK VINA RESULT:      -7.5      3.279      4.134
REMARK  Name = 
REMARK  3 active torsions:
REMARK  status: ('A' for Active; 'I' for Inactive)
REMARK    1  A    between atoms: C_2  and  C_14
REMARK    2  A    between atoms: N_3  and  C_4
REMARK    3  A    between atoms: C_6  and  C_7
REMARK                            x       y       z     vdW  Elec       q    Type
REMARK                         _______ _______ _______ _____ _____    ______ ____
ROOT
ATOM      1  C   UNL     1       0.307  13.558  19.076  0.00  0.00    +0.000 C 
ATOM      2  C   UNL     1       1.441  14.596  18.820  0.00  0.00    +0.000 C 
ATOM      3  C   UNL     1       0.985  16.048  18.719  0.00  0.00    +0.000 C 
ATOM      4  C   UNL     1      -0.000  16.395  19.824  0.00  0.00    +0.000 C 
ATOM      5  C   UNL     1      -1.128  15.377  19.805  0.00  0.00    +0.000 C 
ATOM      6  N   UNL     1      -0.569  14.076  20.162  0.00  0.00    +0.000 N 
ATOM      7  C   UNL     1      -1.299  13.200  20.959  0.00  0.00    +0.000 C 
ATOM      8  O   UNL     1      -1.482  12.032  20.617  0.00  0.00    +0.000 OA
ATOM      9  N   UNL     1      -1.779  13.688  22.185  0.00  0.00    +0.000 N 
ATOM     10  C   UNL     1      -2.398  12.747  23.130  0.00  0.00    +0.000 C 
ATOM     11  C   UNL     1      -3.783  13.185  23.572  0.00  0.00    +0.000 C 
ATOM     12  S   UNL     1      -3.778  14.838  24.221  0.00  0.00    +0.000 S 
ATOM     13  O   UNL     1      -5.134  15.343  24.171  0.00  0.00    +0.000 OA
ATOM     14  O   UNL     1      -3.031  14.850  25.458  0.00  0.00    +0.000 OA
ATOM     15  C   UNL     1      -2.835  15.729  23.004  0.00  0.00    +0.000 C 
ATOM     16  C   UNL     1      -1.522  15.003  22.789  0.00  0.00    +0.000 C 
ENDROOT
BRANCH   1  18
ATOM     17  O   UNL     1       2.088  12.181  20.022  0.00  0.00    +0.000 OA
ATOM     18  C   UNL     1       1.101  12.245  19.294  0.00  0.00    +0.000 C 
ATOM     19  N   UNL     1       0.652  11.215  18.469  0.00  0.00    +0.000 N 
ATOM     20  H   UNL     1      -0.247  11.246  18.010  0.00  0.00    +0.000 HD
BRANCH  19  21
ATOM     21  C   UNL     1       1.319  10.026  18.445  0.00  0.00    +0.000 A 
ATOM     22  C   UNL     1       1.410   8.976  19.318  0.00  0.00    +0.000 A 
ATOM     23  C   UNL     1       2.182   8.013  18.645  0.00  0.00    +0.000 A 
ATOM     24  N   UNL     1       2.595   8.473  17.452  0.00  0.00    +0.000 NA
ATOM     25  O   UNL     1       2.092   9.763  17.353  0.00  0.00    +0.000 OA
BRANCH  23  26
ATOM     26  C   UNL     1       2.543   6.657  19.140  0.00  0.00    +0.000 C 
ATOM     27  C   UNL     1       1.834   6.251  20.431  0.00  0.00    +0.000 C 
ATOM     28  C   UNL     1       2.026   4.740  20.483  0.00  0.00    +0.000 C 
ATOM     29  C   UNL     1       2.107   4.274  19.030  0.00  0.00    +0.000 C 
ATOM     30  C   UNL     1       2.196   5.532  18.170  0.00  0.00    +0.000 C 
ENDBRANCH  23  26
ENDBRANCH  19  21
ENDBRANCH   1  18
TORSDOF 3
ENDMDL
MODEL 8
REMARK VINA RESULT:      -7.4      3.823      4.768
REMARK  Name = 
REMARK  3 active torsions:
REMARK  status: ('A' for Active; 'I' for Inactive)
REMARK    1  A    between atoms: C_2  and  C_14
REMARK    2  A    between atoms: N_3  and  C_4
REMARK    3  A    between atoms: C_6  and  C_7
REMARK                            x       y       z     vdW  Elec       q    Type
REMARK                         _______ _______ _______ _____ _____    ______ ____
ROOT
ATOM      1  C   UNL     1      -0.119  11.540  21.873  0.00  0.00    +0.000 C 
ATOM      2  C   UNL     1      -1.600  11.342  22.317  0.00  0.00    +0.000 C 
ATOM      3  C   UNL     1      -2.183  12.470  23.164  0.00  0.00    +0.000 C 
ATOM      4  C   UNL     1      -1.835  13.832  22.582  0.00  0.00    +0.000 C 
ATOM      5  C   UNL     1      -0.331  13.905  22.384  0.00  0.00    +0.000 C 
ATOM      6  N   UNL     1       0.038  12.929  21.363  0.00  0.00    +0.000 N 
ATOM      7  C   UNL     1       1.031  13.231  20.437  0.00  0.00    +0.000 C 
ATOM      8  O   UNL     1       1.974  12.465  20.241  0.00  0.00    +0.000 OA
ATOM      9  N   UNL     1       0.891  14.422  19.704  0.00  0.00    +0.000 N 
ATOM     10  C   UNL     1       1.821  14.687  18.597  0.00  0.00    +0.000 C 
ATOM     11  C   UNL     1       2.507  16.036  18.717  0.00  0.00    +0.000 C 
ATOM     12  S   UNL     1       1.338  17.359  18.906  0.00  0.00    +0.000 S 
ATOM     13  O   UNL     1       2.034  18.493  19.475  0.00  0.00    +0.000 OA
ATOM     14  O   UNL     1       0.586  17.494  17.679  0.00  0.00    +0.000 OA
ATOM     15  C   UNL     1       0.240  16.730  20.155  0.00  0.00    +0.000 C 
ATOM     16  C   UNL     1      -0.241  15.358  19.723  0.00  0.00    +0.000 C 
ENDROOT
BRANCH   1  18
ATOM     17  O   UNL     1      -0.711  10.024  20.053  0.00  0.00    +0.000 OA
ATOM     18  C   UNL     1       0.102  10.342  20.915  0.00  0.00    +0.000 C 
ATOM     19  N   UNL     1       1.240   9.607  21.245  0.00  0.00    +0.000 N 
ATOM     20  H   UNL     1       1.966   9.978  21.842  0.00  0.00    +0.000 HD
BRANCH  19  21
ATOM     21  C   UNL     1       1.516   8.450  20.579  0.00  0.00    +0.000 A 
ATOM     22  C   UNL     1       1.984   8.172  19.324  0.00  0.00    +0.000 A 
ATOM     23  C   UNL     1       2.144   6.775  19.300  0.00  0.00    +0.000 A 
ATOM     24  N   UNL     1       1.735   6.222  20.455  0.00  0.00    +0.000 NA
ATOM     25  O   UNL     1       1.291   7.279  21.239  0.00  0.00    +0.000 OA
BRANCH  23  26
ATOM     26  C   UNL     1       2.671   5.958  18.173  0.00  0.00    +0.000 C 
ATOM     27  C   UNL     1       4.119   5.506  18.350  0.00  0.00    +0.000 C 
ATOM     28  C   UNL     1       4.269   4.382  17.332  0.00  0.00    +0.000 C 
ATOM     29  C   UNL     1       2.885   3.751  17.192  0.00  0.00    +0.000 C 
ATOM     30  C   UNL     1       1.912   4.654  17.946  0.00  0.00    +0.000 C 
ENDBRANCH  23  26
ENDBRANCH  19  21
ENDBRANCH   1  18
TORSDOF 3
ENDMDL
MODEL 9
REMARK VINA RESULT:      -7.3      1.320      1.698
REMARK  Name = 
REMARK  3 active torsions:
REMARK  status: ('A' for Active; 'I' for Inactive)
REMARK    1  A    between atoms: C_2  and  C_14
REMARK    2  A    between atoms: N_3  and  C_4
REMARK    3  A    between atoms: C_6  and  C_7
REMARK                            x       y       z     vdW  Elec       q    Type
REMARK                         _______ _______ _______ _____ _____    ______ ____
ROOT
ATOM      1  C   UNL     1      -0.042  13.044  20.182  0.00  0.00    +0.000 C 
ATOM      2  C   UNL     1       0.180  13.095  21.724  0.00  0.00    +0.000 C 
ATOM      3  C   UNL     1      -0.730  14.056  22.482  0.00  0.00    +0.000 C 
ATOM      4  C   UNL     1      -2.173  13.930  22.019  0.00  0.00    +0.000 C 
ATOM      5  C   UNL     1      -2.213  14.084  20.508  0.00  0.00    +0.000 C 
ATOM      6  N   UNL     1      -1.504  12.952  19.920  0.00  0.00    +0.000 N 
ATOM      7  C   UNL     1      -1.974  12.369  18.747  0.00  0.00    +0.000 C 
ATOM      8  O   UNL     1      -1.231  12.191  17.782  0.00  0.00    +0.000 OA
ATOM      9  N   UNL     1      -3.316  11.952  18.725  0.00  0.00    +0.000 N 
ATOM     10  C   UNL     1      -3.798  11.175  17.574  0.00  0.00    +0.000 C 
ATOM     11  C   UNL     1      -5.035  11.780  16.935  0.00  0.00    +0.000 C 
ATOM     12  S   UNL     1      -6.330  12.045  18.120  0.00  0.00    +0.000 S 
ATOM     13  O   UNL     1      -7.247  13.020  17.571  0.00  0.00    +0.000 OA
ATOM     14  O   UNL     1      -6.807  10.762  18.583  0.00  0.00    +0.000 OA
ATOM     15  C   UNL     1      -5.469  12.826  19.466  0.00  0.00    +0.000 C 
ATOM     16  C   UNL     1      -4.277  11.966  19.836  0.00  0.00    +0.000 C 
ENDROOT
BRANCH   1  18
ATOM     17  O   UNL     1       1.899  12.059  19.076  0.00  0.00    +0.000 OA
ATOM     18  C   UNL     1       0.889  11.883  19.751  0.00  0.00    +0.000 C 
ATOM     19  N   UNL     1       0.369  10.636  20.093  0.00  0.00    +0.000 N 
ATOM     20  H   UNL     1      -0.366  10.529  20.779  0.00  0.00    +0.000 HD
BRANCH  19  21
ATOM     21  C   UNL     1       1.001   9.501  19.681  0.00  0.00    +0.000 A 
ATOM     22  C   UNL     1       1.343   9.003  18.453  0.00  0.00    +0.000 A 
ATOM     23  C   UNL     1       2.070   7.832  18.728  0.00  0.00    +0.000 A 
ATOM     24  N   UNL     1       2.116   7.591  20.049  0.00  0.00    +0.000 NA
ATOM     25  O   UNL     1       1.395   8.619  20.643  0.00  0.00    +0.000 OA
BRANCH  23  26
ATOM     26  C   UNL     1       2.712   6.928  17.735  0.00  0.00    +0.000 C 
ATOM     27  C   UNL     1       4.205   7.178  17.533  0.00  0.00    +0.000 C 
ATOM     28  C   UNL     1       4.688   5.909  16.840  0.00  0.00    +0.000 C 
ATOM     29  C   UNL     1       3.774   4.787  17.328  0.00  0.00    +0.000 C 
ATOM     30  C   UNL     1       2.641   5.450  18.107  0.00  0.00    +0.000 C 
ENDBRANCH  23  26
ENDBRANCH  19  21
ENDBRANCH   1  18
TORSDOF 3
ENDMDL
