MODEL 1
REMARK VINA RESULT:      -7.2      0.000      0.000
REMARK  Name = 
REMARK  7 active torsions:
REMARK  status: ('A' for Active; 'I' for Inactive)
REMARK    1  A    between atoms: C_1  and  O_2
REMARK    2  A    between atoms: O_2  and  C_3
REMARK    3  A    between atoms: C_9  and  C_10
REMARK    4  A    between atoms: C_18  and  C_19
REMARK    5  A    between atoms: C_19  and  C_20
REMARK    6  A    between atoms: C_20  and  O_22
REMARK    7  A    between atoms: N_27  and  C_28
REMARK                            x       y       z     vdW  Elec       q    Type
REMARK                         _______ _______ _______ _____ _____    ______ ____
ROOT
ATOM      1  C   UNL     1      -2.881  11.424  16.898  0.00  0.00    +0.000 A 
ATOM      2  C   UNL     1      -4.170  11.557  17.391  0.00  0.00    +0.000 A 
ATOM      3  C   UNL     1      -4.372  11.919  18.726  0.00  0.00    +0.000 A 
ATOM      4  C   UNL     1      -3.306  12.243  19.587  0.00  0.00    +0.000 A 
ATOM      5  C   UNL     1      -1.997  12.093  19.086  0.00  0.00    +0.000 A 
ATOM      6  C   UNL     1      -1.806  11.649  17.759  0.00  0.00    +0.000 A 
ATOM      7  C   UNL     1      -0.767  12.411  19.903  0.00  0.00    +0.000 C 
ATOM      8  N   UNL     1      -0.598  12.126  21.158  0.00  0.00    +0.000 NA
ATOM      9  C   UNL     1      -1.629  11.368  21.905  0.00  0.00    +0.000 C 
ATOM     10  C   UNL     1      -2.874  12.212  22.014  0.00  0.00    +0.000 A 
ATOM     11  S   UNL     1      -3.522  12.792  23.531  0.00  0.00    +0.000 S 
ATOM     12  C   UNL     1      -4.784  13.704  22.719  0.00  0.00    +0.000 A 
ATOM     13  O   UNL     1      -5.606  14.385  23.304  0.00  0.00    +0.000 OA
ATOM     14  N   UNL     1      -4.643  13.506  21.349  0.00  0.00    +0.000 N 
ATOM     15  C   UNL     1      -5.485  14.268  20.451  0.00  0.00    +0.000 C 
ATOM     16  C   UNL     1      -3.603  12.662  20.974  0.00  0.00    +0.000 A 
ENDROOT
BRANCH   7  17
ATOM     17  C   UNL     1       0.388  13.072  19.188  0.00  0.00    +0.000 A 
ATOM     18  C   UNL     1       1.488  12.330  18.735  0.00  0.00    +0.000 A 
ATOM     19  C   UNL     1       2.618  12.984  18.233  0.00  0.00    +0.000 A 
ATOM     20  C   UNL     1       2.633  14.374  18.139  0.00  0.00    +0.000 A 
ATOM     21 CL   UNL     1       4.041  15.179  17.569  0.00  0.00    +0.000 Cl
ATOM     22  C   UNL     1       1.521  15.118  18.528  0.00  0.00    +0.000 A 
ATOM     23  C   UNL     1       0.403  14.469  19.058  0.00  0.00    +0.000 A 
ENDBRANCH   7  17
BRANCH   1  25
ATOM     24  C   UNL     1      -3.358  10.108  14.977  0.00  0.00    +0.000 C 
ATOM     25  O   UNL     1      -2.541  11.082  15.621  0.00  0.00    +0.000 OA
ENDBRANCH   1  25
BRANCH   9  26
ATOM     26  C   UNL     1      -1.029  10.984  23.268  0.00  0.00    +0.000 C 
BRANCH  26  27
ATOM     27  C   UNL     1      -0.214   9.720  23.215  0.00  0.00    +0.000 C 
ATOM     28  O   UNL     1       0.989   9.668  23.423  0.00  0.00    +0.000 OA
BRANCH  27  29
ATOM     29  O   UNL     1      -0.938   8.644  22.833  0.00  0.00    +0.000 OA
ATOM     30  H   UNL     1      -1.680   8.946  22.256  0.00  0.00    +0.000 HD
ENDBRANCH  27  29
ENDBRANCH  26  27
ENDBRANCH   9  26
TORSDOF 5
ENDMDL
MODEL 2
REMARK VINA RESULT:      -7.2      3.151      5.530
REMARK  Name = 
REMARK  7 active torsions:
REMARK  status: ('A' for Active; 'I' for Inactive)
REMARK    1  A    between atoms: C_1  and  O_2
REMARK    2  A    between atoms: O_2  and  C_3
REMARK    3  A    between atoms: C_9  and  C_10
REMARK    4  A    between atoms: C_18  and  C_19
REMARK    5  A    between atoms: C_19  and  C_20
REMARK    6  A    between atoms: C_20  and  O_22
REMARK    7  A    between atoms: N_27  and  C_28
REMARK                            x       y       z     vdW  Elec       q    Type
REMARK                         _______ _______ _______ _____ _____    ______ ____
ROOT
ATOM      1  C   UNL     1       1.989  13.568  20.834  0.00  0.00    +0.000 A 
ATOM      2  C   UNL     1       1.048  14.338  21.500  0.00  0.00    +0.000 A 
ATOM      3  C   UNL     1      -0.312  14.033  21.383  0.00  0.00    +0.000 A 
ATOM      4  C   UNL     1      -0.771  12.907  20.675  0.00  0.00    +0.000 A 
ATOM      5  C   UNL     1       0.187  12.135  19.989  0.00  0.00    +0.000 A 
ATOM      6  C   UNL     1       1.550  12.501  20.049  0.00  0.00    +0.000 A 
ATOM      7  C   UNL     1      -0.172  10.900  19.195  0.00  0.00    +0.000 C 
ATOM      8  N   UNL     1      -1.209  10.771  18.425  0.00  0.00    +0.000 NA
ATOM      9  C   UNL     1      -2.130  11.910  18.203  0.00  0.00    +0.000 C 
ATOM     10  C   UNL     1      -2.831  12.233  19.498  0.00  0.00    +0.000 A 
ATOM     11  S   UNL     1      -4.556  12.078  19.732  0.00  0.00    +0.000 S 
ATOM     12  C   UNL     1      -4.432  12.513  21.429  0.00  0.00    +0.000 A 
ATOM     13  O   UNL     1      -5.387  12.563  22.183  0.00  0.00    +0.000 OA
ATOM     14  N   UNL     1      -3.092  12.758  21.713  0.00  0.00    +0.000 N 
ATOM     15  C   UNL     1      -2.712  13.001  23.088  0.00  0.00    +0.000 C 
ATOM     16  C   UNL     1      -2.223  12.625  20.635  0.00  0.00    +0.000 A 
ENDROOT
BRANCH   7  17
ATOM     17  C   UNL     1       0.781   9.731  19.264  0.00  0.00    +0.000 A 
ATOM     18  C   UNL     1       1.479   9.290  18.130  0.00  0.00    +0.000 A 
ATOM     19  C   UNL     1       2.220   8.104  18.178  0.00  0.00    +0.000 A 
ATOM     20  C   UNL     1       2.305   7.384  19.368  0.00  0.00    +0.000 A 
ATOM     21 CL   UNL     1       3.174   5.902  19.411  0.00  0.00    +0.000 Cl
ATOM     22  C   UNL     1       1.667   7.846  20.517  0.00  0.00    +0.000 A 
ATOM     23  C   UNL     1       0.900   9.014  20.463  0.00  0.00    +0.000 A 
ENDBRANCH   7  17
BRANCH   1  25
ATOM     24  C   UNL     1       3.812  15.093  20.784  0.00  0.00    +0.000 C 
ATOM     25  O   UNL     1       3.341  13.750  20.863  0.00  0.00    +0.000 OA
ENDBRANCH   1  25
BRANCH   9  26
ATOM     26  C   UNL     1      -3.092  11.517  17.068  0.00  0.00    +0.000 C 
BRANCH  26  27
ATOM     27  C   UNL     1      -3.019  10.056  16.718  0.00  0.00    +0.000 C 
ATOM     28  O   UNL     1      -2.673   9.626  15.629  0.00  0.00    +0.000 OA
BRANCH  27  29
ATOM     29  O   UNL     1      -3.453   9.254  17.718  0.00  0.00    +0.000 OA
ATOM     30  H   UNL     1      -2.694   8.717  18.049  0.00  0.00    +0.000 HD
ENDBRANCH  27  29
ENDBRANCH  26  27
ENDBRANCH   9  26
TORSDOF 5
ENDMDL
MODEL 3
REMARK VINA RESULT:      -7.2      3.003      5.430
REMARK  Name = 
REMARK  7 active torsions:
REMARK  status: ('A' for Active; 'I' for Inactive)
REMARK    1  A    between atoms: C_1  and  O_2
REMARK    2  A    between atoms: O_2  and  C_3
REMARK    3  A    between atoms: C_9  and  C_10
REMARK    4  A    between atoms: C_18  and  C_19
REMARK    5  A    between atoms: C_19  and  C_20
REMARK    6  A    between atoms: C_20  and  O_22
REMARK    7  A    between atoms: N_27  and  C_28
REMARK                            x       y       z     vdW  Elec       q    Type
REMARK                         _______ _______ _______ _____ _____    ______ ____
ROOT
ATOM      1  C   UNL     1       1.969  13.920  19.861  0.00  0.00    +0.000 A 
ATOM      2  C   UNL     1       1.141  14.782  20.562  0.00  0.00    +0.000 A 
ATOM      3  C   UNL     1      -0.206  14.456  20.750  0.00  0.00    +0.000 A 
ATOM      4  C   UNL     1      -0.749  13.229  20.324  0.00  0.00    +0.000 A 
ATOM      5  C   UNL     1       0.093  12.362  19.600  0.00  0.00    +0.000 A 
ATOM      6  C   UNL     1       1.431  12.739  19.346  0.00  0.00    +0.000 A 
ATOM      7  C   UNL     1      -0.363  11.015  19.089  0.00  0.00    +0.000 C 
ATOM      8  N   UNL     1      -1.518  10.759  18.556  0.00  0.00    +0.000 NA
ATOM      9  C   UNL     1      -2.503  11.845  18.334  0.00  0.00    +0.000 C 
ATOM     10  C   UNL     1      -2.965  12.366  19.672  0.00  0.00    +0.000 A 
ATOM     11  S   UNL     1      -4.612  12.242  20.244  0.00  0.00    +0.000 S 
ATOM     12  C   UNL     1      -4.194  12.942  21.800  0.00  0.00    +0.000 A 
ATOM     13  O   UNL     1      -4.995  13.107  22.702  0.00  0.00    +0.000 OA
ATOM     14  N   UNL     1      -2.834  13.235  21.787  0.00  0.00    +0.000 N 
ATOM     15  C   UNL     1      -2.216  13.696  23.012  0.00  0.00    +0.000 C 
ATOM     16  C   UNL     1      -2.173  12.937  20.600  0.00  0.00    +0.000 A 
ENDROOT
BRANCH   7  17
ATOM     17  C   UNL     1       0.627   9.876  19.159  0.00  0.00    +0.000 A 
ATOM     18  C   UNL     1       1.271   9.396  18.010  0.00  0.00    +0.000 A 
ATOM     19  C   UNL     1       2.048   8.234  18.073  0.00  0.00    +0.000 A 
ATOM     20  C   UNL     1       2.221   7.579  19.290  0.00  0.00    +0.000 A 
ATOM     21 CL   UNL     1       3.134   6.124  19.356  0.00  0.00    +0.000 Cl
ATOM     22  C   UNL     1       1.637   8.082  20.450  0.00  0.00    +0.000 A 
ATOM     23  C   UNL     1       0.835   9.225  20.384  0.00  0.00    +0.000 A 
ENDBRANCH   7  17
BRANCH   1  25
ATOM     24  C   UNL     1       3.668  14.337  18.251  0.00  0.00    +0.000 C 
ATOM     25  O   UNL     1       3.297  14.111  19.608  0.00  0.00    +0.000 OA
ENDBRANCH   1  25
BRANCH   9  26
ATOM     26  C   UNL     1      -3.643  11.271  17.475  0.00  0.00    +0.000 C 
BRANCH  26  27
ATOM     27  C   UNL     1      -3.179  10.806  16.121  0.00  0.00    +0.000 C 
ATOM     28  O   UNL     1      -3.601   9.810  15.554  0.00  0.00    +0.000 OA
BRANCH  27  29
ATOM     29  O   UNL     1      -2.181  11.568  15.618  0.00  0.00    +0.000 OA
ATOM     30  H   UNL     1      -2.341  11.708  14.653  0.00  0.00    +0.000 HD
ENDBRANCH  27  29
ENDBRANCH  26  27
ENDBRANCH   9  26
TORSDOF 5
ENDMDL
MODEL 4
REMARK VINA RESULT:      -7.1      3.188      5.664
REMARK  Name = 
REMARK  7 active torsions:
REMARK  status: ('A' for Active; 'I' for Inactive)
REMARK    1  A    between atoms: C_1  and  O_2
REMARK    2  A    between atoms: O_2  and  C_3
REMARK    3  A    between atoms: C_9  and  C_10
REMARK    4  A    between atoms: C_18  and  C_19
REMARK    5  A    between atoms: C_19  and  C_20
REMARK    6  A    between atoms: C_20  and  O_22
REMARK    7  A    between atoms: N_27  and  C_28
REMARK                            x       y       z     vdW  Elec       q    Type
REMARK                         _______ _______ _______ _____ _____    ______ ____
ROOT
ATOM      1  C   UNL     1       2.727  13.697  18.594  0.00  0.00    +0.000 A 
ATOM      2  C   UNL     1       2.066  14.749  19.208  0.00  0.00    +0.000 A 
ATOM      3  C   UNL     1       0.747  14.585  19.642  0.00  0.00    +0.000 A 
ATOM      4  C   UNL     1       0.075  13.351  19.557  0.00  0.00    +0.000 A 
ATOM      5  C   UNL     1       0.747  12.288  18.920  0.00  0.00    +0.000 A 
ATOM      6  C   UNL     1       2.050  12.490  18.414  0.00  0.00    +0.000 A 
ATOM      7  C   UNL     1       0.142  10.912  18.767  0.00  0.00    +0.000 C 
ATOM      8  N   UNL     1      -1.094  10.659  18.461  0.00  0.00    +0.000 NA
ATOM      9  C   UNL     1      -2.037  11.761  18.157  0.00  0.00    +0.000 C 
ATOM     10  C   UNL     1      -2.260  12.574  19.408  0.00  0.00    +0.000 A 
ATOM     11  S   UNL     1      -3.805  12.709  20.214  0.00  0.00    +0.000 S 
ATOM     12  C   UNL     1      -3.116  13.662  21.518  0.00  0.00    +0.000 A 
ATOM     13  O   UNL     1      -3.760  14.070  22.467  0.00  0.00    +0.000 OA
ATOM     14  N   UNL     1      -1.759  13.827  21.259  0.00  0.00    +0.000 N 
ATOM     15  C   UNL     1      -0.937  14.464  22.265  0.00  0.00    +0.000 C 
ATOM     16  C   UNL     1      -1.304  13.244  20.081  0.00  0.00    +0.000 A 
ENDROOT
BRANCH   7  17
ATOM     17  C   UNL     1       1.063   9.727  18.936  0.00  0.00    +0.000 A 
ATOM     18  C   UNL     1       1.745   9.172  17.844  0.00  0.00    +0.000 A 
ATOM     19  C   UNL     1       2.454   7.975  17.994  0.00  0.00    +0.000 A 
ATOM     20  C   UNL     1       2.521   7.358  19.241  0.00  0.00    +0.000 A 
ATOM     21 CL   UNL     1       3.350   5.861  19.412  0.00  0.00    +0.000 Cl
ATOM     22  C   UNL     1       1.899   7.934  20.346  0.00  0.00    +0.000 A 
ATOM     23  C   UNL     1       1.165   9.113  20.193  0.00  0.00    +0.000 A 
ENDBRANCH   7  17
BRANCH   1  25
ATOM     24  C   UNL     1       4.749  14.921  18.328  0.00  0.00    +0.000 C 
ATOM     25  O   UNL     1       4.010  13.718  18.128  0.00  0.00    +0.000 OA
ENDBRANCH   1  25
BRANCH   9  26
ATOM     26  C   UNL     1      -3.325  11.132  17.599  0.00  0.00    +0.000 C 
BRANCH  26  27
ATOM     27  C   UNL     1      -3.199  10.719  16.158  0.00  0.00    +0.000 C 
ATOM     28  O   UNL     1      -3.035   9.568  15.783  0.00  0.00    +0.000 OA
BRANCH  27  29
ATOM     29  O   UNL     1      -3.210  11.772  15.308  0.00  0.00    +0.000 OA
ATOM     30  H   UNL     1      -3.438  11.449  14.403  0.00  0.00    +0.000 HD
ENDBRANCH  27  29
ENDBRANCH  26  27
ENDBRANCH   9  26
TORSDOF 5
ENDMDL
MODEL 5
REMARK VINA RESULT:      -6.8      3.046      5.360
REMARK  Name = 
REMARK  7 active torsions:
REMARK  status: ('A' for Active; 'I' for Inactive)
REMARK    1  A    between atoms: C_1  and  O_2
REMARK    2  A    between atoms: O_2  and  C_3
REMARK    3  A    between atoms: C_9  and  C_10
REMARK    4  A    between atoms: C_18  and  C_19
REMARK    5  A    between atoms: C_19  and  C_20
REMARK    6  A    between atoms: C_20  and  O_22
REMARK    7  A    between atoms: N_27  and  C_28
REMARK                            x       y       z     vdW  Elec       q    Type
REMARK                         _______ _______ _______ _____ _____    ______ ____
ROOT
ATOM      1  C   UNL     1       0.525  14.260  20.162  0.00  0.00    +0.000 A 
ATOM      2  C   UNL     1      -0.520  14.941  20.766  0.00  0.00    +0.000 A 
ATOM      3  C   UNL     1      -1.811  14.406  20.733  0.00  0.00    +0.000 A 
ATOM      4  C   UNL     1      -2.088  13.143  20.177  0.00  0.00    +0.000 A 
ATOM      5  C   UNL     1      -1.025  12.461  19.552  0.00  0.00    +0.000 A 
ATOM      6  C   UNL     1       0.259  13.050  19.521  0.00  0.00    +0.000 A 
ATOM      7  C   UNL     1      -1.186  11.098  18.920  0.00  0.00    +0.000 C 
ATOM      8  N   UNL     1      -2.199  10.710  18.207  0.00  0.00    +0.000 NA
ATOM      9  C   UNL     1      -3.300  11.648  17.886  0.00  0.00    +0.000 C 
ATOM     10  C   UNL     1      -4.025  12.005  19.160  0.00  0.00    +0.000 A 
ATOM     11  S   UNL     1      -5.696  11.599  19.470  0.00  0.00    +0.000 S 
ATOM     12  C   UNL     1      -5.620  12.249  21.100  0.00  0.00    +0.000 A 
ATOM     13  O   UNL     1      -6.558  12.233  21.876  0.00  0.00    +0.000 OA
ATOM     14  N   UNL     1      -4.336  12.742  21.306  0.00  0.00    +0.000 N 
ATOM     15  C   UNL     1      -3.979  13.207  22.629  0.00  0.00    +0.000 C 
ATOM     16  C   UNL     1      -3.473  12.624  20.221  0.00  0.00    +0.000 A 
ENDROOT
BRANCH   7  17
ATOM     17  C   UNL     1      -0.050  10.117  19.089  0.00  0.00    +0.000 A 
ATOM     18  C   UNL     1       0.735   9.713  18.000  0.00  0.00    +0.000 A 
ATOM     19  C   UNL     1       1.664   8.678  18.149  0.00  0.00    +0.000 A 
ATOM     20  C   UNL     1       1.845   8.080  19.395  0.00  0.00    +0.000 A 
ATOM     21 CL   UNL     1       2.951   6.775  19.564  0.00  0.00    +0.000 Cl
ATOM     22  C   UNL     1       1.115   8.516  20.497  0.00  0.00    +0.000 A 
ATOM     23  C   UNL     1       0.164   9.529  20.344  0.00  0.00    +0.000 A 
ENDBRANCH   7  17
BRANCH   1  25
ATOM     24  C   UNL     1       2.073  16.065  20.210  0.00  0.00    +0.000 C 
ATOM     25  O   UNL     1       1.829  14.663  20.122  0.00  0.00    +0.000 OA
ENDBRANCH   1  25
BRANCH   9  26
ATOM     26  C   UNL     1      -4.200  10.970  16.840  0.00  0.00    +0.000 C 
BRANCH  26  27
ATOM     27  C   UNL     1      -3.446  10.530  15.614  0.00  0.00    +0.000 C 
ATOM     28  O   UNL     1      -3.470  11.118  14.544  0.00  0.00    +0.000 OA
BRANCH  27  29
ATOM     29  O   UNL     1      -2.790   9.360  15.793  0.00  0.00    +0.000 OA
ATOM     30  H   UNL     1      -1.827   9.548  15.905  0.00  0.00    +0.000 HD
ENDBRANCH  27  29
ENDBRANCH  26  27
ENDBRANCH   9  26
TORSDOF 5
ENDMDL
MODEL 6
REMARK VINA RESULT:      -6.7      3.194      4.094
REMARK  Name = 
REMARK  7 active torsions:
REMARK  status: ('A' for Active; 'I' for Inactive)
REMARK    1  A    between atoms: C_1  and  O_2
REMARK    2  A    between atoms: O_2  and  C_3
REMARK    3  A    between atoms: C_9  and  C_10
REMARK    4  A    between atoms: C_18  and  C_19
REMARK    5  A    between atoms: C_19  and  C_20
REMARK    6  A    between atoms: C_20  and  O_22
REMARK    7  A    between atoms: N_27  and  C_28
REMARK                            x       y       z     vdW  Elec       q    Type
REMARK                         _______ _______ _______ _____ _____    ______ ____
ROOT
ATOM      1  C   UNL     1      -2.002  10.283  16.690  0.00  0.00    +0.000 A 
ATOM      2  C   UNL     1      -2.444  11.594  16.768  0.00  0.00    +0.000 A 
ATOM      3  C   UNL     1      -2.075  12.391  17.856  0.00  0.00    +0.000 A 
ATOM      4  C   UNL     1      -1.189  11.939  18.852  0.00  0.00    +0.000 A 
ATOM      5  C   UNL     1      -0.753  10.601  18.776  0.00  0.00    +0.000 A 
ATOM      6  C   UNL     1      -1.198   9.782  17.715  0.00  0.00    +0.000 A 
ATOM      7  C   UNL     1       0.200   9.992  19.778  0.00  0.00    +0.000 C 
ATOM      8  N   UNL     1       0.173  10.184  21.061  0.00  0.00    +0.000 NA
ATOM      9  C   UNL     1      -0.896  11.004  21.679  0.00  0.00    +0.000 C 
ATOM     10  C   UNL     1      -0.740  12.434  21.225  0.00  0.00    +0.000 A 
ATOM     11  S   UNL     1      -0.372  13.758  22.305  0.00  0.00    +0.000 S 
ATOM     12  C   UNL     1      -0.268  14.900  20.975  0.00  0.00    +0.000 A 
ATOM     13  O   UNL     1       0.001  16.079  21.119  0.00  0.00    +0.000 OA
ATOM     14  N   UNL     1      -0.526  14.210  19.795  0.00  0.00    +0.000 N 
ATOM     15  C   UNL     1      -0.363  14.908  18.538  0.00  0.00    +0.000 C 
ATOM     16  C   UNL     1      -0.809  12.857  19.949  0.00  0.00    +0.000 A 
ENDROOT
BRANCH   7  17
ATOM     17  C   UNL     1       1.247   9.040  19.248  0.00  0.00    +0.000 A 
ATOM     18  C   UNL     1       1.817   9.213  17.979  0.00  0.00    +0.000 A 
ATOM     19  C   UNL     1       2.652   8.228  17.444  0.00  0.00    +0.000 A 
ATOM     20  C   UNL     1       2.957   7.092  18.192  0.00  0.00    +0.000 A 
ATOM     21 CL   UNL     1       3.943   5.859  17.512  0.00  0.00    +0.000 Cl
ATOM     22  C   UNL     1       2.446   6.940  19.479  0.00  0.00    +0.000 A 
ATOM     23  C   UNL     1       1.587   7.909  20.004  0.00  0.00    +0.000 A 
ENDBRANCH   7  17
BRANCH   1  25
ATOM     24  C   UNL     1      -3.004   9.905  14.567  0.00  0.00    +0.000 C 
ATOM     25  O   UNL     1      -2.282   9.400  15.687  0.00  0.00    +0.000 OA
ENDBRANCH   1  25
BRANCH   9  26
ATOM     26  C   UNL     1      -0.793  10.831  23.204  0.00  0.00    +0.000 C 
BRANCH  26  27
ATOM     27  C   UNL     1      -0.194   9.510  23.605  0.00  0.00    +0.000 C 
ATOM     28  O   UNL     1       0.814   9.390  24.284  0.00  0.00    +0.000 OA
BRANCH  27  29
ATOM     29  O   UNL     1      -0.847   8.453  23.070  0.00  0.00    +0.000 OA
ATOM     30  H   UNL     1      -1.522   8.785  22.430  0.00  0.00    +0.000 HD
ENDBRANCH  27  29
ENDBRANCH  26  27
ENDBRANCH   9  26
TORSDOF 5
ENDMDL
MODEL 7
REMARK VINA RESULT:      -6.5      2.698      3.838
REMARK  Name = 
REMARK  7 active torsions:
REMARK  status: ('A' for Active; 'I' for Inactive)
REMARK    1  A    between atoms: C_1  and  O_2
REMARK    2  A    between atoms: O_2  and  C_3
REMARK    3  A    between atoms: C_9  and  C_10
REMARK    4  A    between atoms: C_18  and  C_19
REMARK    5  A    between atoms: C_19  and  C_20
REMARK    6  A    between atoms: C_20  and  O_22
REMARK    7  A    between atoms: N_27  and  C_28
REMARK                            x       y       z     vdW  Elec       q    Type
REMARK                         _______ _______ _______ _____ _____    ______ ____
ROOT
ATOM      1  C   UNL     1       0.185  10.621  18.574  0.00  0.00    +0.000 A 
ATOM      2  C   UNL     1      -0.840   9.933  17.945  0.00  0.00    +0.000 A 
ATOM      3  C   UNL     1      -2.163  10.360  18.097  0.00  0.00    +0.000 A 
ATOM      4  C   UNL     1      -2.499  11.530  18.804  0.00  0.00    +0.000 A 
ATOM      5  C   UNL     1      -1.455  12.219  19.453  0.00  0.00    +0.000 A 
ATOM      6  C   UNL     1      -0.133  11.731  19.358  0.00  0.00    +0.000 A 
ATOM      7  C   UNL     1      -1.679  13.489  20.241  0.00  0.00    +0.000 C 
ATOM      8  N   UNL     1      -2.676  13.718  21.038  0.00  0.00    +0.000 NA
ATOM      9  C   UNL     1      -3.689  12.669  21.301  0.00  0.00    +0.000 C 
ATOM     10  C   UNL     1      -4.454  12.398  20.030  0.00  0.00    +0.000 A 
ATOM     11  S   UNL     1      -6.165  12.705  19.844  0.00  0.00    +0.000 S 
ATOM     12  C   UNL     1      -6.130  12.244  18.150  0.00  0.00    +0.000 A 
ATOM     13  O   UNL     1      -7.108  12.273  17.423  0.00  0.00    +0.000 OA
ATOM     14  N   UNL     1      -4.827  11.878  17.831  0.00  0.00    +0.000 N 
ATOM     15  C   UNL     1      -4.510  11.588  16.449  0.00  0.00    +0.000 C 
ATOM     16  C   UNL     1      -3.918  11.942  18.881  0.00  0.00    +0.000 A 
ENDROOT
BRANCH   7  17
ATOM     17  C   UNL     1      -0.626  14.567  20.131  0.00  0.00    +0.000 A 
ATOM     18  C   UNL     1      -0.357  15.203  18.910  0.00  0.00    +0.000 A 
ATOM     19  C   UNL     1       0.734  16.071  18.796  0.00  0.00    +0.000 A 
ATOM     20  C   UNL     1       1.528  16.341  19.910  0.00  0.00    +0.000 A 
ATOM     21 CL   UNL     1       2.897  17.368  19.755  0.00  0.00    +0.000 Cl
ATOM     22  C   UNL     1       1.231  15.763  21.142  0.00  0.00    +0.000 A 
ATOM     23  C   UNL     1       0.160  14.872  21.251  0.00  0.00    +0.000 A 
ENDBRANCH   7  17
BRANCH   1  25
ATOM     24  C   UNL     1       1.864   9.090  17.875  0.00  0.00    +0.000 C 
ATOM     25  O   UNL     1       1.514  10.318  18.508  0.00  0.00    +0.000 OA
ENDBRANCH   1  25
BRANCH   9  26
ATOM     26  C   UNL     1      -4.578  13.158  22.457  0.00  0.00    +0.000 C 
BRANCH  26  27
ATOM     27  C   UNL     1      -4.010  12.831  23.812  0.00  0.00    +0.000 C 
ATOM     28  O   UNL     1      -4.475  11.991  24.568  0.00  0.00    +0.000 OA
BRANCH  27  29
ATOM     29  O   UNL     1      -2.965  13.621  24.148  0.00  0.00    +0.000 OA
ATOM     30  H   UNL     1      -2.363  13.116  24.746  0.00  0.00    +0.000 HD
ENDBRANCH  27  29
ENDBRANCH  26  27
ENDBRANCH   9  26
TORSDOF 5
ENDMDL
MODEL 8
REMARK VINA RESULT:      -6.4      3.171      5.416
REMARK  Name = 
REMARK  7 active torsions:
REMARK  status: ('A' for Active; 'I' for Inactive)
REMARK    1  A    between atoms: C_1  and  O_2
REMARK    2  A    between atoms: O_2  and  C_3
REMARK    3  A    between atoms: C_9  and  C_10
REMARK    4  A    between atoms: C_18  and  C_19
REMARK    5  A    between atoms: C_19  and  C_20
REMARK    6  A    between atoms: C_20  and  O_22
REMARK    7  A    between atoms: N_27  and  C_28
REMARK                            x       y       z     vdW  Elec       q    Type
REMARK                         _______ _______ _______ _____ _____    ______ ____
ROOT
ATOM      1  C   UNL     1      -0.245  14.351  22.498  0.00  0.00    +0.000 A 
ATOM      2  C   UNL     1      -1.145  14.727  23.482  0.00  0.00    +0.000 A 
ATOM      3  C   UNL     1      -2.479  14.317  23.401  0.00  0.00    +0.000 A 
ATOM      4  C   UNL     1      -2.940  13.453  22.389  0.00  0.00    +0.000 A 
ATOM      5  C   UNL     1      -2.024  13.084  21.383  0.00  0.00    +0.000 A 
ATOM      6  C   UNL     1      -0.699  13.571  21.434  0.00  0.00    +0.000 A 
ATOM      7  C   UNL     1      -2.388  12.161  20.244  0.00  0.00    +0.000 C 
ATOM      8  N   UNL     1      -3.506  12.177  19.584  0.00  0.00    +0.000 NA
ATOM      9  C   UNL     1      -4.536  13.203  19.871  0.00  0.00    +0.000 C 
ATOM     10  C   UNL     1      -5.079  12.977  21.260  0.00  0.00    +0.000 A 
ATOM     11  S   UNL     1      -6.739  12.542  21.593  0.00  0.00    +0.000 S 
ATOM     12  C   UNL     1      -6.422  12.384  23.313  0.00  0.00    +0.000 A 
ATOM     13  O   UNL     1      -7.267  12.056  24.126  0.00  0.00    +0.000 OA
ATOM     14  N   UNL     1      -5.080  12.677  23.531  0.00  0.00    +0.000 N 
ATOM     15  C   UNL     1      -4.537  12.481  24.858  0.00  0.00    +0.000 C 
ATOM     16  C   UNL     1      -4.356  13.027  22.396  0.00  0.00    +0.000 A 
ENDROOT
BRANCH   7  17
ATOM     17  C   UNL     1      -1.344  11.164  19.800  0.00  0.00    +0.000 A 
ATOM     18  C   UNL     1      -0.486  10.546  20.720  0.00  0.00    +0.000 A 
ATOM     19  C   UNL     1       0.580   9.761  20.269  0.00  0.00    +0.000 A 
ATOM     20  C   UNL     1       0.763   9.554  18.904  0.00  0.00    +0.000 A 
ATOM     21 CL   UNL     1       2.103   8.631  18.350  0.00  0.00    +0.000 Cl
ATOM     22  C   UNL     1      -0.121  10.112  17.983  0.00  0.00    +0.000 A 
ATOM     23  C   UNL     1      -1.169  10.922  18.430  0.00  0.00    +0.000 A 
ENDBRANCH   7  17
BRANCH   1  25
ATOM     24  C   UNL     1       1.404  16.063  22.445  0.00  0.00    +0.000 C 
ATOM     25  O   UNL     1       1.081  14.675  22.456  0.00  0.00    +0.000 OA
ENDBRANCH   1  25
BRANCH   9  26
ATOM     26  C   UNL     1      -5.608  13.107  18.772  0.00  0.00    +0.000 C 
BRANCH  26  27
ATOM     27  C   UNL     1      -5.409  11.927  17.861  0.00  0.00    +0.000 C 
ATOM     28  O   UNL     1      -5.993  10.861  17.978  0.00  0.00    +0.000 OA
BRANCH  27  29
ATOM     29  O   UNL     1      -4.450  12.138  16.930  0.00  0.00    +0.000 OA
ATOM     30  H   UNL     1      -3.565  12.093  17.367  0.00  0.00    +0.000 HD
ENDBRANCH  27  29
ENDBRANCH  26  27
ENDBRANCH   9  26
TORSDOF 5
ENDMDL
MODEL 9
REMARK VINA RESULT:      -6.3      3.064      5.350
REMARK  Name = 
REMARK  7 active torsions:
REMARK  status: ('A' for Active; 'I' for Inactive)
REMARK    1  A    between atoms: C_1  and  O_2
REMARK    2  A    between atoms: O_2  and  C_3
REMARK    3  A    between atoms: C_9  and  C_10
REMARK    4  A    between atoms: C_18  and  C_19
REMARK    5  A    between atoms: C_19  and  C_20
REMARK    6  A    between atoms: C_20  and  O_22
REMARK    7  A    between atoms: N_27  and  C_28
REMARK                            x       y       z     vdW  Elec       q    Type
REMARK                         _______ _______ _______ _____ _____    ______ ____
ROOT
ATOM      1  C   UNL     1      -0.413   9.356  21.715  0.00  0.00    +0.000 A 
ATOM      2  C   UNL     1      -0.630   9.800  23.010  0.00  0.00    +0.000 A 
ATOM      3  C   UNL     1      -1.154  11.078  23.230  0.00  0.00    +0.000 A 
ATOM      4  C   UNL     1      -1.556  11.917  22.174  0.00  0.00    +0.000 A 
ATOM      5  C   UNL     1      -1.322  11.467  20.860  0.00  0.00    +0.000 A 
ATOM      6  C   UNL     1      -0.718  10.207  20.652  0.00  0.00    +0.000 A 
ATOM      7  C   UNL     1      -1.709  12.268  19.639  0.00  0.00    +0.000 C 
ATOM      8  N   UNL     1      -1.573  13.551  19.501  0.00  0.00    +0.000 NA
ATOM      9  C   UNL     1      -0.931  14.360  20.564  0.00  0.00    +0.000 C 
ATOM     10  C   UNL     1      -1.807  14.340  21.791  0.00  0.00    +0.000 A 
ATOM     11  S   UNL     1      -2.578  15.762  22.455  0.00  0.00    +0.000 S 
ATOM     12  C   UNL     1      -3.411  14.819  23.680  0.00  0.00    +0.000 A 
ATOM     13  O   UNL     1      -4.174  15.301  24.498  0.00  0.00    +0.000 OA
ATOM     14  N   UNL     1      -3.048  13.486  23.517  0.00  0.00    +0.000 N 
ATOM     15  C   UNL     1      -3.714  12.485  24.323  0.00  0.00    +0.000 C 
ATOM     16  C   UNL     1      -2.145  13.238  22.489  0.00  0.00    +0.000 A 
ENDROOT
BRANCH   7  17
ATOM     17  C   UNL     1      -2.257  11.505  18.455  0.00  0.00    +0.000 A 
ATOM     18  C   UNL     1      -1.455  10.616  17.725  0.00  0.00    +0.000 A 
ATOM     19  C   UNL     1      -1.932  10.055  16.535  0.00  0.00    +0.000 A 
ATOM     20  C   UNL     1      -3.223  10.344  16.099  0.00  0.00    +0.000 A 
ATOM     21 CL   UNL     1      -3.789   9.695  14.611  0.00  0.00    +0.000 Cl
ATOM     22  C   UNL     1      -4.050  11.177  16.849  0.00  0.00    +0.000 A 
ATOM     23  C   UNL     1      -3.565  11.763  18.022  0.00  0.00    +0.000 A 
ENDBRANCH   7  17
BRANCH   1  25
ATOM     24  C   UNL     1       1.446   8.097  20.932  0.00  0.00    +0.000 C 
ATOM     25  O   UNL     1       0.086   8.136  21.358  0.00  0.00    +0.000 OA
ENDBRANCH   1  25
BRANCH   9  26
ATOM     26  C   UNL     1      -0.700  15.772  20.000  0.00  0.00    +0.000 C 
BRANCH  26  27
ATOM     27  C   UNL     1       0.436  15.832  19.016  0.00  0.00    +0.000 C 
ATOM     28  O   UNL     1       0.662  16.784  18.284  0.00  0.00    +0.000 OA
BRANCH  27  29
ATOM     29  O   UNL     1       1.148  14.683  18.965  0.00  0.00    +0.000 OA
ATOM     30  H   UNL     1       2.094  14.884  19.162  0.00  0.00    +0.000 HD
ENDBRANCH  27  29
ENDBRANCH  26  27
ENDBRANCH   9  26
TORSDOF 5
ENDMDL
