MODEL 1
REMARK VINA RESULT:      -9.0      0.000      0.000
REMARK  Name = 
REMARK  6 active torsions:
REMARK  status: ('A' for Active; 'I' for Inactive)
REMARK    1  A    between atoms: C_1  and  C_2
REMARK    2  A    between atoms: C_5  and  N_6
REMARK    3  A    between atoms: C_8  and  C_9
REMARK    4  A    between atoms: C_9  and  N_10
REMARK    5  A    between atoms: N_20  and  C_21
REMARK    6  A    between atoms: C_31  and  C_32
REMARK                            x       y       z     vdW  Elec       q    Type
REMARK                         _______ _______ _______ _____ _____    ______ ____
ROOT
ATOM      1  N   UNL     1       2.704   3.566  19.929  0.00  0.00    +0.000 N 
ATOM      2  N   UNL     1       1.555   3.233  19.259  0.00  0.00    +0.000 NA
ATOM      3  C   UNL     1       1.432   4.261  18.403  0.00  0.00    +0.000 A 
ATOM      4  C   UNL     1       2.352   5.299  18.689  0.00  0.00    +0.000 A 
ATOM      5  C   UNL     1       2.720   4.959  19.977  0.00  0.00    +0.000 A 
ATOM      6  C   UNL     1       2.338   5.885  21.090  0.00  0.00    +0.000 C 
ATOM      7  C   UNL     1       1.558   7.135  20.508  0.00  0.00    +0.000 C 
ATOM      8  N   UNL     1       1.964   7.633  19.158  0.00  0.00    +0.000 N 
ATOM      9  C   UNL     1       1.717   8.891  18.598  0.00  0.00    +0.000 C 
ATOM     10  O   UNL     1       2.045   9.121  17.433  0.00  0.00    +0.000 OA
ATOM     11  N   UNL     1       1.119   9.819  19.416  0.00  0.00    +0.000 N 
ATOM     12  C   UNL     1       2.456   6.666  18.167  0.00  0.00    +0.000 C 
ATOM     13  H   UNL     1       1.093   9.612  20.398  0.00  0.00    +0.000 HD
ENDROOT
BRANCH  11  14
ATOM     14  C   UNL     1       0.769  11.149  19.058  0.00  0.00    +0.000 A 
ATOM     15  C   UNL     1       1.694  12.192  18.931  0.00  0.00    +0.000 A 
ATOM     16  C   UNL     1       1.269  13.488  18.597  0.00  0.00    +0.000 A 
ATOM     17  C   UNL     1      -0.081  13.755  18.395  0.00  0.00    +0.000 A 
ATOM     18  C   UNL     1      -1.000  12.714  18.502  0.00  0.00    +0.000 A 
ATOM     19  C   UNL     1      -0.586  11.422  18.818  0.00  0.00    +0.000 A 
ENDBRANCH  11  14
BRANCH   1  20
ATOM     20  C   UNL     1       3.894   2.761  19.545  0.00  0.00    +0.000 C 
BRANCH  20  23
ATOM     21  N   UNL     1       5.656   4.169  16.697  0.00  0.00    +0.000 N 
ATOM     22  C   UNL     1       4.522   3.555  17.168  0.00  0.00    +0.000 A 
ATOM     23  C   UNL     1       4.723   3.432  18.524  0.00  0.00    +0.000 A 
ATOM     24  N   UNL     1       5.857   4.117  18.864  0.00  0.00    +0.000 NA
ATOM     25  N   UNL     1       6.411   4.576  17.748  0.00  0.00    +0.000 NA
BRANCH  21  30
ATOM     26  C   UNL     1       7.498   4.574  11.283  0.00  0.00    +0.000 C 
ATOM     27  C   UNL     1       6.983   4.475  12.694  0.00  0.00    +0.000 A 
ATOM     28  C   UNL     1       7.689   5.101  13.733  0.00  0.00    +0.000 A 
ATOM     29  C   UNL     1       7.240   5.030  15.054  0.00  0.00    +0.000 A 
ATOM     30  C   UNL     1       6.077   4.312  15.353  0.00  0.00    +0.000 A 
ATOM     31  C   UNL     1       5.364   3.689  14.320  0.00  0.00    +0.000 A 
ATOM     32  C   UNL     1       5.804   3.768  12.990  0.00  0.00    +0.000 A 
ATOM     33  C   UNL     1       4.999   3.089  11.915  0.00  0.00    +0.000 C 
ENDBRANCH  21  30
ENDBRANCH  20  23
ENDBRANCH   1  20
TORSDOF 4
ENDMDL
MODEL 2
REMARK VINA RESULT:      -8.9      3.865      5.255
REMARK  Name = 
REMARK  6 active torsions:
REMARK  status: ('A' for Active; 'I' for Inactive)
REMARK    1  A    between atoms: C_1  and  C_2
REMARK    2  A    between atoms: C_5  and  N_6
REMARK    3  A    between atoms: C_8  and  C_9
REMARK    4  A    between atoms: C_9  and  N_10
REMARK    5  A    between atoms: N_20  and  C_21
REMARK    6  A    between atoms: C_31  and  C_32
REMARK                            x       y       z     vdW  Elec       q    Type
REMARK                         _______ _______ _______ _____ _____    ______ ____
ROOT
ATOM      1  N   UNL     1       5.455   4.513  18.297  0.00  0.00    +0.000 N 
ATOM      2  N   UNL     1       4.807   4.015  17.196  0.00  0.00    +0.000 NA
ATOM      3  C   UNL     1       4.292   5.131  16.655  0.00  0.00    +0.000 A 
ATOM      4  C   UNL     1       4.432   6.248  17.515  0.00  0.00    +0.000 A 
ATOM      5  C   UNL     1       4.699   5.610  18.712  0.00  0.00    +0.000 A 
ATOM      6  C   UNL     1       3.691   5.719  19.813  0.00  0.00    +0.000 C 
ATOM      7  C   UNL     1       2.469   6.607  19.339  0.00  0.00    +0.000 C 
ATOM      8  N   UNL     1       2.760   7.740  18.408  0.00  0.00    +0.000 N 
ATOM      9  C   UNL     1       1.967   8.862  18.148  0.00  0.00    +0.000 C 
ATOM     10  O   UNL     1       2.308   9.671  17.284  0.00  0.00    +0.000 OA
ATOM     11  N   UNL     1       0.830   8.998  18.909  0.00  0.00    +0.000 N 
ATOM     12  C   UNL     1       3.860   7.597  17.445  0.00  0.00    +0.000 C 
ATOM     13  H   UNL     1       0.754   8.417  19.723  0.00  0.00    +0.000 HD
ENDROOT
BRANCH  11  14
ATOM     14  C   UNL     1      -0.121  10.050  18.811  0.00  0.00    +0.000 A 
ATOM     15  C   UNL     1      -0.109  11.191  19.621  0.00  0.00    +0.000 A 
ATOM     16  C   UNL     1      -1.099  12.178  19.482  0.00  0.00    +0.000 A 
ATOM     17  C   UNL     1      -2.112  12.029  18.540  0.00  0.00    +0.000 A 
ATOM     18  C   UNL     1      -2.114  10.903  17.720  0.00  0.00    +0.000 A 
ATOM     19  C   UNL     1      -1.127   9.927  17.841  0.00  0.00    +0.000 A 
ENDBRANCH  11  14
BRANCH   1  20
ATOM     20  C   UNL     1       6.936   4.559  18.170  0.00  0.00    +0.000 C 
BRANCH  20  23
ATOM     21  N   UNL     1       8.162   7.968  17.904  0.00  0.00    +0.000 N 
ATOM     22  C   UNL     1       7.991   6.858  18.693  0.00  0.00    +0.000 A 
ATOM     23  C   UNL     1       7.434   5.914  17.861  0.00  0.00    +0.000 A 
ATOM     24  N   UNL     1       7.448   6.394  16.581  0.00  0.00    +0.000 NA
ATOM     25  N   UNL     1       7.907   7.639  16.613  0.00  0.00    +0.000 NA
BRANCH  21  30
ATOM     26  C   UNL     1       9.584  13.309  19.426  0.00  0.00    +0.000 C 
ATOM     27  C   UNL     1       9.178  11.917  19.023  0.00  0.00    +0.000 A 
ATOM     28  C   UNL     1       9.652  10.819  19.759  0.00  0.00    +0.000 A 
ATOM     29  C   UNL     1       9.296   9.513  19.414  0.00  0.00    +0.000 A 
ATOM     30  C   UNL     1       8.467   9.289  18.309  0.00  0.00    +0.000 A 
ATOM     31  C   UNL     1       7.985  10.381  17.573  0.00  0.00    +0.000 A 
ATOM     32  C   UNL     1       8.330  11.695  17.923  0.00  0.00    +0.000 A 
ATOM     33  C   UNL     1       7.781  12.835  17.108  0.00  0.00    +0.000 C 
ENDBRANCH  21  30
ENDBRANCH  20  23
ENDBRANCH   1  20
TORSDOF 4
ENDMDL
MODEL 3
REMARK VINA RESULT:      -8.5      3.888      9.748
REMARK  Name = 
REMARK  6 active torsions:
REMARK  status: ('A' for Active; 'I' for Inactive)
REMARK    1  A    between atoms: C_1  and  C_2
REMARK    2  A    between atoms: C_5  and  N_6
REMARK    3  A    between atoms: C_8  and  C_9
REMARK    4  A    between atoms: C_9  and  N_10
REMARK    5  A    between atoms: N_20  and  C_21
REMARK    6  A    between atoms: C_31  and  C_32
REMARK                            x       y       z     vdW  Elec       q    Type
REMARK                         _______ _______ _______ _____ _____    ______ ____
ROOT
ATOM      1  N   UNL     1       0.425  12.457  19.160  0.00  0.00    +0.000 N 
ATOM      2  N   UNL     1      -0.859  12.016  18.971  0.00  0.00    +0.000 NA
ATOM      3  C   UNL     1      -0.811  10.793  19.523  0.00  0.00    +0.000 A 
ATOM      4  C   UNL     1       0.515  10.409  19.841  0.00  0.00    +0.000 A 
ATOM      5  C   UNL     1       1.227  11.318  19.081  0.00  0.00    +0.000 A 
ATOM      6  C   UNL     1       2.049  10.800  17.943  0.00  0.00    +0.000 C 
ATOM      7  C   UNL     1       1.925   9.224  17.861  0.00  0.00    +0.000 C 
ATOM      8  N   UNL     1       1.781   8.476  19.149  0.00  0.00    +0.000 N 
ATOM      9  C   UNL     1       2.025   7.119  19.383  0.00  0.00    +0.000 C 
ATOM     10  O   UNL     1       1.776   6.631  20.487  0.00  0.00    +0.000 OA
ATOM     11  N   UNL     1       2.555   6.402  18.338  0.00  0.00    +0.000 N 
ATOM     12  C   UNL     1       1.070   9.118  20.262  0.00  0.00    +0.000 C 
ATOM     13  H   UNL     1       2.923   6.926  17.566  0.00  0.00    +0.000 HD
ENDROOT
BRANCH  11  14
ATOM     14  C   UNL     1       2.873   5.016  18.350  0.00  0.00    +0.000 A 
ATOM     15  C   UNL     1       2.023   4.015  17.865  0.00  0.00    +0.000 A 
ATOM     16  C   UNL     1       2.397   2.664  17.933  0.00  0.00    +0.000 A 
ATOM     17  C   UNL     1       3.617   2.300  18.493  0.00  0.00    +0.000 A 
ATOM     18  C   UNL     1       4.472   3.296  18.959  0.00  0.00    +0.000 A 
ATOM     19  C   UNL     1       4.116   4.640  18.880  0.00  0.00    +0.000 A 
ENDBRANCH  11  14
BRANCH   1  20
ATOM     20  C   UNL     1       0.575  13.474  20.234  0.00  0.00    +0.000 C 
BRANCH  20  23
ATOM     21  N   UNL     1       4.009  14.653  20.141  0.00  0.00    +0.000 N 
ATOM     22  C   UNL     1       2.785  14.605  19.523  0.00  0.00    +0.000 A 
ATOM     23  C   UNL     1       1.972  13.921  20.397  0.00  0.00    +0.000 A 
ATOM     24  N   UNL     1       2.649  13.734  21.571  0.00  0.00    +0.000 NA
ATOM     25  N   UNL     1       3.883  14.196  21.413  0.00  0.00    +0.000 NA
BRANCH  21  30
ATOM     26  C   UNL     1       8.963  16.327  17.792  0.00  0.00    +0.000 C 
ATOM     27  C   UNL     1       7.680  15.878  18.436  0.00  0.00    +0.000 A 
ATOM     28  C   UNL     1       6.772  15.099  17.701  0.00  0.00    +0.000 A 
ATOM     29  C   UNL     1       5.571  14.665  18.268  0.00  0.00    +0.000 A 
ATOM     30  C   UNL     1       5.257  15.022  19.583  0.00  0.00    +0.000 A 
ATOM     31  C   UNL     1       6.160  15.795  20.325  0.00  0.00    +0.000 A 
ATOM     32  C   UNL     1       7.373  16.223  19.765  0.00  0.00    +0.000 A 
ATOM     33  C   UNL     1       8.315  17.044  20.604  0.00  0.00    +0.000 C 
ENDBRANCH  21  30
ENDBRANCH  20  23
ENDBRANCH   1  20
TORSDOF 4
ENDMDL
MODEL 4
REMARK VINA RESULT:      -8.4      3.830      9.744
REMARK  Name = 
REMARK  6 active torsions:
REMARK  status: ('A' for Active; 'I' for Inactive)
REMARK    1  A    between atoms: C_1  and  C_2
REMARK    2  A    between atoms: C_5  and  N_6
REMARK    3  A    between atoms: C_8  and  C_9
REMARK    4  A    between atoms: C_9  and  N_10
REMARK    5  A    between atoms: N_20  and  C_21
REMARK    6  A    between atoms: C_31  and  C_32
REMARK                            x       y       z     vdW  Elec       q    Type
REMARK                         _______ _______ _______ _____ _____    ______ ____
ROOT
ATOM      1  N   UNL     1       0.157  12.880  19.063  0.00  0.00    +0.000 N 
ATOM      2  N   UNL     1      -1.065  12.372  18.701  0.00  0.00    +0.000 NA
ATOM      3  C   UNL     1      -1.019  11.144  19.242  0.00  0.00    +0.000 A 
ATOM      4  C   UNL     1       0.273  10.829  19.728  0.00  0.00    +0.000 A 
ATOM      5  C   UNL     1       1.026  11.790  19.079  0.00  0.00    +0.000 A 
ATOM      6  C   UNL     1       2.019  11.339  18.055  0.00  0.00    +0.000 C 
ATOM      7  C   UNL     1       1.997   9.759  17.940  0.00  0.00    +0.000 C 
ATOM      8  N   UNL     1       1.728   8.982  19.189  0.00  0.00    +0.000 N 
ATOM      9  C   UNL     1       2.017   7.637  19.440  0.00  0.00    +0.000 C 
ATOM     10  O   UNL     1       1.653   7.116  20.495  0.00  0.00    +0.000 OA
ATOM     11  N   UNL     1       2.721   6.969  18.467  0.00  0.00    +0.000 N 
ATOM     12  C   UNL     1       0.842   9.563  20.205  0.00  0.00    +0.000 C 
ATOM     13  H   UNL     1       3.157   7.526  17.755  0.00  0.00    +0.000 HD
ENDROOT
BRANCH  11  14
ATOM     14  C   UNL     1       3.114   5.603  18.506  0.00  0.00    +0.000 A 
ATOM     15  C   UNL     1       4.286   5.145  19.119  0.00  0.00    +0.000 A 
ATOM     16  C   UNL     1       4.620   3.781  19.095  0.00  0.00    +0.000 A 
ATOM     17  C   UNL     1       3.792   2.867  18.453  0.00  0.00    +0.000 A 
ATOM     18  C   UNL     1       2.616   3.318  17.859  0.00  0.00    +0.000 A 
ATOM     19  C   UNL     1       2.269   4.667  17.891  0.00  0.00    +0.000 A 
ENDBRANCH  11  14
BRANCH   1  20
ATOM     20  C   UNL     1       0.105  13.884  20.158  0.00  0.00    +0.000 C 
BRANCH  20  23
ATOM     21  N   UNL     1       3.545  14.753  20.933  0.00  0.00    +0.000 N 
ATOM     22  C   UNL     1       2.542  14.723  19.997  0.00  0.00    +0.000 A 
ATOM     23  C   UNL     1       1.445  14.233  20.668  0.00  0.00    +0.000 A 
ATOM     24  N   UNL     1       1.746  14.151  22.000  0.00  0.00    +0.000 NA
ATOM     25  N   UNL     1       3.021  14.484  22.156  0.00  0.00    +0.000 NA
BRANCH  21  30
ATOM     26  C   UNL     1       9.190  15.285  20.089  0.00  0.00    +0.000 C 
ATOM     27  C   UNL     1       7.703  15.170  20.288  0.00  0.00    +0.000 A 
ATOM     28  C   UNL     1       7.183  15.108  21.591  0.00  0.00    +0.000 A 
ATOM     29  C   UNL     1       5.807  15.002  21.812  0.00  0.00    +0.000 A 
ATOM     30  C   UNL     1       4.933  14.939  20.722  0.00  0.00    +0.000 A 
ATOM     31  C   UNL     1       5.444  15.006  19.419  0.00  0.00    +0.000 A 
ATOM     32  C   UNL     1       6.824  15.126  19.191  0.00  0.00    +0.000 A 
ATOM     33  C   UNL     1       7.325  15.204  17.774  0.00  0.00    +0.000 C 
ENDBRANCH  21  30
ENDBRANCH  20  23
ENDBRANCH   1  20
TORSDOF 4
ENDMDL
MODEL 5
REMARK VINA RESULT:      -8.4      3.874      9.709
REMARK  Name = 
REMARK  6 active torsions:
REMARK  status: ('A' for Active; 'I' for Inactive)
REMARK    1  A    between atoms: C_1  and  C_2
REMARK    2  A    between atoms: C_5  and  N_6
REMARK    3  A    between atoms: C_8  and  C_9
REMARK    4  A    between atoms: C_9  and  N_10
REMARK    5  A    between atoms: N_20  and  C_21
REMARK    6  A    between atoms: C_31  and  C_32
REMARK                            x       y       z     vdW  Elec       q    Type
REMARK                         _______ _______ _______ _____ _____    ______ ____
ROOT
ATOM      1  N   UNL     1       0.465  12.160  19.251  0.00  0.00    +0.000 N 
ATOM      2  N   UNL     1      -0.835  11.728  19.189  0.00  0.00    +0.000 NA
ATOM      3  C   UNL     1      -0.745  10.512  19.753  0.00  0.00    +0.000 A 
ATOM      4  C   UNL     1       0.602  10.121  19.953  0.00  0.00    +0.000 A 
ATOM      5  C   UNL     1       1.248  11.013  19.117  0.00  0.00    +0.000 A 
ATOM      6  C   UNL     1       1.957  10.471  17.916  0.00  0.00    +0.000 C 
ATOM      7  C   UNL     1       1.814   8.895  17.870  0.00  0.00    +0.000 C 
ATOM      8  N   UNL     1       1.784   8.167  19.176  0.00  0.00    +0.000 N 
ATOM      9  C   UNL     1       2.038   6.812  19.408  0.00  0.00    +0.000 C 
ATOM     10  O   UNL     1       1.888   6.342  20.537  0.00  0.00    +0.000 OA
ATOM     11  N   UNL     1       2.464   6.075  18.330  0.00  0.00    +0.000 N 
ATOM     12  C   UNL     1       1.184   8.832  20.340  0.00  0.00    +0.000 C 
ATOM     13  H   UNL     1       2.763   6.584  17.519  0.00  0.00    +0.000 HD
ENDROOT
BRANCH  11  14
ATOM     14  C   UNL     1       2.771   4.687  18.333  0.00  0.00    +0.000 A 
ATOM     15  C   UNL     1       4.065   4.174  18.484  0.00  0.00    +0.000 A 
ATOM     16  C   UNL     1       4.294   2.788  18.452  0.00  0.00    +0.000 A 
ATOM     17  C   UNL     1       3.236   1.906  18.262  0.00  0.00    +0.000 A 
ATOM     18  C   UNL     1       1.945   2.414  18.131  0.00  0.00    +0.000 A 
ATOM     19  C   UNL     1       1.707   3.786  18.177  0.00  0.00    +0.000 A 
ENDBRANCH  11  14
BRANCH   1  20
ATOM     20  C   UNL     1       0.721  13.191  20.292  0.00  0.00    +0.000 C 
BRANCH  20  23
ATOM     21  N   UNL     1       3.498  15.254  19.186  0.00  0.00    +0.000 N 
ATOM     22  C   UNL     1       2.934  14.004  19.237  0.00  0.00    +0.000 A 
ATOM     23  C   UNL     1       1.723  14.186  19.865  0.00  0.00    +0.000 A 
ATOM     24  N   UNL     1       1.504  15.528  20.013  0.00  0.00    +0.000 NA
ATOM     25  N   UNL     1       2.581  16.172  19.583  0.00  0.00    +0.000 NA
BRANCH  21  30
ATOM     26  C   UNL     1       8.964  16.603  18.105  0.00  0.00    +0.000 C 
ATOM     27  C   UNL     1       7.528  16.234  18.359  0.00  0.00    +0.000 A 
ATOM     28  C   UNL     1       6.641  17.203  18.854  0.00  0.00    +0.000 A 
ATOM     29  C   UNL     1       5.301  16.895  19.100  0.00  0.00    +0.000 A 
ATOM     30  C   UNL     1       4.834  15.597  18.867  0.00  0.00    +0.000 A 
ATOM     31  C   UNL     1       5.711  14.625  18.367  0.00  0.00    +0.000 A 
ATOM     32  C   UNL     1       7.056  14.933  18.106  0.00  0.00    +0.000 A 
ATOM     33  C   UNL     1       7.957  13.858  17.562  0.00  0.00    +0.000 C 
ENDBRANCH  21  30
ENDBRANCH  20  23
ENDBRANCH   1  20
TORSDOF 4
ENDMDL
MODEL 6
REMARK VINA RESULT:      -8.4      4.936     12.679
REMARK  Name = 
REMARK  6 active torsions:
REMARK  status: ('A' for Active; 'I' for Inactive)
REMARK    1  A    between atoms: C_1  and  C_2
REMARK    2  A    between atoms: C_5  and  N_6
REMARK    3  A    between atoms: C_8  and  C_9
REMARK    4  A    between atoms: C_9  and  N_10
REMARK    5  A    between atoms: N_20  and  C_21
REMARK    6  A    between atoms: C_31  and  C_32
REMARK                            x       y       z     vdW  Elec       q    Type
REMARK                         _______ _______ _______ _____ _____    ______ ____
ROOT
ATOM      1  N   UNL     1      -0.634  10.982  21.282  0.00  0.00    +0.000 N 
ATOM      2  N   UNL     1       0.440  11.807  21.497  0.00  0.00    +0.000 NA
ATOM      3  C   UNL     1       1.206  11.540  20.427  0.00  0.00    +0.000 A 
ATOM      4  C   UNL     1       0.723  10.428  19.695  0.00  0.00    +0.000 A 
ATOM      5  C   UNL     1      -0.120   9.860  20.632  0.00  0.00    +0.000 A 
ATOM      6  C   UNL     1       0.234   8.513  21.179  0.00  0.00    +0.000 C 
ATOM      7  C   UNL     1       1.575   7.996  20.514  0.00  0.00    +0.000 C 
ATOM      8  N   UNL     1       1.826   8.370  19.088  0.00  0.00    +0.000 N 
ATOM      9  C   UNL     1       2.700   7.761  18.183  0.00  0.00    +0.000 C 
ATOM     10  O   UNL     1       2.859   8.243  17.060  0.00  0.00    +0.000 OA
ATOM     11  N   UNL     1       3.333   6.620  18.615  0.00  0.00    +0.000 N 
ATOM     12  C   UNL     1       1.324   9.661  18.599  0.00  0.00    +0.000 C 
ATOM     13  H   UNL     1       2.977   6.189  19.448  0.00  0.00    +0.000 HD
ENDROOT
BRANCH  11  14
ATOM     14  C   UNL     1       4.263   5.845  17.871  0.00  0.00    +0.000 A 
ATOM     15  C   UNL     1       3.930   4.670  17.186  0.00  0.00    +0.000 A 
ATOM     16  C   UNL     1       4.911   3.945  16.491  0.00  0.00    +0.000 A 
ATOM     17  C   UNL     1       6.232   4.380  16.481  0.00  0.00    +0.000 A 
ATOM     18  C   UNL     1       6.561   5.559  17.146  0.00  0.00    +0.000 A 
ATOM     19  C   UNL     1       5.592   6.294  17.824  0.00  0.00    +0.000 A 
ENDBRANCH  11  14
BRANCH   1  20
ATOM     20  C   UNL     1      -1.865  11.681  20.827  0.00  0.00    +0.000 C 
BRANCH  20  23
ATOM     21  N   UNL     1      -3.534  13.857  23.209  0.00  0.00    +0.000 N 
ATOM     22  C   UNL     1      -3.218  13.604  21.898  0.00  0.00    +0.000 A 
ATOM     23  C   UNL     1      -2.539  12.407  21.921  0.00  0.00    +0.000 A 
ATOM     24  N   UNL     1      -2.616  11.884  23.183  0.00  0.00    +0.000 NA
ATOM     25  N   UNL     1      -3.237  12.765  23.957  0.00  0.00    +0.000 NA
BRANCH  21  30
ATOM     26  C   UNL     1      -5.514  18.631  25.690  0.00  0.00    +0.000 C 
ATOM     27  C   UNL     1      -4.970  17.396  25.024  0.00  0.00    +0.000 A 
ATOM     28  C   UNL     1      -5.851  16.513  24.380  0.00  0.00    +0.000 A 
ATOM     29  C   UNL     1      -5.380  15.357  23.751  0.00  0.00    +0.000 A 
ATOM     30  C   UNL     1      -4.013  15.063  23.775  0.00  0.00    +0.000 A 
ATOM     31  C   UNL     1      -3.126  15.943  24.411  0.00  0.00    +0.000 A 
ATOM     32  C   UNL     1      -3.592  17.112  25.033  0.00  0.00    +0.000 A 
ATOM     33  C   UNL     1      -2.601  18.030  25.695  0.00  0.00    +0.000 C 
ENDBRANCH  21  30
ENDBRANCH  20  23
ENDBRANCH   1  20
TORSDOF 4
ENDMDL
MODEL 7
REMARK VINA RESULT:      -8.4      4.128     11.940
REMARK  Name = 
REMARK  6 active torsions:
REMARK  status: ('A' for Active; 'I' for Inactive)
REMARK    1  A    between atoms: C_1  and  C_2
REMARK    2  A    between atoms: C_5  and  N_6
REMARK    3  A    between atoms: C_8  and  C_9
REMARK    4  A    between atoms: C_9  and  N_10
REMARK    5  A    between atoms: N_20  and  C_21
REMARK    6  A    between atoms: C_31  and  C_32
REMARK                            x       y       z     vdW  Elec       q    Type
REMARK                         _______ _______ _______ _____ _____    ______ ____
ROOT
ATOM      1  N   UNL     1       0.526  11.927  19.219  0.00  0.00    +0.000 N 
ATOM      2  N   UNL     1      -0.760  11.480  19.054  0.00  0.00    +0.000 NA
ATOM      3  C   UNL     1      -0.704  10.269  19.632  0.00  0.00    +0.000 A 
ATOM      4  C   UNL     1       0.626   9.894  19.944  0.00  0.00    +0.000 A 
ATOM      5  C   UNL     1       1.329  10.788  19.157  0.00  0.00    +0.000 A 
ATOM      6  C   UNL     1       2.139  10.246  18.022  0.00  0.00    +0.000 C 
ATOM      7  C   UNL     1       2.017   8.668  17.975  0.00  0.00    +0.000 C 
ATOM      8  N   UNL     1       1.888   7.948  19.280  0.00  0.00    +0.000 N 
ATOM      9  C   UNL     1       2.137   6.597  19.542  0.00  0.00    +0.000 C 
ATOM     10  O   UNL     1       1.900   6.133  20.658  0.00  0.00    +0.000 OA
ATOM     11  N   UNL     1       2.657   5.858  18.507  0.00  0.00    +0.000 N 
ATOM     12  C   UNL     1       1.188   8.614  20.387  0.00  0.00    +0.000 C 
ATOM     13  H   UNL     1       3.016   6.366  17.719  0.00  0.00    +0.000 HD
ENDROOT
BRANCH  11  14
ATOM     14  C   UNL     1       2.978   4.474  18.545  0.00  0.00    +0.000 A 
ATOM     15  C   UNL     1       4.008   3.932  19.322  0.00  0.00    +0.000 A 
ATOM     16  C   UNL     1       4.281   2.555  19.289  0.00  0.00    +0.000 A 
ATOM     17  C   UNL     1       3.535   1.710  18.475  0.00  0.00    +0.000 A 
ATOM     18  C   UNL     1       2.497   2.245  17.715  0.00  0.00    +0.000 A 
ATOM     19  C   UNL     1       2.209   3.607  17.754  0.00  0.00    +0.000 A 
ENDBRANCH  11  14
BRANCH   1  20
ATOM     20  C   UNL     1       0.685  12.967  20.270  0.00  0.00    +0.000 C 
BRANCH  20  23
ATOM     21  N   UNL     1      -2.556  13.898  21.620  0.00  0.00    +0.000 N 
ATOM     22  C   UNL     1      -1.449  13.092  21.718  0.00  0.00    +0.000 A 
ATOM     23  C   UNL     1      -0.608  13.519  20.717  0.00  0.00    +0.000 A 
ATOM     24  N   UNL     1      -1.125  14.660  20.167  0.00  0.00    +0.000 NA
ATOM     25  N   UNL     1      -2.303  14.893  20.732  0.00  0.00    +0.000 NA
BRANCH  21  30
ATOM     26  C   UNL     1      -7.621  13.409  24.259  0.00  0.00    +0.000 C 
ATOM     27  C   UNL     1      -6.306  13.528  23.537  0.00  0.00    +0.000 A 
ATOM     28  C   UNL     1      -5.149  12.979  24.113  0.00  0.00    +0.000 A 
ATOM     29  C   UNL     1      -3.912  13.070  23.471  0.00  0.00    +0.000 A 
ATOM     30  C   UNL     1      -3.816  13.732  22.242  0.00  0.00    +0.000 A 
ATOM     31  C   UNL     1      -4.968  14.278  21.658  0.00  0.00    +0.000 A 
ATOM     32  C   UNL     1      -6.215  14.177  22.293  0.00  0.00    +0.000 A 
ATOM     33  C   UNL     1      -7.424  14.771  21.622  0.00  0.00    +0.000 C 
ENDBRANCH  21  30
ENDBRANCH  20  23
ENDBRANCH   1  20
TORSDOF 4
ENDMDL
MODEL 8
REMARK VINA RESULT:      -8.4      4.148     11.969
REMARK  Name = 
REMARK  6 active torsions:
REMARK  status: ('A' for Active; 'I' for Inactive)
REMARK    1  A    between atoms: C_1  and  C_2
REMARK    2  A    between atoms: C_5  and  N_6
REMARK    3  A    between atoms: C_8  and  C_9
REMARK    4  A    between atoms: C_9  and  N_10
REMARK    5  A    between atoms: N_20  and  C_21
REMARK    6  A    between atoms: C_31  and  C_32
REMARK                            x       y       z     vdW  Elec       q    Type
REMARK                         _______ _______ _______ _____ _____    ______ ____
ROOT
ATOM      1  N   UNL     1       0.471  12.003  19.287  0.00  0.00    +0.000 N 
ATOM      2  N   UNL     1      -0.816  11.562  19.121  0.00  0.00    +0.000 NA
ATOM      3  C   UNL     1      -0.757  10.336  19.668  0.00  0.00    +0.000 A 
ATOM      4  C   UNL     1       0.575   9.953  19.960  0.00  0.00    +0.000 A 
ATOM      5  C   UNL     1       1.273  10.866  19.191  0.00  0.00    +0.000 A 
ATOM      6  C   UNL     1       2.075  10.353  18.036  0.00  0.00    +0.000 C 
ATOM      7  C   UNL     1       1.950   8.776  17.951  0.00  0.00    +0.000 C 
ATOM      8  N   UNL     1       1.831   8.024  19.238  0.00  0.00    +0.000 N 
ATOM      9  C   UNL     1       2.080   6.667  19.464  0.00  0.00    +0.000 C 
ATOM     10  O   UNL     1       1.852   6.175  20.570  0.00  0.00    +0.000 OA
ATOM     11  N   UNL     1       2.593   5.954  18.406  0.00  0.00    +0.000 N 
ATOM     12  C   UNL     1       1.140   8.662  20.366  0.00  0.00    +0.000 C 
ATOM     13  H   UNL     1       2.946   6.481  17.629  0.00  0.00    +0.000 HD
ENDROOT
BRANCH  11  14
ATOM     14  C   UNL     1       2.913   4.569  18.408  0.00  0.00    +0.000 A 
ATOM     15  C   UNL     1       2.153   3.591  17.754  0.00  0.00    +0.000 A 
ATOM     16  C   UNL     1       2.519   2.237  17.822  0.00  0.00    +0.000 A 
ATOM     17  C   UNL     1       3.640   1.848  18.547  0.00  0.00    +0.000 A 
ATOM     18  C   UNL     1       4.408   2.821  19.182  0.00  0.00    +0.000 A 
ATOM     19  C   UNL     1       4.061   4.168  19.107  0.00  0.00    +0.000 A 
ENDBRANCH  11  14
BRANCH   1  20
ATOM     20  C   UNL     1       0.639  13.016  20.363  0.00  0.00    +0.000 C 
BRANCH  20  23
ATOM     21  N   UNL     1      -2.577  14.115  21.644  0.00  0.00    +0.000 N 
ATOM     22  C   UNL     1      -1.484  13.302  21.806  0.00  0.00    +0.000 A 
ATOM     23  C   UNL     1      -0.642  13.627  20.767  0.00  0.00    +0.000 A 
ATOM     24  N   UNL     1      -1.144  14.724  20.123  0.00  0.00    +0.000 NA
ATOM     25  N   UNL     1      -2.314  15.025  20.672  0.00  0.00    +0.000 NA
BRANCH  21  30
ATOM     26  C   UNL     1      -7.744  13.925  24.120  0.00  0.00    +0.000 C 
ATOM     27  C   UNL     1      -6.388  13.941  23.469  0.00  0.00    +0.000 A 
ATOM     28  C   UNL     1      -5.377  14.761  23.996  0.00  0.00    +0.000 A 
ATOM     29  C   UNL     1      -4.106  14.800  23.416  0.00  0.00    +0.000 A 
ATOM     30  C   UNL     1      -3.836  14.024  22.284  0.00  0.00    +0.000 A 
ATOM     31  C   UNL     1      -4.838  13.199  21.756  0.00  0.00    +0.000 A 
ATOM     32  C   UNL     1      -6.113  13.146  22.341  0.00  0.00    +0.000 A 
ATOM     33  C   UNL     1      -7.152  12.237  21.743  0.00  0.00    +0.000 C 
ENDBRANCH  21  30
ENDBRANCH  20  23
ENDBRANCH   1  20
TORSDOF 4
ENDMDL
MODEL 9
REMARK VINA RESULT:      -8.4      4.681      7.227
REMARK  Name = 
REMARK  6 active torsions:
REMARK  status: ('A' for Active; 'I' for Inactive)
REMARK    1  A    between atoms: C_1  and  C_2
REMARK    2  A    between atoms: C_5  and  N_6
REMARK    3  A    between atoms: C_8  and  C_9
REMARK    4  A    between atoms: C_9  and  N_10
REMARK    5  A    between atoms: N_20  and  C_21
REMARK    6  A    between atoms: C_31  and  C_32
REMARK                            x       y       z     vdW  Elec       q    Type
REMARK                         _______ _______ _______ _____ _____    ______ ____
ROOT
ATOM      1  N   UNL     1      -0.444  10.602  19.521  0.00  0.00    +0.000 N 
ATOM      2  N   UNL     1      -1.631  10.379  18.873  0.00  0.00    +0.000 NA
ATOM      3  C   UNL     1      -2.191  11.599  18.903  0.00  0.00    +0.000 A 
ATOM      4  C   UNL     1      -1.470  12.490  19.735  0.00  0.00    +0.000 A 
ATOM      5  C   UNL     1      -0.713  11.593  20.464  0.00  0.00    +0.000 A 
ATOM      6  C   UNL     1      -0.975  11.474  21.933  0.00  0.00    +0.000 C 
ATOM      7  C   UNL     1      -2.128  12.473  22.358  0.00  0.00    +0.000 C 
ATOM      8  N   UNL     1      -2.208  13.780  21.636  0.00  0.00    +0.000 N 
ATOM      9  C   UNL     1      -2.855  14.949  22.048  0.00  0.00    +0.000 C 
ATOM     10  O   UNL     1      -2.903  15.924  21.296  0.00  0.00    +0.000 OA
ATOM     11  N   UNL     1      -3.399  14.936  23.310  0.00  0.00    +0.000 N 
ATOM     12  C   UNL     1      -1.801  13.832  20.225  0.00  0.00    +0.000 C 
ATOM     13  H   UNL     1      -3.121  14.188  23.919  0.00  0.00    +0.000 HD
ENDROOT
BRANCH  11  14
ATOM     14  C   UNL     1      -4.105  16.003  23.928  0.00  0.00    +0.000 A 
ATOM     15  C   UNL     1      -5.453  16.293  23.685  0.00  0.00    +0.000 A 
ATOM     16  C   UNL     1      -6.076  17.382  24.316  0.00  0.00    +0.000 A 
ATOM     17  C   UNL     1      -5.358  18.194  25.187  0.00  0.00    +0.000 A 
ATOM     18  C   UNL     1      -4.022  17.896  25.445  0.00  0.00    +0.000 A 
ATOM     19  C   UNL     1      -3.400  16.809  24.835  0.00  0.00    +0.000 A 
ENDBRANCH  11  14
BRANCH   1  20
ATOM     20  C   UNL     1       0.745  10.641  18.629  0.00  0.00    +0.000 C 
BRANCH  20  23
ATOM     21  N   UNL     1       2.787   7.658  18.274  0.00  0.00    +0.000 N 
ATOM     22  C   UNL     1       2.462   8.902  17.793  0.00  0.00    +0.000 A 
ATOM     23  C   UNL     1       1.531   9.393  18.680  0.00  0.00    +0.000 A 
ATOM     24  N   UNL     1       1.449   8.541  19.747  0.00  0.00    +0.000 NA
ATOM     25  N   UNL     1       2.228   7.496  19.500  0.00  0.00    +0.000 NA
BRANCH  21  30
ATOM     26  C   UNL     1       5.851   3.499  15.790  0.00  0.00    +0.000 C 
ATOM     27  C   UNL     1       5.019   4.574  16.434  0.00  0.00    +0.000 A 
ATOM     28  C   UNL     1       5.314   5.923  16.179  0.00  0.00    +0.000 A 
ATOM     29  C   UNL     1       4.562   6.947  16.759  0.00  0.00    +0.000 A 
ATOM     30  C   UNL     1       3.506   6.629  17.620  0.00  0.00    +0.000 A 
ATOM     31  C   UNL     1       3.201   5.285  17.875  0.00  0.00    +0.000 A 
ATOM     32  C   UNL     1       3.946   4.252  17.285  0.00  0.00    +0.000 A 
ATOM     33  C   UNL     1       3.575   2.825  17.581  0.00  0.00    +0.000 C 
ENDBRANCH  21  30
ENDBRANCH  20  23
ENDBRANCH   1  20
TORSDOF 4
ENDMDL
