MODEL 1
REMARK VINA RESULT:      -8.2      0.000      0.000
REMARK  Name = 
REMARK  6 active torsions:
REMARK  status: ('A' for Active; 'I' for Inactive)
REMARK    1  A    between atoms: C_2  and  C_3
REMARK    2  A    between atoms: C_3  and  C_4
REMARK    3  A    between atoms: C_4  and  N_5
REMARK    4  A    between atoms: C_7  and  C_8
REMARK    5  A    between atoms: C_10  and  C_11
REMARK    6  A    between atoms: C_25  and  C_26
REMARK                            x       y       z     vdW  Elec       q    Type
REMARK                         _______ _______ _______ _____ _____    ______ ____
ROOT
ATOM      1  C   UNL     1       3.031   6.418  18.756  0.00  0.00    +0.000 A 
ATOM      2  N   UNL     1       4.021   6.284  17.915  0.00  0.00    +0.000 NA
ATOM      3  C   UNL     1       4.769   5.112  17.949  0.00  0.00    +0.000 A 
ATOM      4  C   UNL     1       4.501   4.119  18.818  0.00  0.00    +0.000 A 
ATOM      5  N   UNL     1       3.446   4.241  19.693  0.00  0.00    +0.000 N 
ATOM      6  N   UNL     1       3.029   3.354  20.626  0.00  0.00    +0.000 NA
ATOM      7  C   UNL     1       1.947   3.914  21.163  0.00  0.00    +0.000 A 
ATOM      8  C   UNL     1       1.662   5.169  20.606  0.00  0.00    +0.000 A 
ATOM      9  C   UNL     1       2.666   5.379  19.686  0.00  0.00    +0.000 A 
ENDROOT
BRANCH   3  10
ATOM     10  C   UNL     1       5.864   5.050  17.022  0.00  0.00    +0.000 A 
ATOM     11  C   UNL     1       5.935   5.533  15.696  0.00  0.00    +0.000 A 
ATOM     12  N   UNL     1       7.123   5.302  15.123  0.00  0.00    +0.000 NA
ATOM     13  N   UNL     1       7.815   4.667  16.080  0.00  0.00    +0.000 N 
ATOM     14  C   UNL     1       7.110   4.494  17.237  0.00  0.00    +0.000 A 
ATOM     15  H   UNL     1       8.769   4.381  15.878  0.00  0.00    +0.000 HD
ENDBRANCH   3  10
BRANCH   1  18
ATOM     16  N   UNL     1       1.134   9.476  19.358  0.00  0.00    +0.000 N 
ATOM     17  C   UNL     1       1.516   8.221  19.768  0.00  0.00    +0.000 A 
ATOM     18  C   UNL     1       2.302   7.676  18.765  0.00  0.00    +0.000 A 
ATOM     19  C   UNL     1       2.280   8.675  17.766  0.00  0.00    +0.000 A 
ATOM     20  N   UNL     1       1.571   9.751  18.117  0.00  0.00    +0.000 NA
BRANCH  16  21
ATOM     21  C   UNL     1       0.418  10.472  20.164  0.00  0.00    +0.000 C 
ATOM     22  C   UNL     1       1.359  11.659  20.607  0.00  0.00    +0.000 C 
ATOM     23  C   UNL     1       0.268  12.672  20.185  0.00  0.00    +0.000 C 
ATOM     24  C   UNL     1      -0.312  11.555  19.282  0.00  0.00    +0.000 C 
BRANCH  23  25
ATOM     25  C   UNL     1      -0.604  13.160  21.243  0.00  0.00    +0.000 C 
ATOM     26  N   UNL     1      -1.278  13.575  22.088  0.00  0.00    +0.000 NA
ENDBRANCH  23  25
BRANCH  21  27
ATOM     27  C   UNL     1      -0.519   9.829  21.202  0.00  0.00    +0.000 C 
BRANCH  27  29
ATOM     28  N   UNL     1       0.444   9.701  23.643  0.00  0.00    +0.000 NA
ATOM     29  C   UNL     1       0.043   9.783  22.558  0.00  0.00    +0.000 C 
ENDBRANCH  27  29
ENDBRANCH  21  27
ENDBRANCH  16  21
ENDBRANCH   1  18
TORSDOF 6
ENDMDL
MODEL 2
REMARK VINA RESULT:      -8.2      1.190      1.985
REMARK  Name = 
REMARK  6 active torsions:
REMARK  status: ('A' for Active; 'I' for Inactive)
REMARK    1  A    between atoms: C_2  and  C_3
REMARK    2  A    between atoms: C_3  and  C_4
REMARK    3  A    between atoms: C_4  and  N_5
REMARK    4  A    between atoms: C_7  and  C_8
REMARK    5  A    between atoms: C_10  and  C_11
REMARK    6  A    between atoms: C_25  and  C_26
REMARK                            x       y       z     vdW  Elec       q    Type
REMARK                         _______ _______ _______ _____ _____    ______ ____
ROOT
ATOM      1  C   UNL     1       3.296   5.932  18.466  0.00  0.00    +0.000 A 
ATOM      2  N   UNL     1       4.137   5.895  17.468  0.00  0.00    +0.000 NA
ATOM      3  C   UNL     1       4.911   4.752  17.293  0.00  0.00    +0.000 A 
ATOM      4  C   UNL     1       4.814   3.692  18.117  0.00  0.00    +0.000 A 
ATOM      5  N   UNL     1       3.914   3.713  19.159  0.00  0.00    +0.000 N 
ATOM      6  N   UNL     1       3.679   2.748  20.078  0.00  0.00    +0.000 NA
ATOM      7  C   UNL     1       2.686   3.229  20.823  0.00  0.00    +0.000 A 
ATOM      8  C   UNL     1       2.281   4.508  20.415  0.00  0.00    +0.000 A 
ATOM      9  C   UNL     1       3.115   4.819  19.362  0.00  0.00    +0.000 A 
ENDROOT
BRANCH   3  10
ATOM     10  C   UNL     1       5.839   4.795  16.199  0.00  0.00    +0.000 A 
ATOM     11  C   UNL     1       5.776   4.133  14.953  0.00  0.00    +0.000 A 
ATOM     12  N   UNL     1       6.823   4.409  14.165  0.00  0.00    +0.000 NA
ATOM     13  N   UNL     1       7.562   5.247  14.907  0.00  0.00    +0.000 N 
ATOM     14  C   UNL     1       7.017   5.514  16.131  0.00  0.00    +0.000 A 
ATOM     15  H   UNL     1       8.429   5.603  14.516  0.00  0.00    +0.000 HD
ENDBRANCH   3  10
BRANCH   1  18
ATOM     16  N   UNL     1       1.351   8.813  19.575  0.00  0.00    +0.000 N 
ATOM     17  C   UNL     1       1.754   7.514  19.767  0.00  0.00    +0.000 A 
ATOM     18  C   UNL     1       2.546   7.159  18.687  0.00  0.00    +0.000 A 
ATOM     19  C   UNL     1       2.504   8.312  17.870  0.00  0.00    +0.000 A 
ATOM     20  N   UNL     1       1.779   9.301  18.398  0.00  0.00    +0.000 NA
BRANCH  16  21
ATOM     21  C   UNL     1       0.621   9.648  20.538  0.00  0.00    +0.000 C 
ATOM     22  C   UNL     1      -0.553   8.858  21.234  0.00  0.00    +0.000 C 
ATOM     23  C   UNL     1      -0.100   9.407  22.607  0.00  0.00    +0.000 C 
ATOM     24  C   UNL     1       1.289   9.652  21.965  0.00  0.00    +0.000 C 
BRANCH  23  25
ATOM     25  C   UNL     1      -0.800  10.586  23.094  0.00  0.00    +0.000 C 
ATOM     26  N   UNL     1      -1.370  11.528  23.453  0.00  0.00    +0.000 NA
ENDBRANCH  23  25
BRANCH  21  27
ATOM     27  C   UNL     1       0.360  11.069  20.007  0.00  0.00    +0.000 C 
BRANCH  27  29
ATOM     28  N   UNL     1       1.977  12.878  21.016  0.00  0.00    +0.000 NA
ATOM     29  C   UNL     1       1.238  12.090  20.594  0.00  0.00    +0.000 C 
ENDBRANCH  27  29
ENDBRANCH  21  27
ENDBRANCH  16  21
ENDBRANCH   1  18
TORSDOF 6
ENDMDL
MODEL 3
REMARK VINA RESULT:      -8.1      1.209      2.114
REMARK  Name = 
REMARK  6 active torsions:
REMARK  status: ('A' for Active; 'I' for Inactive)
REMARK    1  A    between atoms: C_2  and  C_3
REMARK    2  A    between atoms: C_3  and  C_4
REMARK    3  A    between atoms: C_4  and  N_5
REMARK    4  A    between atoms: C_7  and  C_8
REMARK    5  A    between atoms: C_10  and  C_11
REMARK    6  A    between atoms: C_25  and  C_26
REMARK                            x       y       z     vdW  Elec       q    Type
REMARK                         _______ _______ _______ _____ _____    ______ ____
ROOT
ATOM      1  C   UNL     1       3.239   5.921  18.442  0.00  0.00    +0.000 A 
ATOM      2  N   UNL     1       4.093   5.868  17.456  0.00  0.00    +0.000 NA
ATOM      3  C   UNL     1       4.854   4.714  17.296  0.00  0.00    +0.000 A 
ATOM      4  C   UNL     1       4.731   3.658  18.122  0.00  0.00    +0.000 A 
ATOM      5  N   UNL     1       3.817   3.695  19.151  0.00  0.00    +0.000 N 
ATOM      6  N   UNL     1       3.556   2.738  20.070  0.00  0.00    +0.000 NA
ATOM      7  C   UNL     1       2.559   3.235  20.800  0.00  0.00    +0.000 A 
ATOM      8  C   UNL     1       2.178   4.518  20.381  0.00  0.00    +0.000 A 
ATOM      9  C   UNL     1       3.030   4.813  19.340  0.00  0.00    +0.000 A 
ENDROOT
BRANCH   3  10
ATOM     10  C   UNL     1       5.797   4.740  16.215  0.00  0.00    +0.000 A 
ATOM     11  C   UNL     1       6.945   5.549  16.055  0.00  0.00    +0.000 A 
ATOM     12  N   UNL     1       7.600   5.301  14.914  0.00  0.00    +0.000 NA
ATOM     13  N   UNL     1       6.872   4.333  14.338  0.00  0.00    +0.000 N 
ATOM     14  C   UNL     1       5.785   3.958  15.076  0.00  0.00    +0.000 A 
ATOM     15  H   UNL     1       7.175   3.970  13.439  0.00  0.00    +0.000 HD
ENDBRANCH   3  10
BRANCH   1  18
ATOM     16  N   UNL     1       1.327   8.837  19.516  0.00  0.00    +0.000 N 
ATOM     17  C   UNL     1       1.717   7.536  19.725  0.00  0.00    +0.000 A 
ATOM     18  C   UNL     1       2.503   7.158  18.648  0.00  0.00    +0.000 A 
ATOM     19  C   UNL     1       2.473   8.301  17.817  0.00  0.00    +0.000 A 
ATOM     20  N   UNL     1       1.759   9.305  18.333  0.00  0.00    +0.000 NA
BRANCH  16  21
ATOM     21  C   UNL     1       0.608   9.692  20.469  0.00  0.00    +0.000 C 
ATOM     22  C   UNL     1      -0.533   8.906  21.223  0.00  0.00    +0.000 C 
ATOM     23  C   UNL     1      -0.055   9.510  22.564  0.00  0.00    +0.000 C 
ATOM     24  C   UNL     1       1.313   9.756  21.877  0.00  0.00    +0.000 C 
BRANCH  23  25
ATOM     25  C   UNL     1      -0.763  10.693  23.029  0.00  0.00    +0.000 C 
ATOM     26  N   UNL     1      -1.299  11.645  23.413  0.00  0.00    +0.000 NA
ENDBRANCH  23  25
BRANCH  21  27
ATOM     27  C   UNL     1       0.308  11.089  19.897  0.00  0.00    +0.000 C 
BRANCH  27  29
ATOM     28  N   UNL     1      -2.119  11.352  18.924  0.00  0.00    +0.000 NA
ATOM     29  C   UNL     1      -1.061  11.237  19.387  0.00  0.00    +0.000 C 
ENDBRANCH  27  29
ENDBRANCH  21  27
ENDBRANCH  16  21
ENDBRANCH   1  18
TORSDOF 6
ENDMDL
MODEL 4
REMARK VINA RESULT:      -8.1      0.918      1.882
REMARK  Name = 
REMARK  6 active torsions:
REMARK  status: ('A' for Active; 'I' for Inactive)
REMARK    1  A    between atoms: C_2  and  C_3
REMARK    2  A    between atoms: C_3  and  C_4
REMARK    3  A    between atoms: C_4  and  N_5
REMARK    4  A    between atoms: C_7  and  C_8
REMARK    5  A    between atoms: C_10  and  C_11
REMARK    6  A    between atoms: C_25  and  C_26
REMARK                            x       y       z     vdW  Elec       q    Type
REMARK                         _______ _______ _______ _____ _____    ______ ____
ROOT
ATOM      1  C   UNL     1       3.002   6.261  18.803  0.00  0.00    +0.000 A 
ATOM      2  N   UNL     1       3.988   6.172  17.952  0.00  0.00    +0.000 NA
ATOM      3  C   UNL     1       4.723   4.992  17.905  0.00  0.00    +0.000 A 
ATOM      4  C   UNL     1       4.444   3.946  18.705  0.00  0.00    +0.000 A 
ATOM      5  N   UNL     1       3.392   4.021  19.590  0.00  0.00    +0.000 N 
ATOM      6  N   UNL     1       2.967   3.078  20.462  0.00  0.00    +0.000 NA
ATOM      7  C   UNL     1       1.893   3.614  21.039  0.00  0.00    +0.000 A 
ATOM      8  C   UNL     1       1.622   4.907  20.569  0.00  0.00    +0.000 A 
ATOM      9  C   UNL     1       2.626   5.166  19.662  0.00  0.00    +0.000 A 
ENDROOT
BRANCH   3  10
ATOM     10  C   UNL     1       5.814   4.979  16.972  0.00  0.00    +0.000 A 
ATOM     11  C   UNL     1       5.863   5.484  15.654  0.00  0.00    +0.000 A 
ATOM     12  N   UNL     1       7.055   5.301  15.072  0.00  0.00    +0.000 NA
ATOM     13  N   UNL     1       7.772   4.674  16.016  0.00  0.00    +0.000 N 
ATOM     14  C   UNL     1       7.079   4.461  17.173  0.00  0.00    +0.000 A 
ATOM     15  H   UNL     1       8.733   4.422  15.805  0.00  0.00    +0.000 HD
ENDBRANCH   3  10
BRANCH   1  18
ATOM     16  N   UNL     1       1.257   9.357  19.629  0.00  0.00    +0.000 N 
ATOM     17  C   UNL     1       1.712   8.118  20.011  0.00  0.00    +0.000 A 
ATOM     18  C   UNL     1       2.288   7.524  18.899  0.00  0.00    +0.000 A 
ATOM     19  C   UNL     1       2.072   8.480  17.881  0.00  0.00    +0.000 A 
ATOM     20  N   UNL     1       1.445   9.576  18.316  0.00  0.00    +0.000 NA
BRANCH  16  21
ATOM     21  C   UNL     1       0.712  10.393  20.515  0.00  0.00    +0.000 C 
ATOM     22  C   UNL     1      -0.849  10.251  20.697  0.00  0.00    +0.000 C 
ATOM     23  C   UNL     1      -0.680  10.434  22.224  0.00  0.00    +0.000 C 
ATOM     24  C   UNL     1       0.793   9.993  22.037  0.00  0.00    +0.000 C 
BRANCH  23  25
ATOM     25  C   UNL     1      -0.889  11.779  22.741  0.00  0.00    +0.000 C 
ATOM     26  N   UNL     1      -1.086  12.845  23.146  0.00  0.00    +0.000 NA
ENDBRANCH  23  25
BRANCH  21  27
ATOM     27  C   UNL     1       1.313  11.783  20.238  0.00  0.00    +0.000 C 
BRANCH  27  29
ATOM     28  N   UNL     1      -0.210  13.292  18.720  0.00  0.00    +0.000 NA
ATOM     29  C   UNL     1       0.454  12.646  19.419  0.00  0.00    +0.000 C 
ENDBRANCH  27  29
ENDBRANCH  21  27
ENDBRANCH  16  21
ENDBRANCH   1  18
TORSDOF 6
ENDMDL
MODEL 5
REMARK VINA RESULT:      -8.1      1.494      2.224
REMARK  Name = 
REMARK  6 active torsions:
REMARK  status: ('A' for Active; 'I' for Inactive)
REMARK    1  A    between atoms: C_2  and  C_3
REMARK    2  A    between atoms: C_3  and  C_4
REMARK    3  A    between atoms: C_4  and  N_5
REMARK    4  A    between atoms: C_7  and  C_8
REMARK    5  A    between atoms: C_10  and  C_11
REMARK    6  A    between atoms: C_25  and  C_26
REMARK                            x       y       z     vdW  Elec       q    Type
REMARK                         _______ _______ _______ _____ _____    ______ ____
ROOT
ATOM      1  C   UNL     1       2.748   6.004  19.189  0.00  0.00    +0.000 A 
ATOM      2  N   UNL     1       3.807   6.134  18.436  0.00  0.00    +0.000 NA
ATOM      3  C   UNL     1       4.443   4.985  17.977  0.00  0.00    +0.000 A 
ATOM      4  C   UNL     1       3.998   3.752  18.285  0.00  0.00    +0.000 A 
ATOM      5  N   UNL     1       2.869   3.604  19.060  0.00  0.00    +0.000 N 
ATOM      6  N   UNL     1       2.280   2.456  19.464  0.00  0.00    +0.000 NA
ATOM      7  C   UNL     1       1.199   2.851  20.135  0.00  0.00    +0.000 A 
ATOM      8  C   UNL     1       1.086   4.247  20.192  0.00  0.00    +0.000 A 
ATOM      9  C   UNL     1       2.197   4.716  19.525  0.00  0.00    +0.000 A 
ENDROOT
BRANCH   3  10
ATOM     10  C   UNL     1       5.620   5.203  17.185  0.00  0.00    +0.000 A 
ATOM     11  C   UNL     1       6.377   6.385  17.024  0.00  0.00    +0.000 A 
ATOM     12  N   UNL     1       7.424   6.224  16.206  0.00  0.00    +0.000 NA
ATOM     13  N   UNL     1       7.339   4.936  15.837  0.00  0.00    +0.000 N 
ATOM     14  C   UNL     1       6.280   4.280  16.397  0.00  0.00    +0.000 A 
ATOM     15  H   UNL     1       8.039   4.569  15.200  0.00  0.00    +0.000 HD
ENDBRANCH   3  10
BRANCH   1  18
ATOM     16  N   UNL     1       1.200   9.213  19.974  0.00  0.00    +0.000 N 
ATOM     17  C   UNL     1       1.913   8.425  19.103  0.00  0.00    +0.000 A 
ATOM     18  C   UNL     1       2.135   7.208  19.726  0.00  0.00    +0.000 A 
ATOM     19  C   UNL     1       1.555   7.394  21.002  0.00  0.00    +0.000 A 
ATOM     20  N   UNL     1       1.004   8.601  21.155  0.00  0.00    +0.000 NA
BRANCH  16  21
ATOM     21  C   UNL     1       0.618  10.528  19.680  0.00  0.00    +0.000 C 
ATOM     22  C   UNL     1       1.244  11.665  20.577  0.00  0.00    +0.000 C 
ATOM     23  C   UNL     1       1.403  12.557  19.324  0.00  0.00    +0.000 C 
ATOM     24  C   UNL     1       1.340  11.256  18.484  0.00  0.00    +0.000 C 
BRANCH  23  25
ATOM     25  C   UNL     1       0.348  13.529  19.084  0.00  0.00    +0.000 C 
ATOM     26  N   UNL     1      -0.483  14.319  18.918  0.00  0.00    +0.000 NA
ENDBRANCH  23  25
BRANCH  21  27
ATOM     27  C   UNL     1      -0.909  10.470  19.498  0.00  0.00    +0.000 C 
BRANCH  27  29
ATOM     28  N   UNL     1      -1.633   9.878  17.042  0.00  0.00    +0.000 NA
ATOM     29  C   UNL     1      -1.329  10.172  18.123  0.00  0.00    +0.000 C 
ENDBRANCH  27  29
ENDBRANCH  21  27
ENDBRANCH  16  21
ENDBRANCH   1  18
TORSDOF 6
ENDMDL
MODEL 6
REMARK VINA RESULT:      -8.0      1.524      1.947
REMARK  Name = 
REMARK  6 active torsions:
REMARK  status: ('A' for Active; 'I' for Inactive)
REMARK    1  A    between atoms: C_2  and  C_3
REMARK    2  A    between atoms: C_3  and  C_4
REMARK    3  A    between atoms: C_4  and  N_5
REMARK    4  A    between atoms: C_7  and  C_8
REMARK    5  A    between atoms: C_10  and  C_11
REMARK    6  A    between atoms: C_25  and  C_26
REMARK                            x       y       z     vdW  Elec       q    Type
REMARK                         _______ _______ _______ _____ _____    ______ ____
ROOT
ATOM      1  C   UNL     1       2.777   5.650  18.552  0.00  0.00    +0.000 A 
ATOM      2  N   UNL     1       3.801   5.884  17.776  0.00  0.00    +0.000 NA
ATOM      3  C   UNL     1       4.360   4.821  17.074  0.00  0.00    +0.000 A 
ATOM      4  C   UNL     1       3.875   3.569  17.169  0.00  0.00    +0.000 A 
ATOM      5  N   UNL     1       2.781   3.317  17.966  0.00  0.00    +0.000 N 
ATOM      6  N   UNL     1       2.161   2.134  18.181  0.00  0.00    +0.000 NA
ATOM      7  C   UNL     1       1.134   2.432  18.975  0.00  0.00    +0.000 A 
ATOM      8  C   UNL     1       1.088   3.796  19.300  0.00  0.00    +0.000 A 
ATOM      9  C   UNL     1       2.184   4.342  18.670  0.00  0.00    +0.000 A 
ENDROOT
BRANCH   3  10
ATOM     10  C   UNL     1       5.505   5.145  16.271  0.00  0.00    +0.000 A 
ATOM     11  C   UNL     1       6.710   5.775  16.653  0.00  0.00    +0.000 A 
ATOM     12  N   UNL     1       7.568   5.915  15.635  0.00  0.00    +0.000 NA
ATOM     13  N   UNL     1       6.913   5.377  14.595  0.00  0.00    +0.000 N 
ATOM     14  C   UNL     1       5.676   4.898  14.922  0.00  0.00    +0.000 A 
ATOM     15  H   UNL     1       7.370   5.367  13.688  0.00  0.00    +0.000 HD
ENDBRANCH   3  10
BRANCH   1  18
ATOM     16  N   UNL     1       1.373   8.686  20.009  0.00  0.00    +0.000 N 
ATOM     17  C   UNL     1       1.967   8.050  18.946  0.00  0.00    +0.000 A 
ATOM     18  C   UNL     1       2.246   6.751  19.340  0.00  0.00    +0.000 A 
ATOM     19  C   UNL     1       1.825   6.731  20.689  0.00  0.00    +0.000 A 
ATOM     20  N   UNL     1       1.311   7.895  21.094  0.00  0.00    +0.000 NA
BRANCH  16  21
ATOM     21  C   UNL     1       0.776  10.028  19.996  0.00  0.00    +0.000 C 
ATOM     22  C   UNL     1       0.994  10.757  18.614  0.00  0.00    +0.000 C 
ATOM     23  C   UNL     1      -0.495  11.176  18.609  0.00  0.00    +0.000 C 
ATOM     24  C   UNL     1      -0.748  10.010  19.597  0.00  0.00    +0.000 C 
BRANCH  23  25
ATOM     25  C   UNL     1      -0.793  12.512  19.101  0.00  0.00    +0.000 C 
ATOM     26  N   UNL     1      -1.029  13.586  19.464  0.00  0.00    +0.000 NA
ENDBRANCH  23  25
BRANCH  21  27
ATOM     27  C   UNL     1       1.033  10.801  21.302  0.00  0.00    +0.000 C 
BRANCH  27  29
ATOM     28  N   UNL     1      -0.838  10.525  23.127  0.00  0.00    +0.000 NA
ATOM     29  C   UNL     1      -0.037  10.653  22.297  0.00  0.00    +0.000 C 
ENDBRANCH  27  29
ENDBRANCH  21  27
ENDBRANCH  16  21
ENDBRANCH   1  18
TORSDOF 6
ENDMDL
MODEL 7
REMARK VINA RESULT:      -7.9      1.544      2.296
REMARK  Name = 
REMARK  6 active torsions:
REMARK  status: ('A' for Active; 'I' for Inactive)
REMARK    1  A    between atoms: C_2  and  C_3
REMARK    2  A    between atoms: C_3  and  C_4
REMARK    3  A    between atoms: C_4  and  N_5
REMARK    4  A    between atoms: C_7  and  C_8
REMARK    5  A    between atoms: C_10  and  C_11
REMARK    6  A    between atoms: C_25  and  C_26
REMARK                            x       y       z     vdW  Elec       q    Type
REMARK                         _______ _______ _______ _____ _____    ______ ____
ROOT
ATOM      1  C   UNL     1       2.838   5.750  18.821  0.00  0.00    +0.000 A 
ATOM      2  N   UNL     1       3.916   5.945  18.111  0.00  0.00    +0.000 NA
ATOM      3  C   UNL     1       4.534   4.846  17.523  0.00  0.00    +0.000 A 
ATOM      4  C   UNL     1       4.052   3.597  17.663  0.00  0.00    +0.000 A 
ATOM      5  N   UNL     1       2.903   3.383  18.391  0.00  0.00    +0.000 N 
ATOM      6  N   UNL     1       2.277   2.209  18.635  0.00  0.00    +0.000 NA
ATOM      7  C   UNL     1       1.191   2.546  19.328  0.00  0.00    +0.000 A 
ATOM      8  C   UNL     1       1.110   3.927  19.560  0.00  0.00    +0.000 A 
ATOM      9  C   UNL     1       2.247   4.445  18.980  0.00  0.00    +0.000 A 
ENDROOT
BRANCH   3  10
ATOM     10  C   UNL     1       5.735   5.131  16.789  0.00  0.00    +0.000 A 
ATOM     11  C   UNL     1       6.420   4.322  15.856  0.00  0.00    +0.000 A 
ATOM     12  N   UNL     1       7.513   4.914  15.359  0.00  0.00    +0.000 NA
ATOM     13  N   UNL     1       7.532   6.105  15.976  0.00  0.00    +0.000 N 
ATOM     14  C   UNL     1       6.489   6.288  16.838  0.00  0.00    +0.000 A 
ATOM     15  H   UNL     1       8.287   6.749  15.759  0.00  0.00    +0.000 HD
ENDBRANCH   3  10
BRANCH   1  18
ATOM     16  N   UNL     1       1.243   8.826  19.964  0.00  0.00    +0.000 N 
ATOM     17  C   UNL     1       1.868   8.118  18.966  0.00  0.00    +0.000 A 
ATOM     18  C   UNL     1       2.241   6.893  19.494  0.00  0.00    +0.000 A 
ATOM     19  C   UNL     1       1.839   6.994  20.845  0.00  0.00    +0.000 A 
ATOM     20  N   UNL     1       1.249   8.158  21.130  0.00  0.00    +0.000 NA
BRANCH  16  21
ATOM     21  C   UNL     1       0.555  10.115  19.815  0.00  0.00    +0.000 C 
ATOM     22  C   UNL     1      -0.545  10.328  20.927  0.00  0.00    +0.000 C 
ATOM     23  C   UNL     1      -0.017  11.762  21.163  0.00  0.00    +0.000 C 
ATOM     24  C   UNL     1       1.317  11.295  20.529  0.00  0.00    +0.000 C 
BRANCH  23  25
ATOM     25  C   UNL     1      -0.719  12.832  20.469  0.00  0.00    +0.000 C 
ATOM     26  N   UNL     1      -1.284  13.662  19.894  0.00  0.00    +0.000 NA
ENDBRANCH  23  25
BRANCH  21  27
ATOM     27  C   UNL     1       0.213  10.435  18.349  0.00  0.00    +0.000 C 
BRANCH  27  29
ATOM     28  N   UNL     1      -2.302   9.936  17.776  0.00  0.00    +0.000 NA
ATOM     29  C   UNL     1      -1.184  10.159  17.993  0.00  0.00    +0.000 C 
ENDBRANCH  27  29
ENDBRANCH  21  27
ENDBRANCH  16  21
ENDBRANCH   1  18
TORSDOF 6
ENDMDL
MODEL 8
REMARK VINA RESULT:      -7.8      1.064      1.868
REMARK  Name = 
REMARK  6 active torsions:
REMARK  status: ('A' for Active; 'I' for Inactive)
REMARK    1  A    between atoms: C_2  and  C_3
REMARK    2  A    between atoms: C_3  and  C_4
REMARK    3  A    between atoms: C_4  and  N_5
REMARK    4  A    between atoms: C_7  and  C_8
REMARK    5  A    between atoms: C_10  and  C_11
REMARK    6  A    between atoms: C_25  and  C_26
REMARK                            x       y       z     vdW  Elec       q    Type
REMARK                         _______ _______ _______ _____ _____    ______ ____
ROOT
ATOM      1  C   UNL     1       2.909   6.006  18.976  0.00  0.00    +0.000 A 
ATOM      2  N   UNL     1       3.976   5.866  18.236  0.00  0.00    +0.000 NA
ATOM      3  C   UNL     1       4.662   4.656  18.281  0.00  0.00    +0.000 A 
ATOM      4  C   UNL     1       4.257   3.634  19.058  0.00  0.00    +0.000 A 
ATOM      5  N   UNL     1       3.120   3.765  19.824  0.00  0.00    +0.000 N 
ATOM      6  N   UNL     1       2.566   2.853  20.656  0.00  0.00    +0.000 NA
ATOM      7  C   UNL     1       1.460   3.440  21.108  0.00  0.00    +0.000 A 
ATOM      8  C   UNL     1       1.294   4.735  20.598  0.00  0.00    +0.000 A 
ATOM      9  C   UNL     1       2.399   4.941  19.801  0.00  0.00    +0.000 A 
ENDROOT
BRANCH   3  10
ATOM     10  C   UNL     1       5.845   4.586  17.470  0.00  0.00    +0.000 A 
ATOM     11  C   UNL     1       7.199   4.638  17.868  0.00  0.00    +0.000 A 
ATOM     12  N   UNL     1       8.047   4.539  16.836  0.00  0.00    +0.000 NA
ATOM     13  N   UNL     1       7.236   4.426  15.773  0.00  0.00    +0.000 N 
ATOM     14  C   UNL     1       5.910   4.444  16.097  0.00  0.00    +0.000 A 
ATOM     15  H   UNL     1       7.656   4.337  14.853  0.00  0.00    +0.000 HD
ENDBRANCH   3  10
BRANCH   1  18
ATOM     16  N   UNL     1       1.209   9.178  19.576  0.00  0.00    +0.000 N 
ATOM     17  C   UNL     1       1.563   7.925  20.014  0.00  0.00    +0.000 A 
ATOM     18  C   UNL     1       2.242   7.298  18.981  0.00  0.00    +0.000 A 
ATOM     19  C   UNL     1       2.187   8.253  17.941  0.00  0.00    +0.000 A 
ATOM     20  N   UNL     1       1.559   9.377  18.294  0.00  0.00    +0.000 NA
BRANCH  16  21
ATOM     21  C   UNL     1       0.606  10.243  20.387  0.00  0.00    +0.000 C 
ATOM     22  C   UNL     1      -0.813   9.832  20.941  0.00  0.00    +0.000 C 
ATOM     23  C   UNL     1      -0.411  10.357  22.340  0.00  0.00    +0.000 C 
ATOM     24  C   UNL     1       1.064  10.192  21.894  0.00  0.00    +0.000 C 
BRANCH  23  25
ATOM     25  C   UNL     1      -0.836  11.709  22.669  0.00  0.00    +0.000 C 
ATOM     26  N   UNL     1      -1.164  12.780  22.962  0.00  0.00    +0.000 NA
ENDBRANCH  23  25
BRANCH  21  27
ATOM     27  C   UNL     1       0.793  11.638  19.762  0.00  0.00    +0.000 C 
BRANCH  27  29
ATOM     28  N   UNL     1       2.395  13.194  21.148  0.00  0.00    +0.000 NA
ATOM     29  C   UNL     1       1.714  12.502  20.512  0.00  0.00    +0.000 C 
ENDBRANCH  27  29
ENDBRANCH  21  27
ENDBRANCH  16  21
ENDBRANCH   1  18
TORSDOF 6
ENDMDL
MODEL 9
REMARK VINA RESULT:      -7.8      1.590      2.384
REMARK  Name = 
REMARK  6 active torsions:
REMARK  status: ('A' for Active; 'I' for Inactive)
REMARK    1  A    between atoms: C_2  and  C_3
REMARK    2  A    between atoms: C_3  and  C_4
REMARK    3  A    between atoms: C_4  and  N_5
REMARK    4  A    between atoms: C_7  and  C_8
REMARK    5  A    between atoms: C_10  and  C_11
REMARK    6  A    between atoms: C_25  and  C_26
REMARK                            x       y       z     vdW  Elec       q    Type
REMARK                         _______ _______ _______ _____ _____    ______ ____
ROOT
ATOM      1  C   UNL     1       2.878   5.720  18.475  0.00  0.00    +0.000 A 
ATOM      2  N   UNL     1       3.900   5.919  17.688  0.00  0.00    +0.000 NA
ATOM      3  C   UNL     1       4.467   4.824  17.043  0.00  0.00    +0.000 A 
ATOM      4  C   UNL     1       3.991   3.575  17.207  0.00  0.00    +0.000 A 
ATOM      5  N   UNL     1       2.898   3.358  18.016  0.00  0.00    +0.000 N 
ATOM      6  N   UNL     1       2.286   2.185  18.295  0.00  0.00    +0.000 NA
ATOM      7  C   UNL     1       1.258   2.518  19.072  0.00  0.00    +0.000 A 
ATOM      8  C   UNL     1       1.202   3.897  19.323  0.00  0.00    +0.000 A 
ATOM      9  C   UNL     1       2.295   4.417  18.664  0.00  0.00    +0.000 A 
ENDROOT
BRANCH   3  10
ATOM     10  C   UNL     1       5.610   5.111  16.224  0.00  0.00    +0.000 A 
ATOM     11  C   UNL     1       5.808   4.848  14.850  0.00  0.00    +0.000 A 
ATOM     12  N   UNL     1       7.004   5.258  14.410  0.00  0.00    +0.000 NA
ATOM     13  N   UNL     1       7.577   5.784  15.503  0.00  0.00    +0.000 N 
ATOM     14  C   UNL     1       6.785   5.725  16.614  0.00  0.00    +0.000 A 
ATOM     15  H   UNL     1       8.513   6.170  15.420  0.00  0.00    +0.000 HD
ENDBRANCH   3  10
BRANCH   1  18
ATOM     16  N   UNL     1       1.414   8.803  19.765  0.00  0.00    +0.000 N 
ATOM     17  C   UNL     1       1.979   8.108  18.723  0.00  0.00    +0.000 A 
ATOM     18  C   UNL     1       2.340   6.859  19.202  0.00  0.00    +0.000 A 
ATOM     19  C   UNL     1       1.994   6.932  20.571  0.00  0.00    +0.000 A 
ATOM     20  N   UNL     1       1.448   8.102  20.911  0.00  0.00    +0.000 NA
BRANCH  16  21
ATOM     21  C   UNL     1       0.755  10.113  19.680  0.00  0.00    +0.000 C 
ATOM     22  C   UNL     1      -0.705  10.079  20.278  0.00  0.00    +0.000 C 
ATOM     23  C   UNL     1      -0.410  11.384  21.053  0.00  0.00    +0.000 C 
ATOM     24  C   UNL     1       1.094  11.042  20.906  0.00  0.00    +0.000 C 
BRANCH  23  25
ATOM     25  C   UNL     1      -0.853  12.621  20.426  0.00  0.00    +0.000 C 
ATOM     26  N   UNL     1      -1.175  13.617  19.932  0.00  0.00    +0.000 NA
ENDBRANCH  23  25
BRANCH  21  27
ATOM     27  C   UNL     1       0.998  10.808  18.329  0.00  0.00    +0.000 C 
BRANCH  27  29
ATOM     28  N   UNL     1       2.744  12.771  18.395  0.00  0.00    +0.000 NA
ATOM     29  C   UNL     1       1.993  11.886  18.390  0.00  0.00    +0.000 C 
ENDBRANCH  27  29
ENDBRANCH  21  27
ENDBRANCH  16  21
ENDBRANCH   1  18
TORSDOF 6
ENDMDL
