MODEL 1
REMARK VINA RESULT:      -6.9      0.000      0.000
REMARK  Name = 
REMARK  5 active torsions:
REMARK  status: ('A' for Active; 'I' for Inactive)
REMARK    1  A    between atoms: C_1  and  C_2
REMARK    2  A    between atoms: C_2  and  C_3
REMARK    3  A    between atoms: C_3  and  N_4
REMARK    4  A    between atoms: N_6  and  C_7
REMARK    5  A    between atoms: C_7  and  C_8
REMARK                            x       y       z     vdW  Elec       q    Type
REMARK                         _______ _______ _______ _____ _____    ______ ____
ROOT
ATOM      1  N   UNL     1       5.601   4.983  17.000  0.00  0.00    +0.000 N 
ATOM      2  C   UNL     1       5.513   4.021  17.991  0.00  0.00    +0.000 A 
ATOM      3  N   UNL     1       4.710   2.937  17.911  0.00  0.00    +0.000 N 
ATOM      4  N   UNL     1       6.309   4.314  18.994  0.00  0.00    +0.000 NA
ATOM      5  C   UNL     1       6.935   5.484  18.660  0.00  0.00    +0.000 A 
ATOM      6  C   UNL     1       7.903   6.209  19.372  0.00  0.00    +0.000 A 
ATOM      7  C   UNL     1       8.386   7.405  18.829  0.00  0.00    +0.000 A 
ATOM      8  C   UNL     1       7.897   7.880  17.612  0.00  0.00    +0.000 A 
ATOM      9  C   UNL     1       6.929   7.171  16.891  0.00  0.00    +0.000 A 
ATOM     10  C   UNL     1       6.483   5.957  17.434  0.00  0.00    +0.000 A 
ATOM     11  H   UNL     1       4.087   2.781  17.130  0.00  0.00    +0.000 HD
ENDROOT
BRANCH   1  12
ATOM     12  C   UNL     1       4.849   5.048  15.762  0.00  0.00    +0.000 C 
BRANCH  12  14
ATOM     13  C   UNL     1       6.920   4.556  14.352  0.00  0.00    +0.000 C 
ATOM     14  C   UNL     1       5.448   4.264  14.590  0.00  0.00    +0.000 C 
ENDBRANCH  12  14
ENDBRANCH   1  12
BRANCH   3  15
ATOM     15  C   UNL     1       4.194   2.377  19.157  0.00  0.00    +0.000 C 
BRANCH  15  16
ATOM     16  C   UNL     1       2.886   2.969  19.602  0.00  0.00    +0.000 A 
ATOM     17  C   UNL     1       1.638   2.374  19.582  0.00  0.00    +0.000 A 
ATOM     18  C   UNL     1       0.628   3.208  20.139  0.00  0.00    +0.000 A 
ATOM     19  C   UNL     1       1.133   4.420  20.554  0.00  0.00    +0.000 A 
ATOM     20  S   UNL     1       2.814   4.549  20.261  0.00  0.00    +0.000 S 
ENDBRANCH  15  16
ENDBRANCH   3  15
TORSDOF 4
ENDMDL
MODEL 2
REMARK VINA RESULT:      -6.8      3.341      6.358
REMARK  Name = 
REMARK  5 active torsions:
REMARK  status: ('A' for Active; 'I' for Inactive)
REMARK    1  A    between atoms: C_1  and  C_2
REMARK    2  A    between atoms: C_2  and  C_3
REMARK    3  A    between atoms: C_3  and  N_4
REMARK    4  A    between atoms: N_6  and  C_7
REMARK    5  A    between atoms: C_7  and  C_8
REMARK                            x       y       z     vdW  Elec       q    Type
REMARK                         _______ _______ _______ _____ _____    ______ ____
ROOT
ATOM      1  N   UNL     1       2.236   6.391  19.753  0.00  0.00    +0.000 N 
ATOM      2  C   UNL     1       2.799   6.493  18.494  0.00  0.00    +0.000 A 
ATOM      3  N   UNL     1       3.446   5.478  17.879  0.00  0.00    +0.000 N 
ATOM      4  N   UNL     1       2.613   7.696  17.998  0.00  0.00    +0.000 NA
ATOM      5  C   UNL     1       1.913   8.396  18.942  0.00  0.00    +0.000 A 
ATOM      6  C   UNL     1       1.435   9.716  18.897  0.00  0.00    +0.000 A 
ATOM      7  C   UNL     1       0.756  10.226  20.009  0.00  0.00    +0.000 A 
ATOM      8  C   UNL     1       0.575   9.445  21.150  0.00  0.00    +0.000 A 
ATOM      9  C   UNL     1       1.048   8.129  21.212  0.00  0.00    +0.000 A 
ATOM     10  C   UNL     1       1.696   7.624  20.076  0.00  0.00    +0.000 A 
ATOM     11  H   UNL     1       3.595   4.583  18.324  0.00  0.00    +0.000 HD
ENDROOT
BRANCH   1  12
ATOM     12  C   UNL     1       2.270   5.249  20.646  0.00  0.00    +0.000 C 
BRANCH  12  14
ATOM     13  C   UNL     1       1.444   2.839  20.810  0.00  0.00    +0.000 C 
ATOM     14  C   UNL     1       1.083   4.287  20.525  0.00  0.00    +0.000 C 
ENDBRANCH  12  14
ENDBRANCH   1  12
BRANCH   3  15
ATOM     15  C   UNL     1       4.511   5.818  16.939  0.00  0.00    +0.000 C 
BRANCH  15  16
ATOM     16  C   UNL     1       5.844   6.070  17.586  0.00  0.00    +0.000 A 
ATOM     17  C   UNL     1       6.749   7.074  17.295  0.00  0.00    +0.000 A 
ATOM     18  C   UNL     1       7.885   7.049  18.153  0.00  0.00    +0.000 A 
ATOM     19  C   UNL     1       7.820   6.018  19.063  0.00  0.00    +0.000 A 
ATOM     20  S   UNL     1       6.399   5.083  18.872  0.00  0.00    +0.000 S 
ENDBRANCH  15  16
ENDBRANCH   3  15
TORSDOF 4
ENDMDL
MODEL 3
REMARK VINA RESULT:      -6.8      0.938      3.330
REMARK  Name = 
REMARK  5 active torsions:
REMARK  status: ('A' for Active; 'I' for Inactive)
REMARK    1  A    between atoms: C_1  and  C_2
REMARK    2  A    between atoms: C_2  and  C_3
REMARK    3  A    between atoms: C_3  and  N_4
REMARK    4  A    between atoms: N_6  and  C_7
REMARK    5  A    between atoms: C_7  and  C_8
REMARK                            x       y       z     vdW  Elec       q    Type
REMARK                         _______ _______ _______ _____ _____    ______ ____
ROOT
ATOM      1  N   UNL     1       6.720   4.550  17.472  0.00  0.00    +0.000 N 
ATOM      2  C   UNL     1       5.570   3.966  17.972  0.00  0.00    +0.000 A 
ATOM      3  N   UNL     1       5.326   3.803  19.291  0.00  0.00    +0.000 N 
ATOM      4  N   UNL     1       4.769   3.604  16.994  0.00  0.00    +0.000 NA
ATOM      5  C   UNL     1       5.399   3.959  15.832  0.00  0.00    +0.000 A 
ATOM      6  C   UNL     1       4.960   3.821  14.506  0.00  0.00    +0.000 A 
ATOM      7  C   UNL     1       5.801   4.243  13.469  0.00  0.00    +0.000 A 
ATOM      8  C   UNL     1       7.061   4.770  13.747  0.00  0.00    +0.000 A 
ATOM      9  C   UNL     1       7.515   4.911  15.064  0.00  0.00    +0.000 A 
ATOM     10  C   UNL     1       6.645   4.515  16.091  0.00  0.00    +0.000 A 
ATOM     11  H   UNL     1       5.996   4.066  20.001  0.00  0.00    +0.000 HD
ENDROOT
BRANCH   1  12
ATOM     12  C   UNL     1       7.863   5.033  18.222  0.00  0.00    +0.000 C 
BRANCH  12  14
ATOM     13  C   UNL     1       7.707   7.517  17.651  0.00  0.00    +0.000 C 
ATOM     14  C   UNL     1       7.742   6.467  18.749  0.00  0.00    +0.000 C 
ENDBRANCH  12  14
ENDBRANCH   1  12
BRANCH   3  15
ATOM     15  C   UNL     1       4.495   2.673  19.697  0.00  0.00    +0.000 C 
BRANCH  15  16
ATOM     16  C   UNL     1       3.025   2.980  19.755  0.00  0.00    +0.000 A 
ATOM     17  C   UNL     1       1.991   2.285  19.155  0.00  0.00    +0.000 A 
ATOM     18  C   UNL     1       0.714   2.824  19.476  0.00  0.00    +0.000 A 
ATOM     19  C   UNL     1       0.812   3.924  20.299  0.00  0.00    +0.000 A 
ATOM     20  S   UNL     1       2.438   4.304  20.670  0.00  0.00    +0.000 S 
ENDBRANCH  15  16
ENDBRANCH   3  15
TORSDOF 4
ENDMDL
MODEL 4
REMARK VINA RESULT:      -6.8      1.214      3.541
REMARK  Name = 
REMARK  5 active torsions:
REMARK  status: ('A' for Active; 'I' for Inactive)
REMARK    1  A    between atoms: C_1  and  C_2
REMARK    2  A    between atoms: C_2  and  C_3
REMARK    3  A    between atoms: C_3  and  N_4
REMARK    4  A    between atoms: N_6  and  C_7
REMARK    5  A    between atoms: C_7  and  C_8
REMARK                            x       y       z     vdW  Elec       q    Type
REMARK                         _______ _______ _______ _____ _____    ______ ____
ROOT
ATOM      1  N   UNL     1       6.568   5.272  17.068  0.00  0.00    +0.000 N 
ATOM      2  C   UNL     1       5.559   4.493  17.604  0.00  0.00    +0.000 A 
ATOM      3  N   UNL     1       5.197   4.529  18.906  0.00  0.00    +0.000 N 
ATOM      4  N   UNL     1       5.017   3.732  16.679  0.00  0.00    +0.000 NA
ATOM      5  C   UNL     1       5.676   4.017  15.514  0.00  0.00    +0.000 A 
ATOM      6  C   UNL     1       5.465   3.502  14.226  0.00  0.00    +0.000 A 
ATOM      7  C   UNL     1       6.292   3.935  13.182  0.00  0.00    +0.000 A 
ATOM      8  C   UNL     1       7.320   4.845  13.422  0.00  0.00    +0.000 A 
ATOM      9  C   UNL     1       7.545   5.366  14.702  0.00  0.00    +0.000 A 
ATOM     10  C   UNL     1       6.686   4.947  15.728  0.00  0.00    +0.000 A 
ATOM     11  H   UNL     1       5.675   5.107  19.584  0.00  0.00    +0.000 HD
ENDROOT
BRANCH   1  12
ATOM     12  C   UNL     1       7.434   6.200  17.767  0.00  0.00    +0.000 C 
BRANCH  12  14
ATOM     13  C   UNL     1       8.263   8.601  18.030  0.00  0.00    +0.000 C 
ATOM     14  C   UNL     1       7.200   7.682  17.452  0.00  0.00    +0.000 C 
ENDBRANCH  12  14
ENDBRANCH   1  12
BRANCH   3  15
ATOM     15  C   UNL     1       4.651   3.311  19.496  0.00  0.00    +0.000 C 
BRANCH  15  16
ATOM     16  C   UNL     1       3.164   3.348  19.718  0.00  0.00    +0.000 A 
ATOM     17  C   UNL     1       2.456   4.182  20.562  0.00  0.00    +0.000 A 
ATOM     18  C   UNL     1       1.049   3.982  20.471  0.00  0.00    +0.000 A 
ATOM     19  C   UNL     1       0.728   2.992  19.570  0.00  0.00    +0.000 A 
ATOM     20  S   UNL     1       2.119   2.304  18.849  0.00  0.00    +0.000 S 
ENDBRANCH  15  16
ENDBRANCH   3  15
TORSDOF 4
ENDMDL
MODEL 5
REMARK VINA RESULT:      -6.7      4.210      6.110
REMARK  Name = 
REMARK  5 active torsions:
REMARK  status: ('A' for Active; 'I' for Inactive)
REMARK    1  A    between atoms: C_1  and  C_2
REMARK    2  A    between atoms: C_2  and  C_3
REMARK    3  A    between atoms: C_3  and  N_4
REMARK    4  A    between atoms: N_6  and  C_7
REMARK    5  A    between atoms: C_7  and  C_8
REMARK                            x       y       z     vdW  Elec       q    Type
REMARK                         _______ _______ _______ _____ _____    ______ ____
ROOT
ATOM      1  N   UNL     1       2.703   5.746  19.776  0.00  0.00    +0.000 N 
ATOM      2  C   UNL     1       2.475   7.106  19.669  0.00  0.00    +0.000 A 
ATOM      3  N   UNL     1       1.764   7.819  20.571  0.00  0.00    +0.000 N 
ATOM      4  N   UNL     1       3.042   7.588  18.585  0.00  0.00    +0.000 NA
ATOM      5  C   UNL     1       3.657   6.532  17.971  0.00  0.00    +0.000 A 
ATOM      6  C   UNL     1       4.426   6.511  16.797  0.00  0.00    +0.000 A 
ATOM      7  C   UNL     1       4.940   5.290  16.348  0.00  0.00    +0.000 A 
ATOM      8  C   UNL     1       4.674   4.109  17.042  0.00  0.00    +0.000 A 
ATOM      9  C   UNL     1       3.907   4.112  18.212  0.00  0.00    +0.000 A 
ATOM     10  C   UNL     1       3.430   5.351  18.666  0.00  0.00    +0.000 A 
ATOM     11  H   UNL     1       1.316   7.388  21.368  0.00  0.00    +0.000 HD
ENDROOT
BRANCH   1  12
ATOM     12  C   UNL     1       2.207   4.845  20.797  0.00  0.00    +0.000 C 
BRANCH  12  14
ATOM     13  C   UNL     1       1.229   2.508  20.477  0.00  0.00    +0.000 C 
ATOM     14  C   UNL     1       0.989   4.006  20.396  0.00  0.00    +0.000 C 
ENDBRANCH  12  14
ENDBRANCH   1  12
BRANCH   3  15
ATOM     15  C   UNL     1       1.045   8.997  20.094  0.00  0.00    +0.000 C 
BRANCH  15  16
ATOM     16  C   UNL     1       0.249   9.703  21.157  0.00  0.00    +0.000 A 
ATOM     17  C   UNL     1      -0.102   9.227  22.407  0.00  0.00    +0.000 A 
ATOM     18  C   UNL     1      -0.806  10.193  23.179  0.00  0.00    +0.000 A 
ATOM     19  C   UNL     1      -0.984  11.372  22.490  0.00  0.00    +0.000 A 
ATOM     20  S   UNL     1      -0.312  11.304  20.918  0.00  0.00    +0.000 S 
ENDBRANCH  15  16
ENDBRANCH   3  15
TORSDOF 4
ENDMDL
MODEL 6
REMARK VINA RESULT:      -6.7      3.398      6.142
REMARK  Name = 
REMARK  5 active torsions:
REMARK  status: ('A' for Active; 'I' for Inactive)
REMARK    1  A    between atoms: C_1  and  C_2
REMARK    2  A    between atoms: C_2  and  C_3
REMARK    3  A    between atoms: C_3  and  N_4
REMARK    4  A    between atoms: N_6  and  C_7
REMARK    5  A    between atoms: C_7  and  C_8
REMARK                            x       y       z     vdW  Elec       q    Type
REMARK                         _______ _______ _______ _____ _____    ______ ____
ROOT
ATOM      1  N   UNL     1       2.307   6.207  19.715  0.00  0.00    +0.000 N 
ATOM      2  C   UNL     1       2.942   6.111  18.490  0.00  0.00    +0.000 A 
ATOM      3  N   UNL     1       3.556   4.989  18.053  0.00  0.00    +0.000 N 
ATOM      4  N   UNL     1       2.858   7.245  17.833  0.00  0.00    +0.000 NA
ATOM      5  C   UNL     1       2.154   8.102  18.634  0.00  0.00    +0.000 A 
ATOM      6  C   UNL     1       1.763   9.428  18.390  0.00  0.00    +0.000 A 
ATOM      7  C   UNL     1       1.059  10.118  19.383  0.00  0.00    +0.000 A 
ATOM      8  C   UNL     1       0.769   9.507  20.602  0.00  0.00    +0.000 A 
ATOM      9  C   UNL     1       1.155   8.186  20.863  0.00  0.00    +0.000 A 
ATOM     10  C   UNL     1       1.829   7.500  19.843  0.00  0.00    +0.000 A 
ATOM     11  H   UNL     1       3.624   4.153  18.618  0.00  0.00    +0.000 HD
ENDROOT
BRANCH   1  12
ATOM     12  C   UNL     1       2.221   5.194  20.749  0.00  0.00    +0.000 C 
BRANCH  12  14
ATOM     13  C   UNL     1       1.464   2.763  20.941  0.00  0.00    +0.000 C 
ATOM     14  C   UNL     1       1.075   4.190  20.589  0.00  0.00    +0.000 C 
ENDBRANCH  12  14
ENDBRANCH   1  12
BRANCH   3  15
ATOM     15  C   UNL     1       4.689   5.142  17.144  0.00  0.00    +0.000 C 
BRANCH  15  16
ATOM     16  C   UNL     1       5.938   5.661  17.800  0.00  0.00    +0.000 A 
ATOM     17  C   UNL     1       6.633   5.103  18.856  0.00  0.00    +0.000 A 
ATOM     18  C   UNL     1       7.811   5.833  19.179  0.00  0.00    +0.000 A 
ATOM     19  C   UNL     1       7.972   6.935  18.370  0.00  0.00    +0.000 A 
ATOM     20  S   UNL     1       6.700   7.088  17.235  0.00  0.00    +0.000 S 
ENDBRANCH  15  16
ENDBRANCH   3  15
TORSDOF 4
ENDMDL
MODEL 7
REMARK VINA RESULT:      -6.7      0.828      1.037
REMARK  Name = 
REMARK  5 active torsions:
REMARK  status: ('A' for Active; 'I' for Inactive)
REMARK    1  A    between atoms: C_1  and  C_2
REMARK    2  A    between atoms: C_2  and  C_3
REMARK    3  A    between atoms: C_3  and  N_4
REMARK    4  A    between atoms: N_6  and  C_7
REMARK    5  A    between atoms: C_7  and  C_8
REMARK                            x       y       z     vdW  Elec       q    Type
REMARK                         _______ _______ _______ _____ _____    ______ ____
ROOT
ATOM      1  N   UNL     1       5.561   4.797  16.982  0.00  0.00    +0.000 N 
ATOM      2  C   UNL     1       5.445   3.868  18.000  0.00  0.00    +0.000 A 
ATOM      3  N   UNL     1       4.649   2.778  17.931  0.00  0.00    +0.000 N 
ATOM      4  N   UNL     1       6.209   4.197  19.018  0.00  0.00    +0.000 NA
ATOM      5  C   UNL     1       6.841   5.358  18.665  0.00  0.00    +0.000 A 
ATOM      6  C   UNL     1       7.784   6.110  19.383  0.00  0.00    +0.000 A 
ATOM      7  C   UNL     1       8.279   7.290  18.816  0.00  0.00    +0.000 A 
ATOM      8  C   UNL     1       7.827   7.723  17.570  0.00  0.00    +0.000 A 
ATOM      9  C   UNL     1       6.884   6.986  16.843  0.00  0.00    +0.000 A 
ATOM     10  C   UNL     1       6.426   5.789  17.411  0.00  0.00    +0.000 A 
ATOM     11  H   UNL     1       4.051   2.594  17.137  0.00  0.00    +0.000 HD
ENDROOT
BRANCH   1  12
ATOM     12  C   UNL     1       4.848   4.819  15.720  0.00  0.00    +0.000 C 
BRANCH  12  14
ATOM     13  C   UNL     1       5.716   3.699  13.595  0.00  0.00    +0.000 C 
ATOM     14  C   UNL     1       5.729   4.941  14.472  0.00  0.00    +0.000 C 
ENDBRANCH  12  14
ENDBRANCH   1  12
BRANCH   3  15
ATOM     15  C   UNL     1       4.097   2.257  19.178  0.00  0.00    +0.000 C 
BRANCH  15  16
ATOM     16  C   UNL     1       2.820   2.924  19.611  0.00  0.00    +0.000 A 
ATOM     17  C   UNL     1       2.677   4.015  20.447  0.00  0.00    +0.000 A 
ATOM     18  C   UNL     1       1.320   4.419  20.589  0.00  0.00    +0.000 A 
ATOM     19  C   UNL     1       0.466   3.614  19.868  0.00  0.00    +0.000 A 
ATOM     20  S   UNL     1       1.302   2.375  19.036  0.00  0.00    +0.000 S 
ENDBRANCH  15  16
ENDBRANCH   3  15
TORSDOF 4
ENDMDL
MODEL 8
REMARK VINA RESULT:      -6.6      2.353      5.877
REMARK  Name = 
REMARK  5 active torsions:
REMARK  status: ('A' for Active; 'I' for Inactive)
REMARK    1  A    between atoms: C_1  and  C_2
REMARK    2  A    between atoms: C_2  and  C_3
REMARK    3  A    between atoms: C_3  and  N_4
REMARK    4  A    between atoms: N_6  and  C_7
REMARK    5  A    between atoms: C_7  and  C_8
REMARK                            x       y       z     vdW  Elec       q    Type
REMARK                         _______ _______ _______ _____ _____    ______ ____
ROOT
ATOM      1  N   UNL     1       3.826   5.617  19.394  0.00  0.00    +0.000 N 
ATOM      2  C   UNL     1       5.022   4.963  19.160  0.00  0.00    +0.000 A 
ATOM      3  N   UNL     1       6.114   5.566  18.639  0.00  0.00    +0.000 N 
ATOM      4  N   UNL     1       4.939   3.700  19.513  0.00  0.00    +0.000 NA
ATOM      5  C   UNL     1       3.670   3.519  19.992  0.00  0.00    +0.000 A 
ATOM      6  C   UNL     1       3.078   2.362  20.523  0.00  0.00    +0.000 A 
ATOM      7  C   UNL     1       1.741   2.415  20.932  0.00  0.00    +0.000 A 
ATOM      8  C   UNL     1       1.002   3.591  20.795  0.00  0.00    +0.000 A 
ATOM      9  C   UNL     1       1.578   4.752  20.265  0.00  0.00    +0.000 A 
ATOM     10  C   UNL     1       2.928   4.689  19.892  0.00  0.00    +0.000 A 
ATOM     11  H   UNL     1       6.111   6.534  18.348  0.00  0.00    +0.000 HD
ENDROOT
BRANCH   1  12
ATOM     12  C   UNL     1       3.500   6.997  19.095  0.00  0.00    +0.000 C 
BRANCH  12  14
ATOM     13  C   UNL     1       1.953   8.563  17.800  0.00  0.00    +0.000 C 
ATOM     14  C   UNL     1       2.648   7.212  17.839  0.00  0.00    +0.000 C 
ENDBRANCH  12  14
ENDBRANCH   1  12
BRANCH   3  15
ATOM     15  C   UNL     1       7.033   4.749  17.851  0.00  0.00    +0.000 C 
BRANCH  15  16
ATOM     16  C   UNL     1       6.682   4.663  16.392  0.00  0.00    +0.000 A 
ATOM     17  C   UNL     1       7.465   5.019  15.310  0.00  0.00    +0.000 A 
ATOM     18  C   UNL     1       6.834   4.742  14.065  0.00  0.00    +0.000 A 
ATOM     19  C   UNL     1       5.581   4.196  14.234  0.00  0.00    +0.000 A 
ATOM     20  S   UNL     1       5.171   4.031  15.887  0.00  0.00    +0.000 S 
ENDBRANCH  15  16
ENDBRANCH   3  15
TORSDOF 4
ENDMDL
MODEL 9
REMARK VINA RESULT:      -6.6      1.287      3.709
REMARK  Name = 
REMARK  5 active torsions:
REMARK  status: ('A' for Active; 'I' for Inactive)
REMARK    1  A    between atoms: C_1  and  C_2
REMARK    2  A    between atoms: C_2  and  C_3
REMARK    3  A    between atoms: C_3  and  N_4
REMARK    4  A    between atoms: N_6  and  C_7
REMARK    5  A    between atoms: C_7  and  C_8
REMARK                            x       y       z     vdW  Elec       q    Type
REMARK                         _______ _______ _______ _____ _____    ______ ____
ROOT
ATOM      1  N   UNL     1       6.494   5.151  16.348  0.00  0.00    +0.000 N 
ATOM      2  C   UNL     1       5.385   4.402  16.698  0.00  0.00    +0.000 A 
ATOM      3  N   UNL     1       4.865   4.373  17.945  0.00  0.00    +0.000 N 
ATOM      4  N   UNL     1       4.925   3.739  15.660  0.00  0.00    +0.000 NA
ATOM      5  C   UNL     1       5.740   4.060  14.608  0.00  0.00    +0.000 A 
ATOM      6  C   UNL     1       5.666   3.646  13.269  0.00  0.00    +0.000 A 
ATOM      7  C   UNL     1       6.639   4.096  12.369  0.00  0.00    +0.000 A 
ATOM      8  C   UNL     1       7.676   4.923  12.799  0.00  0.00    +0.000 A 
ATOM      9  C   UNL     1       7.765   5.343  14.132  0.00  0.00    +0.000 A 
ATOM     10  C   UNL     1       6.762   4.910  15.011  0.00  0.00    +0.000 A 
ATOM     11  H   UNL     1       5.284   4.874  18.717  0.00  0.00    +0.000 HD
ENDROOT
BRANCH   1  12
ATOM     12  C   UNL     1       7.313   5.975  17.214  0.00  0.00    +0.000 C 
BRANCH  12  14
ATOM     13  C   UNL     1       8.002   8.369  17.778  0.00  0.00    +0.000 C 
ATOM     14  C   UNL     1       6.887   7.444  17.317  0.00  0.00    +0.000 C 
ENDBRANCH  12  14
ENDBRANCH   1  12
BRANCH   3  15
ATOM     15  C   UNL     1       4.185   3.154  18.372  0.00  0.00    +0.000 C 
BRANCH  15  16
ATOM     16  C   UNL     1       3.027   3.390  19.302  0.00  0.00    +0.000 A 
ATOM     17  C   UNL     1       1.898   4.152  19.070  0.00  0.00    +0.000 A 
ATOM     18  C   UNL     1       0.974   4.101  20.151  0.00  0.00    +0.000 A 
ATOM     19  C   UNL     1       1.434   3.313  21.183  0.00  0.00    +0.000 A 
ATOM     20  S   UNL     1       2.975   2.650  20.847  0.00  0.00    +0.000 S 
ENDBRANCH  15  16
ENDBRANCH   3  15
TORSDOF 4
ENDMDL
