MODEL 1
REMARK VINA RESULT:      -7.9      0.000      0.000
REMARK  Name = 
REMARK  7 active torsions:
REMARK  status: ('A' for Active; 'I' for Inactive)
REMARK    1  A    between atoms: C_1  and  C_2
REMARK    2  A    between atoms: C_2  and  O_3
REMARK    3  A    between atoms: O_3  and  C_4
REMARK    4  A    between atoms: C_8  and  C_9
REMARK    5  A    between atoms: N_11  and  C_12
REMARK    6  A    between atoms: N_11  and  C_20
REMARK    7  A    between atoms: C_12  and  C_13
REMARK                            x       y       z     vdW  Elec       q    Type
REMARK                         _______ _______ _______ _____ _____    ______ ____
ROOT
ATOM      1  C   UNL     1       2.646   6.027  18.002  0.00  0.00    +0.000 C 
ATOM      2  O   UNL     1       1.658   5.390  17.628  0.00  0.00    +0.000 OA
ATOM      3  N   UNL     1       3.929   5.464  18.128  0.00  0.00    +0.000 N 
ENDROOT
BRANCH   3   4
ATOM      4  C   UNL     1       5.207   6.221  17.938  0.00  0.00    +0.000 C 
ATOM      5  C   UNL     1       5.238   7.124  16.678  0.00  0.00    +0.000 C 
ATOM      6  C   UNL     1       5.240   6.174  15.485  0.00  0.00    +0.000 C 
ATOM      7  S   UNL     1       6.420   4.924  15.954  0.00  0.00    +0.000 S 
ATOM      8  O   UNL     1       7.700   5.256  15.383  0.00  0.00    +0.000 OA
ATOM      9  O   UNL     1       5.826   3.606  15.786  0.00  0.00    +0.000 OA
ATOM     10  C   UNL     1       6.454   5.334  17.701  0.00  0.00    +0.000 C 
ENDBRANCH   3   4
BRANCH   1  15
ATOM     11  C   UNL     1       1.458   8.805  20.186  0.00  0.00    +0.000 A 
ATOM     12  C   UNL     1       1.283   9.851  19.286  0.00  0.00    +0.000 A 
ATOM     13  C   UNL     1       1.694   9.689  17.948  0.00  0.00    +0.000 A 
ATOM     14  C   UNL     1       2.189   8.454  17.508  0.00  0.00    +0.000 A 
ATOM     15  C   UNL     1       2.382   7.423  18.434  0.00  0.00    +0.000 A 
ATOM     16  C   UNL     1       2.097   7.638  19.777  0.00  0.00    +0.000 A 
BRANCH  11  17
ATOM     17  O   UNL     1       1.129   8.776  21.503  0.00  0.00    +0.000 OA
BRANCH  17  19
ATOM     18  C   UNL     1      -0.544   9.910  23.052  0.00  0.00    +0.000 C 
ATOM     19  C   UNL     1      -0.215   8.898  21.960  0.00  0.00    +0.000 C 
ENDBRANCH  17  19
ENDBRANCH  11  17
ENDBRANCH   1  15
BRANCH   3  20
ATOM     20  C   UNL     1       3.949   3.992  18.312  0.00  0.00    +0.000 C 
BRANCH  20  21
ATOM     21  C   UNL     1       3.131   3.444  19.479  0.00  0.00    +0.000 A 
ATOM     22  C   UNL     1       3.180   4.028  20.757  0.00  0.00    +0.000 A 
ATOM     23  C   UNL     1       2.353   3.558  21.799  0.00  0.00    +0.000 A 
ATOM     24  C   UNL     1       1.465   2.514  21.554  0.00  0.00    +0.000 A 
ATOM     25  F   UNL     1       0.671   2.078  22.540  0.00  0.00    +0.000 F 
ATOM     26  C   UNL     1       1.375   1.945  20.292  0.00  0.00    +0.000 A 
ATOM     27  C   UNL     1       2.197   2.414  19.258  0.00  0.00    +0.000 A 
ENDBRANCH  20  21
ENDBRANCH   3  20
TORSDOF 6
ENDMDL
MODEL 2
REMARK VINA RESULT:      -7.1      3.364      5.264
REMARK  Name = 
REMARK  7 active torsions:
REMARK  status: ('A' for Active; 'I' for Inactive)
REMARK    1  A    between atoms: C_1  and  C_2
REMARK    2  A    between atoms: C_2  and  O_3
REMARK    3  A    between atoms: O_3  and  C_4
REMARK    4  A    between atoms: C_8  and  C_9
REMARK    5  A    between atoms: N_11  and  C_12
REMARK    6  A    between atoms: N_11  and  C_20
REMARK    7  A    between atoms: C_12  and  C_13
REMARK                            x       y       z     vdW  Elec       q    Type
REMARK                         _______ _______ _______ _____ _____    ______ ____
ROOT
ATOM      1  C   UNL     1       4.031   5.682  18.997  0.00  0.00    +0.000 C 
ATOM      2  O   UNL     1       4.951   5.621  19.818  0.00  0.00    +0.000 OA
ATOM      3  N   UNL     1       3.751   4.662  18.070  0.00  0.00    +0.000 N 
ENDROOT
BRANCH   3   4
ATOM      4  C   UNL     1       2.385   4.356  17.537  0.00  0.00    +0.000 C 
ATOM      5  C   UNL     1       1.222   4.747  18.485  0.00  0.00    +0.000 C 
ATOM      6  C   UNL     1       1.325   3.805  19.679  0.00  0.00    +0.000 C 
ATOM      7  S   UNL     1       1.628   2.218  18.930  0.00  0.00    +0.000 S 
ATOM      8  O   UNL     1       0.375   1.520  18.797  0.00  0.00    +0.000 OA
ATOM      9  O   UNL     1       2.787   1.596  19.555  0.00  0.00    +0.000 OA
ATOM     10  C   UNL     1       2.100   2.850  17.318  0.00  0.00    +0.000 C 
ENDBRANCH   3   4
BRANCH   1  15
ATOM     11  C   UNL     1       1.475   8.230  19.934  0.00  0.00    +0.000 A 
ATOM     12  C   UNL     1       1.393   9.018  18.790  0.00  0.00    +0.000 A 
ATOM     13  C   UNL     1       2.294   8.797  17.731  0.00  0.00    +0.000 A 
ATOM     14  C   UNL     1       3.205   7.733  17.791  0.00  0.00    +0.000 A 
ATOM     15  C   UNL     1       3.290   6.969  18.960  0.00  0.00    +0.000 A 
ATOM     16  C   UNL     1       2.487   7.280  20.050  0.00  0.00    +0.000 A 
BRANCH  11  17
ATOM     17  O   UNL     1       0.701   8.294  21.047  0.00  0.00    +0.000 OA
BRANCH  17  19
ATOM     18  C   UNL     1      -0.029   9.685  23.051  0.00  0.00    +0.000 C 
ATOM     19  C   UNL     1       1.065   9.064  22.189  0.00  0.00    +0.000 C 
ENDBRANCH  17  19
ENDBRANCH  11  17
ENDBRANCH   1  15
BRANCH   3  20
ATOM     20  C   UNL     1       4.896   3.772  17.756  0.00  0.00    +0.000 C 
BRANCH  20  21
ATOM     21  C   UNL     1       5.674   4.095  16.482  0.00  0.00    +0.000 A 
ATOM     22  C   UNL     1       5.153   3.820  15.205  0.00  0.00    +0.000 A 
ATOM     23  C   UNL     1       5.853   4.202  14.042  0.00  0.00    +0.000 A 
ATOM     24  C   UNL     1       7.066   4.875  14.158  0.00  0.00    +0.000 A 
ATOM     25  F   UNL     1       7.722   5.249  13.053  0.00  0.00    +0.000 F 
ATOM     26  C   UNL     1       7.583   5.186  15.407  0.00  0.00    +0.000 A 
ATOM     27  C   UNL     1       6.886   4.807  16.563  0.00  0.00    +0.000 A 
ENDBRANCH  20  21
ENDBRANCH   3  20
TORSDOF 6
ENDMDL
MODEL 3
REMARK VINA RESULT:      -7.0      3.562      5.767
REMARK  Name = 
REMARK  7 active torsions:
REMARK  status: ('A' for Active; 'I' for Inactive)
REMARK    1  A    between atoms: C_1  and  C_2
REMARK    2  A    between atoms: C_2  and  O_3
REMARK    3  A    between atoms: O_3  and  C_4
REMARK    4  A    between atoms: C_8  and  C_9
REMARK    5  A    between atoms: N_11  and  C_12
REMARK    6  A    between atoms: N_11  and  C_20
REMARK    7  A    between atoms: C_12  and  C_13
REMARK                            x       y       z     vdW  Elec       q    Type
REMARK                         _______ _______ _______ _____ _____    ______ ____
ROOT
ATOM      1  C   UNL     1       4.222   6.144  17.010  0.00  0.00    +0.000 C 
ATOM      2  O   UNL     1       4.005   7.312  16.672  0.00  0.00    +0.000 OA
ATOM      3  N   UNL     1       5.389   5.442  16.664  0.00  0.00    +0.000 N 
ENDROOT
BRANCH   3   4
ATOM      4  C   UNL     1       6.006   4.363  17.500  0.00  0.00    +0.000 C 
ATOM      5  C   UNL     1       5.552   4.360  18.983  0.00  0.00    +0.000 C 
ATOM      6  C   UNL     1       6.137   5.626  19.599  0.00  0.00    +0.000 C 
ATOM      7  S   UNL     1       7.805   5.657  18.974  0.00  0.00    +0.000 S 
ATOM      8  O   UNL     1       8.680   5.067  19.955  0.00  0.00    +0.000 OA
ATOM      9  O   UNL     1       8.082   6.961  18.388  0.00  0.00    +0.000 OA
ATOM     10  C   UNL     1       7.542   4.466  17.657  0.00  0.00    +0.000 C 
ENDBRANCH   3   4
BRANCH   1  15
ATOM     11  C   UNL     1       1.834   5.382  19.770  0.00  0.00    +0.000 A 
ATOM     12  C   UNL     1       1.451   4.073  19.492  0.00  0.00    +0.000 A 
ATOM     13  C   UNL     1       1.877   3.467  18.295  0.00  0.00    +0.000 A 
ATOM     14  C   UNL     1       2.755   4.142  17.436  0.00  0.00    +0.000 A 
ATOM     15  C   UNL     1       3.107   5.467  17.719  0.00  0.00    +0.000 A 
ATOM     16  C   UNL     1       2.574   6.100  18.834  0.00  0.00    +0.000 A 
BRANCH  11  17
ATOM     17  O   UNL     1       1.523   6.127  20.861  0.00  0.00    +0.000 OA
BRANCH  17  19
ATOM     18  C   UNL     1       0.428   8.328  21.521  0.00  0.00    +0.000 C 
ATOM     19  C   UNL     1       1.555   7.550  20.852  0.00  0.00    +0.000 C 
ENDBRANCH  17  19
ENDBRANCH  11  17
ENDBRANCH   1  15
BRANCH   3  20
ATOM     20  C   UNL     1       6.091   5.951  15.460  0.00  0.00    +0.000 C 
BRANCH  20  21
ATOM     21  C   UNL     1       6.263   4.964  14.308  0.00  0.00    +0.000 A 
ATOM     22  C   UNL     1       5.262   4.035  13.972  0.00  0.00    +0.000 A 
ATOM     23  C   UNL     1       5.406   3.189  12.853  0.00  0.00    +0.000 A 
ATOM     24  C   UNL     1       6.546   3.286  12.060  0.00  0.00    +0.000 A 
ATOM     25  F   UNL     1       6.676   2.492  10.990  0.00  0.00    +0.000 F 
ATOM     26  C   UNL     1       7.531   4.218  12.352  0.00  0.00    +0.000 A 
ATOM     27  C   UNL     1       7.386   5.059  13.465  0.00  0.00    +0.000 A 
ENDBRANCH  20  21
ENDBRANCH   3  20
TORSDOF 6
ENDMDL
MODEL 4
REMARK VINA RESULT:      -6.9      3.028      6.961
REMARK  Name = 
REMARK  7 active torsions:
REMARK  status: ('A' for Active; 'I' for Inactive)
REMARK    1  A    between atoms: C_1  and  C_2
REMARK    2  A    between atoms: C_2  and  O_3
REMARK    3  A    between atoms: O_3  and  C_4
REMARK    4  A    between atoms: C_8  and  C_9
REMARK    5  A    between atoms: N_11  and  C_12
REMARK    6  A    between atoms: N_11  and  C_20
REMARK    7  A    between atoms: C_12  and  C_13
REMARK                            x       y       z     vdW  Elec       q    Type
REMARK                         _______ _______ _______ _____ _____    ______ ____
ROOT
ATOM      1  C   UNL     1       4.480   6.604  17.626  0.00  0.00    +0.000 C 
ATOM      2  O   UNL     1       4.687   7.810  17.790  0.00  0.00    +0.000 OA
ATOM      3  N   UNL     1       3.413   5.912  18.226  0.00  0.00    +0.000 N 
ENDROOT
BRANCH   3   4
ATOM      4  C   UNL     1       2.732   4.721  17.624  0.00  0.00    +0.000 C 
ATOM      5  C   UNL     1       1.617   4.104  18.506  0.00  0.00    +0.000 C 
ATOM      6  C   UNL     1       2.327   3.499  19.712  0.00  0.00    +0.000 C 
ATOM      7  S   UNL     1       3.728   2.666  18.992  0.00  0.00    +0.000 S 
ATOM      8  O   UNL     1       3.394   1.278  18.799  0.00  0.00    +0.000 OA
ATOM      9  O   UNL     1       4.944   3.072  19.682  0.00  0.00    +0.000 OA
ATOM     10  C   UNL     1       3.652   3.496  17.402  0.00  0.00    +0.000 C 
ENDBRANCH   3   4
BRANCH   1  15
ATOM     11  C   UNL     1       5.914   4.591  14.834  0.00  0.00    +0.000 A 
ATOM     12  C   UNL     1       7.047   4.027  15.412  0.00  0.00    +0.000 A 
ATOM     13  C   UNL     1       7.431   4.421  16.709  0.00  0.00    +0.000 A 
ATOM     14  C   UNL     1       6.629   5.303  17.445  0.00  0.00    +0.000 A 
ATOM     15  C   UNL     1       5.508   5.880  16.836  0.00  0.00    +0.000 A 
ATOM     16  C   UNL     1       5.213   5.586  15.511  0.00  0.00    +0.000 A 
BRANCH  11  17
ATOM     17  O   UNL     1       5.393   4.341  13.606  0.00  0.00    +0.000 OA
BRANCH  17  19
ATOM     18  C   UNL     1       5.392   2.587  11.760  0.00  0.00    +0.000 C 
ATOM     19  C   UNL     1       6.113   3.638  12.597  0.00  0.00    +0.000 C 
ENDBRANCH  17  19
ENDBRANCH  11  17
ENDBRANCH   1  15
BRANCH   3  20
ATOM     20  C   UNL     1       2.875   6.542  19.457  0.00  0.00    +0.000 C 
BRANCH  20  21
ATOM     21  C   UNL     1       2.042   7.807  19.262  0.00  0.00    +0.000 A 
ATOM     22  C   UNL     1       1.748   8.311  17.983  0.00  0.00    +0.000 A 
ATOM     23  C   UNL     1       0.909   9.433  17.823  0.00  0.00    +0.000 A 
ATOM     24  C   UNL     1       0.350  10.039  18.944  0.00  0.00    +0.000 A 
ATOM     25  F   UNL     1      -0.458  11.095  18.791  0.00  0.00    +0.000 F 
ATOM     26  C   UNL     1       0.599   9.539  20.214  0.00  0.00    +0.000 A 
ATOM     27  C   UNL     1       1.433   8.423  20.371  0.00  0.00    +0.000 A 
ENDBRANCH  20  21
ENDBRANCH   3  20
TORSDOF 6
ENDMDL
MODEL 5
REMARK VINA RESULT:      -6.7      2.998      6.923
REMARK  Name = 
REMARK  7 active torsions:
REMARK  status: ('A' for Active; 'I' for Inactive)
REMARK    1  A    between atoms: C_1  and  C_2
REMARK    2  A    between atoms: C_2  and  O_3
REMARK    3  A    between atoms: O_3  and  C_4
REMARK    4  A    between atoms: C_8  and  C_9
REMARK    5  A    between atoms: N_11  and  C_12
REMARK    6  A    between atoms: N_11  and  C_20
REMARK    7  A    between atoms: C_12  and  C_13
REMARK                            x       y       z     vdW  Elec       q    Type
REMARK                         _______ _______ _______ _____ _____    ______ ____
ROOT
ATOM      1  C   UNL     1       4.492   6.596  17.658  0.00  0.00    +0.000 C 
ATOM      2  O   UNL     1       4.716   7.798  17.830  0.00  0.00    +0.000 OA
ATOM      3  N   UNL     1       3.420   5.915  18.262  0.00  0.00    +0.000 N 
ENDROOT
BRANCH   3   4
ATOM      4  C   UNL     1       2.719   4.737  17.656  0.00  0.00    +0.000 C 
ATOM      5  C   UNL     1       1.611   4.120  18.548  0.00  0.00    +0.000 C 
ATOM      6  C   UNL     1       2.334   3.494  19.735  0.00  0.00    +0.000 C 
ATOM      7  S   UNL     1       3.716   2.657  18.984  0.00  0.00    +0.000 S 
ATOM      8  O   UNL     1       3.366   1.274  18.779  0.00  0.00    +0.000 OA
ATOM      9  O   UNL     1       4.947   3.043  19.660  0.00  0.00    +0.000 OA
ATOM     10  C   UNL     1       3.623   3.506  17.405  0.00  0.00    +0.000 C 
ENDBRANCH   3   4
BRANCH   1  15
ATOM     11  C   UNL     1       5.869   4.546  14.865  0.00  0.00    +0.000 A 
ATOM     12  C   UNL     1       7.018   3.996  15.425  0.00  0.00    +0.000 A 
ATOM     13  C   UNL     1       7.431   4.412  16.706  0.00  0.00    +0.000 A 
ATOM     14  C   UNL     1       6.642   5.302  17.447  0.00  0.00    +0.000 A 
ATOM     15  C   UNL     1       5.505   5.865  16.856  0.00  0.00    +0.000 A 
ATOM     16  C   UNL     1       5.179   5.549  15.543  0.00  0.00    +0.000 A 
BRANCH  11  17
ATOM     17  O   UNL     1       5.320   4.274  13.654  0.00  0.00    +0.000 OA
BRANCH  17  19
ATOM     18  C   UNL     1       7.105   4.097  11.847  0.00  0.00    +0.000 C 
ATOM     19  C   UNL     1       5.982   3.481  12.674  0.00  0.00    +0.000 C 
ENDBRANCH  17  19
ENDBRANCH  11  17
ENDBRANCH   1  15
BRANCH   3  20
ATOM     20  C   UNL     1       2.899   6.542  19.501  0.00  0.00    +0.000 C 
BRANCH  20  21
ATOM     21  C   UNL     1       1.968   7.738  19.315  0.00  0.00    +0.000 A 
ATOM     22  C   UNL     1       1.394   8.408  20.410  0.00  0.00    +0.000 A 
ATOM     23  C   UNL     1       0.604   9.561  20.218  0.00  0.00    +0.000 A 
ATOM     24  C   UNL     1       0.404  10.052  18.931  0.00  0.00    +0.000 A 
ATOM     25  F   UNL     1      -0.334  11.154  18.752  0.00  0.00    +0.000 F 
ATOM     26  C   UNL     1       0.988   9.427  17.839  0.00  0.00    +0.000 A 
ATOM     27  C   UNL     1       1.774   8.281  18.031  0.00  0.00    +0.000 A 
ENDBRANCH  20  21
ENDBRANCH   3  20
TORSDOF 6
ENDMDL
MODEL 6
REMARK VINA RESULT:      -6.7      1.227      1.384
REMARK  Name = 
REMARK  7 active torsions:
REMARK  status: ('A' for Active; 'I' for Inactive)
REMARK    1  A    between atoms: C_1  and  C_2
REMARK    2  A    between atoms: C_2  and  O_3
REMARK    3  A    between atoms: O_3  and  C_4
REMARK    4  A    between atoms: C_8  and  C_9
REMARK    5  A    between atoms: N_11  and  C_12
REMARK    6  A    between atoms: N_11  and  C_20
REMARK    7  A    between atoms: C_12  and  C_13
REMARK                            x       y       z     vdW  Elec       q    Type
REMARK                         _______ _______ _______ _____ _____    ______ ____
ROOT
ATOM      1  C   UNL     1       2.365   6.052  17.854  0.00  0.00    +0.000 C 
ATOM      2  O   UNL     1       1.320   5.395  17.870  0.00  0.00    +0.000 OA
ATOM      3  N   UNL     1       3.617   5.506  17.518  0.00  0.00    +0.000 N 
ENDROOT
BRANCH   3   4
ATOM      4  C   UNL     1       4.728   6.274  16.869  0.00  0.00    +0.000 C 
ATOM      5  C   UNL     1       5.728   5.404  16.065  0.00  0.00    +0.000 C 
ATOM      6  C   UNL     1       6.471   4.564  17.097  0.00  0.00    +0.000 C 
ATOM      7  S   UNL     1       6.844   5.731  18.391  0.00  0.00    +0.000 S 
ATOM      8  O   UNL     1       8.180   6.233  18.194  0.00  0.00    +0.000 OA
ATOM      9  O   UNL     1       6.409   5.195  19.673  0.00  0.00    +0.000 OA
ATOM     10  C   UNL     1       5.680   6.990  17.857  0.00  0.00    +0.000 C 
ENDBRANCH   3   4
BRANCH   1  15
ATOM     11  C   UNL     1       1.481   8.865  20.134  0.00  0.00    +0.000 A 
ATOM     12  C   UNL     1       1.411   9.952  19.269  0.00  0.00    +0.000 A 
ATOM     13  C   UNL     1       1.796   9.791  17.924  0.00  0.00    +0.000 A 
ATOM     14  C   UNL     1       2.158   8.527  17.440  0.00  0.00    +0.000 A 
ATOM     15  C   UNL     1       2.249   7.452  18.332  0.00  0.00    +0.000 A 
ATOM     16  C   UNL     1       1.994   7.652  19.683  0.00  0.00    +0.000 A 
BRANCH  11  17
ATOM     17  O   UNL     1       1.157   8.827  21.452  0.00  0.00    +0.000 OA
BRANCH  17  19
ATOM     18  C   UNL     1      -0.469   9.829  23.136  0.00  0.00    +0.000 C 
ATOM     19  C   UNL     1      -0.183   8.960  21.916  0.00  0.00    +0.000 C 
ENDBRANCH  17  19
ENDBRANCH  11  17
ENDBRANCH   1  15
BRANCH   3  20
ATOM     20  C   UNL     1       3.728   4.038  17.703  0.00  0.00    +0.000 C 
BRANCH  20  21
ATOM     21  C   UNL     1       3.071   3.462  18.954  0.00  0.00    +0.000 A 
ATOM     22  C   UNL     1       3.321   3.990  20.233  0.00  0.00    +0.000 A 
ATOM     23  C   UNL     1       2.639   3.497  21.365  0.00  0.00    +0.000 A 
ATOM     24  C   UNL     1       1.694   2.486  21.213  0.00  0.00    +0.000 A 
ATOM     25  F   UNL     1       1.038   2.029  22.286  0.00  0.00    +0.000 F 
ATOM     26  C   UNL     1       1.406   1.973  19.956  0.00  0.00    +0.000 A 
ATOM     27  C   UNL     1       2.084   2.465  18.832  0.00  0.00    +0.000 A 
ENDBRANCH  20  21
ENDBRANCH   3  20
TORSDOF 6
ENDMDL
MODEL 7
REMARK VINA RESULT:      -6.6      4.045      6.350
REMARK  Name = 
REMARK  7 active torsions:
REMARK  status: ('A' for Active; 'I' for Inactive)
REMARK    1  A    between atoms: C_1  and  C_2
REMARK    2  A    between atoms: C_2  and  O_3
REMARK    3  A    between atoms: O_3  and  C_4
REMARK    4  A    between atoms: C_8  and  C_9
REMARK    5  A    between atoms: N_11  and  C_12
REMARK    6  A    between atoms: N_11  and  C_20
REMARK    7  A    between atoms: C_12  and  C_13
REMARK                            x       y       z     vdW  Elec       q    Type
REMARK                         _______ _______ _______ _____ _____    ______ ____
ROOT
ATOM      1  C   UNL     1       4.068   5.626  16.997  0.00  0.00    +0.000 C 
ATOM      2  O   UNL     1       3.667   6.757  16.707  0.00  0.00    +0.000 OA
ATOM      3  N   UNL     1       5.387   5.191  16.777  0.00  0.00    +0.000 N 
ENDROOT
BRANCH   3   4
ATOM      4  C   UNL     1       6.095   4.177  17.622  0.00  0.00    +0.000 C 
ATOM      5  C   UNL     1       5.641   4.145  19.104  0.00  0.00    +0.000 C 
ATOM      6  C   UNL     1       6.113   5.462  19.711  0.00  0.00    +0.000 C 
ATOM      7  S   UNL     1       7.772   5.635  19.086  0.00  0.00    +0.000 S 
ATOM      8  O   UNL     1       8.694   5.131  20.072  0.00  0.00    +0.000 OA
ATOM      9  O   UNL     1       7.934   6.953  18.490  0.00  0.00    +0.000 OA
ATOM     10  C   UNL     1       7.616   4.415  17.778  0.00  0.00    +0.000 C 
ENDBRANCH   3   4
BRANCH   1  15
ATOM     11  C   UNL     1       1.786   3.969  19.436  0.00  0.00    +0.000 A 
ATOM     12  C   UNL     1       1.531   2.742  18.834  0.00  0.00    +0.000 A 
ATOM     13  C   UNL     1       2.006   2.498  17.531  0.00  0.00    +0.000 A 
ATOM     14  C   UNL     1       2.807   3.449  16.883  0.00  0.00    +0.000 A 
ATOM     15  C   UNL     1       3.030   4.688  17.494  0.00  0.00    +0.000 A 
ATOM     16  C   UNL     1       2.446   4.967  18.723  0.00  0.00    +0.000 A 
BRANCH  11  17
ATOM     17  O   UNL     1       1.411   4.384  20.673  0.00  0.00    +0.000 OA
BRANCH  17  19
ATOM     18  C   UNL     1       2.564   2.451  21.865  0.00  0.00    +0.000 C 
ATOM     19  C   UNL     1       1.995   3.866  21.865  0.00  0.00    +0.000 C 
ENDBRANCH  17  19
ENDBRANCH  11  17
ENDBRANCH   1  15
BRANCH   3  20
ATOM     20  C   UNL     1       6.120   5.931  15.720  0.00  0.00    +0.000 C 
BRANCH  20  21
ATOM     21  C   UNL     1       6.481   5.140  14.466  0.00  0.00    +0.000 A 
ATOM     22  C   UNL     1       5.661   4.107  13.979  0.00  0.00    +0.000 A 
ATOM     23  C   UNL     1       5.971   3.445  12.773  0.00  0.00    +0.000 A 
ATOM     24  C   UNL     1       7.093   3.830  12.045  0.00  0.00    +0.000 A 
ATOM     25  F   UNL     1       7.379   3.211  10.894  0.00  0.00    +0.000 F 
ATOM     26  C   UNL     1       7.898   4.869  12.489  0.00  0.00    +0.000 A 
ATOM     27  C   UNL     1       7.589   5.527  13.687  0.00  0.00    +0.000 A 
ENDBRANCH  20  21
ENDBRANCH   3  20
TORSDOF 6
ENDMDL
MODEL 8
REMARK VINA RESULT:      -6.6      7.728      9.626
REMARK  Name = 
REMARK  7 active torsions:
REMARK  status: ('A' for Active; 'I' for Inactive)
REMARK    1  A    between atoms: C_1  and  C_2
REMARK    2  A    between atoms: C_2  and  O_3
REMARK    3  A    between atoms: O_3  and  C_4
REMARK    4  A    between atoms: C_8  and  C_9
REMARK    5  A    between atoms: N_11  and  C_12
REMARK    6  A    between atoms: N_11  and  C_20
REMARK    7  A    between atoms: C_12  and  C_13
REMARK                            x       y       z     vdW  Elec       q    Type
REMARK                         _______ _______ _______ _____ _____    ______ ____
ROOT
ATOM      1  C   UNL     1      -1.427  11.086  19.515  0.00  0.00    +0.000 C 
ATOM      2  O   UNL     1      -1.128  10.013  20.047  0.00  0.00    +0.000 OA
ATOM      3  N   UNL     1      -1.311  12.330  20.160  0.00  0.00    +0.000 N 
ENDROOT
BRANCH   3   4
ATOM      4  C   UNL     1      -1.028  13.623  19.459  0.00  0.00    +0.000 C 
ATOM      5  C   UNL     1      -0.002  13.516  18.302  0.00  0.00    +0.000 C 
ATOM      6  C   UNL     1       1.336  13.201  18.960  0.00  0.00    +0.000 C 
ATOM      7  S   UNL     1       1.383  14.311  20.353  0.00  0.00    +0.000 S 
ATOM      8  O   UNL     1       2.120  15.492  19.981  0.00  0.00    +0.000 OA
ATOM      9  O   UNL     1       1.697  13.563  21.562  0.00  0.00    +0.000 OA
ATOM     10  C   UNL     1      -0.368  14.707  20.345  0.00  0.00    +0.000 C 
ENDBRANCH   3   4
BRANCH   1  15
ATOM     11  C   UNL     1      -4.070  11.286  16.893  0.00  0.00    +0.000 A 
ATOM     12  C   UNL     1      -3.608  10.403  15.922  0.00  0.00    +0.000 A 
ATOM     13  C   UNL     1      -2.330   9.828  16.063  0.00  0.00    +0.000 A 
ATOM     14  C   UNL     1      -1.570  10.070  17.215  0.00  0.00    +0.000 A 
ATOM     15  C   UNL     1      -2.040  10.982  18.167  0.00  0.00    +0.000 A 
ATOM     16  C   UNL     1      -3.242  11.645  17.954  0.00  0.00    +0.000 A 
BRANCH  11  17
ATOM     17  O   UNL     1      -5.262  11.935  16.929  0.00  0.00    +0.000 OA
BRANCH  17  19
ATOM     18  C   UNL     1      -6.782  10.751  18.593  0.00  0.00    +0.000 C 
ATOM     19  C   UNL     1      -6.062  12.003  18.105  0.00  0.00    +0.000 C 
ENDBRANCH  17  19
ENDBRANCH  11  17
ENDBRANCH   1  15
BRANCH   3  20
ATOM     20  C   UNL     1      -1.329  12.268  21.643  0.00  0.00    +0.000 C 
BRANCH  20  21
ATOM     21  C   UNL     1      -2.675  12.532  22.315  0.00  0.00    +0.000 A 
ATOM     22  C   UNL     1      -3.821  12.867  21.572  0.00  0.00    +0.000 A 
ATOM     23  C   UNL     1      -5.072  13.025  22.205  0.00  0.00    +0.000 A 
ATOM     24  C   UNL     1      -5.177  12.830  23.579  0.00  0.00    +0.000 A 
ATOM     25  F   UNL     1      -6.367  12.967  24.177  0.00  0.00    +0.000 F 
ATOM     26  C   UNL     1      -4.066  12.467  24.327  0.00  0.00    +0.000 A 
ATOM     27  C   UNL     1      -2.824  12.310  23.697  0.00  0.00    +0.000 A 
ENDBRANCH  20  21
ENDBRANCH   3  20
TORSDOF 6
ENDMDL
MODEL 9
REMARK VINA RESULT:      -6.4      7.481      9.367
REMARK  Name = 
REMARK  7 active torsions:
REMARK  status: ('A' for Active; 'I' for Inactive)
REMARK    1  A    between atoms: C_1  and  C_2
REMARK    2  A    between atoms: C_2  and  O_3
REMARK    3  A    between atoms: O_3  and  C_4
REMARK    4  A    between atoms: C_8  and  C_9
REMARK    5  A    between atoms: N_11  and  C_12
REMARK    6  A    between atoms: N_11  and  C_20
REMARK    7  A    between atoms: C_12  and  C_13
REMARK                            x       y       z     vdW  Elec       q    Type
REMARK                         _______ _______ _______ _____ _____    ______ ____
ROOT
ATOM      1  C   UNL     1      -0.811  11.242  20.045  0.00  0.00    +0.000 C 
ATOM      2  O   UNL     1      -0.639  10.217  20.710  0.00  0.00    +0.000 OA
ATOM      3  N   UNL     1      -0.454  12.526  20.494  0.00  0.00    +0.000 N 
ENDROOT
BRANCH   3   4
ATOM      4  C   UNL     1      -0.032  13.649  19.597  0.00  0.00    +0.000 C 
ATOM      5  C   UNL     1       0.831  13.213  18.384  0.00  0.00    +0.000 C 
ATOM      6  C   UNL     1       2.159  12.743  18.967  0.00  0.00    +0.000 C 
ATOM      7  S   UNL     1       2.543  13.990  20.181  0.00  0.00    +0.000 S 
ATOM      8  O   UNL     1       3.425  14.961  19.586  0.00  0.00    +0.000 OA
ATOM      9  O   UNL     1       2.852  13.353  21.453  0.00  0.00    +0.000 OA
ATOM     10  C   UNL     1       0.894  14.695  20.263  0.00  0.00    +0.000 C 
ENDBRANCH   3   4
BRANCH   1  15
ATOM     11  C   UNL     1      -3.684  11.236  17.669  0.00  0.00    +0.000 A 
ATOM     12  C   UNL     1      -3.277  10.329  16.696  0.00  0.00    +0.000 A 
ATOM     13  C   UNL     1      -1.970   9.806  16.742  0.00  0.00    +0.000 A 
ATOM     14  C   UNL     1      -1.120  10.124  17.809  0.00  0.00    +0.000 A 
ATOM     15  C   UNL     1      -1.538  11.059  18.763  0.00  0.00    +0.000 A 
ATOM     16  C   UNL     1      -2.779  11.670  18.635  0.00  0.00    +0.000 A 
BRANCH  11  17
ATOM     17  O   UNL     1      -4.892  11.844  17.787  0.00  0.00    +0.000 OA
BRANCH  17  19
ATOM     18  C   UNL     1      -6.950  10.777  18.840  0.00  0.00    +0.000 C 
ATOM     19  C   UNL     1      -5.724  11.679  18.931  0.00  0.00    +0.000 C 
ENDBRANCH  17  19
ENDBRANCH  11  17
ENDBRANCH   1  15
BRANCH   3  20
ATOM     20  C   UNL     1      -0.364  12.669  21.968  0.00  0.00    +0.000 C 
BRANCH  20  21
ATOM     21  C   UNL     1      -1.640  13.103  22.686  0.00  0.00    +0.000 A 
ATOM     22  C   UNL     1      -2.054  14.446  22.715  0.00  0.00    +0.000 A 
ATOM     23  C   UNL     1      -3.279  14.813  23.312  0.00  0.00    +0.000 A 
ATOM     24  C   UNL     1      -4.096  13.830  23.863  0.00  0.00    +0.000 A 
ATOM     25  F   UNL     1      -5.264  14.177  24.417  0.00  0.00    +0.000 F 
ATOM     26  C   UNL     1      -3.724  12.494  23.816  0.00  0.00    +0.000 A 
ATOM     27  C   UNL     1      -2.507  12.132  23.222  0.00  0.00    +0.000 A 
ENDBRANCH  20  21
ENDBRANCH   3  20
TORSDOF 6
ENDMDL
