MODEL 1
REMARK VINA RESULT:      -7.7      0.000      0.000
REMARK  Name = 
REMARK  17 active torsions:
REMARK  status: ('A' for Active; 'I' for Inactive)
REMARK    1  A    between atoms: C_1  and  C_2
REMARK    2  A    between atoms: C_2  and  O_3
REMARK    3  A    between atoms: O_3  and  C_4
REMARK    4  A    between atoms: C_4  and  C_6
REMARK    5  A    between atoms: C_6  and  C_7
REMARK    6  A    between atoms: C_7  and  C_8
REMARK    7  A    between atoms: C_8  and  C_9
REMARK    8  A    between atoms: C_9  and  C_11
REMARK    9  A    between atoms: C_12  and  C_13
REMARK   10  A    between atoms: C_16  and  O_17
REMARK   11  A    between atoms: C_18  and  O_19
REMARK   12  A    between atoms: O_19  and  C_20
REMARK   13  A    between atoms: C_22  and  O_23
REMARK   14  A    between atoms: C_22  and  C_24
REMARK   15  A    between atoms: C_25  and  C_26
REMARK   16  A    between atoms: C_29  and  O_30
REMARK   17  A    between atoms: C_31  and  O_32
REMARK                            x       y       z     vdW  Elec       q    Type
REMARK                         _______ _______ _______ _____ _____    ______ ____
ROOT
ATOM      1  C   UNL     1       1.371   9.489  19.652  0.00  0.00    +0.000 C 
ATOM      2  C   UNL     1       1.936   8.796  18.622  0.00  0.00    +0.000 C 
ENDROOT
BRANCH   1   3
ATOM      3  C   UNL     1       1.009  10.936  19.371  0.00  0.00    +0.000 C 
ATOM      4  O   UNL     1       1.831  11.833  19.560  0.00  0.00    +0.000 OA
BRANCH   3   5
ATOM      5  C   UNL     1      -0.365  11.281  18.918  0.00  0.00    +0.000 C 
ATOM      6  C   UNL     1      -1.123  10.441  18.192  0.00  0.00    +0.000 C 
BRANCH   6   7
ATOM      7  C   UNL     1      -2.516  10.795  17.878  0.00  0.00    +0.000 A 
ATOM      8  C   UNL     1      -3.068  10.489  16.634  0.00  0.00    +0.000 A 
ATOM      9  C   UNL     1      -4.362  10.907  16.312  0.00  0.00    +0.000 A 
ATOM     10  C   UNL     1      -5.121  11.637  17.236  0.00  0.00    +0.000 A 
ATOM     11  C   UNL     1      -4.595  11.941  18.496  0.00  0.00    +0.000 A 
ATOM     12  C   UNL     1      -3.291  11.511  18.804  0.00  0.00    +0.000 A 
BRANCH  10  13
ATOM     13  O   UNL     1      -6.373  12.045  16.865  0.00  0.00    +0.000 OA
ATOM     14  H   UNL     1      -6.490  11.903  15.912  0.00  0.00    +0.000 HD
ENDBRANCH  10  13
BRANCH  11  15
ATOM     15  O   UNL     1      -5.187  12.636  19.517  0.00  0.00    +0.000 OA
ATOM     16  C   UNL     1      -6.042  11.935  20.411  0.00  0.00    +0.000 C 
ENDBRANCH  11  15
ENDBRANCH   6   7
ENDBRANCH   3   5
ENDBRANCH   1   3
BRANCH   2  17
ATOM     17  O   UNL     1       2.222   9.350  17.387  0.00  0.00    +0.000 OA
ATOM     18  H   UNL     1       1.493   9.127  16.768  0.00  0.00    +0.000 HD
ENDBRANCH   2  17
BRANCH   2  19
ATOM     19  C   UNL     1       2.292   7.376  18.694  0.00  0.00    +0.000 C 
ATOM     20  C   UNL     1       2.209   6.471  17.700  0.00  0.00    +0.000 C 
BRANCH  20  21
ATOM     21  C   UNL     1       2.571   5.047  17.857  0.00  0.00    +0.000 A 
ATOM     22  C   UNL     1       3.903   4.599  17.765  0.00  0.00    +0.000 A 
ATOM     23  C   UNL     1       4.230   3.245  17.917  0.00  0.00    +0.000 A 
ATOM     24  C   UNL     1       3.221   2.337  18.184  0.00  0.00    +0.000 A 
ATOM     25  C   UNL     1       1.903   2.765  18.312  0.00  0.00    +0.000 A 
ATOM     26  C   UNL     1       1.570   4.110  18.156  0.00  0.00    +0.000 A 
BRANCH  24  27
ATOM     27  O   UNL     1       3.470   0.996  18.339  0.00  0.00    +0.000 OA
ATOM     28  H   UNL     1       3.229   0.751  19.250  0.00  0.00    +0.000 HD
ENDBRANCH  24  27
BRANCH  25  29
ATOM     29  O   UNL     1       0.917   1.859  18.588  0.00  0.00    +0.000 OA
ATOM     30  H   UNL     1       0.116   2.234  18.170  0.00  0.00    +0.000 HD
ENDBRANCH  25  29
ENDBRANCH  20  21
ENDBRANCH   2  19
BRANCH   1  31
ATOM     31  C   UNL     1       1.035   8.770  20.960  0.00  0.00    +0.000 C 
BRANCH  31  32
ATOM     32  C   UNL     1      -0.341   8.900  21.594  0.00  0.00    +0.000 C 
BRANCH  32  33
ATOM     33  C   UNL     1      -0.403   9.908  22.708  0.00  0.00    +0.000 C 
ATOM     34  O   UNL     1       0.198   9.854  23.769  0.00  0.00    +0.000 OA
BRANCH  33  35
ATOM     35  O   UNL     1      -1.312  10.855  22.339  0.00  0.00    +0.000 OA
BRANCH  35  37
ATOM     36  C   UNL     1      -1.976  13.111  21.971  0.00  0.00    +0.000 C 
ATOM     37  C   UNL     1      -0.978  12.206  22.668  0.00  0.00    +0.000 C 
ENDBRANCH  35  37
ENDBRANCH  33  35
ENDBRANCH  32  33
ENDBRANCH  31  32
ENDBRANCH   1  31
TORSDOF 15
ENDMDL
MODEL 2
REMARK VINA RESULT:      -7.5      1.051      1.153
REMARK  Name = 
REMARK  17 active torsions:
REMARK  status: ('A' for Active; 'I' for Inactive)
REMARK    1  A    between atoms: C_1  and  C_2
REMARK    2  A    between atoms: C_2  and  O_3
REMARK    3  A    between atoms: O_3  and  C_4
REMARK    4  A    between atoms: C_4  and  C_6
REMARK    5  A    between atoms: C_6  and  C_7
REMARK    6  A    between atoms: C_7  and  C_8
REMARK    7  A    between atoms: C_8  and  C_9
REMARK    8  A    between atoms: C_9  and  C_11
REMARK    9  A    between atoms: C_12  and  C_13
REMARK   10  A    between atoms: C_16  and  O_17
REMARK   11  A    between atoms: C_18  and  O_19
REMARK   12  A    between atoms: O_19  and  C_20
REMARK   13  A    between atoms: C_22  and  O_23
REMARK   14  A    between atoms: C_22  and  C_24
REMARK   15  A    between atoms: C_25  and  C_26
REMARK   16  A    between atoms: C_29  and  O_30
REMARK   17  A    between atoms: C_31  and  O_32
REMARK                            x       y       z     vdW  Elec       q    Type
REMARK                         _______ _______ _______ _____ _____    ______ ____
ROOT
ATOM      1  C   UNL     1       1.002  10.003  19.435  0.00  0.00    +0.000 C 
ATOM      2  C   UNL     1       1.635   9.445  18.365  0.00  0.00    +0.000 C 
ENDROOT
BRANCH   1   3
ATOM      3  C   UNL     1       0.611  11.464  19.300  0.00  0.00    +0.000 C 
ATOM      4  O   UNL     1       1.462  12.349  19.397  0.00  0.00    +0.000 OA
BRANCH   3   5
ATOM      5  C   UNL     1      -0.816  11.833  19.103  0.00  0.00    +0.000 C 
ATOM      6  C   UNL     1      -1.640  11.145  18.293  0.00  0.00    +0.000 C 
BRANCH   6   7
ATOM      7  C   UNL     1      -3.069  11.490  18.235  0.00  0.00    +0.000 A 
ATOM      8  C   UNL     1      -3.817  11.240  17.085  0.00  0.00    +0.000 A 
ATOM      9  C   UNL     1      -5.151  11.651  17.007  0.00  0.00    +0.000 A 
ATOM     10  C   UNL     1      -5.752  12.318  18.082  0.00  0.00    +0.000 A 
ATOM     11  C   UNL     1      -5.025  12.564  19.253  0.00  0.00    +0.000 A 
ATOM     12  C   UNL     1      -3.685  12.142  19.315  0.00  0.00    +0.000 A 
BRANCH  10  13
ATOM     13  O   UNL     1      -7.051  12.722  17.948  0.00  0.00    +0.000 OA
ATOM     14  H   UNL     1      -7.565  12.022  17.515  0.00  0.00    +0.000 HD
ENDBRANCH  10  13
BRANCH  11  15
ATOM     15  O   UNL     1      -5.445  13.194  20.395  0.00  0.00    +0.000 OA
ATOM     16  C   UNL     1      -6.246  12.466  21.317  0.00  0.00    +0.000 C 
ENDBRANCH  11  15
ENDBRANCH   6   7
ENDBRANCH   3   5
ENDBRANCH   1   3
BRANCH   2  17
ATOM     17  O   UNL     1       1.962  10.140  17.215  0.00  0.00    +0.000 OA
ATOM     18  H   UNL     1       2.880   9.905  16.958  0.00  0.00    +0.000 HD
ENDBRANCH   2  17
BRANCH   2  19
ATOM     19  C   UNL     1       2.029   8.034  18.297  0.00  0.00    +0.000 C 
ATOM     20  C   UNL     1       3.170   7.539  17.778  0.00  0.00    +0.000 C 
BRANCH  20  21
ATOM     21  C   UNL     1       3.487   6.096  17.730  0.00  0.00    +0.000 A 
ATOM     22  C   UNL     1       4.532   5.586  16.936  0.00  0.00    +0.000 A 
ATOM     23  C   UNL     1       4.821   4.215  16.901  0.00  0.00    +0.000 A 
ATOM     24  C   UNL     1       4.074   3.352  17.682  0.00  0.00    +0.000 A 
ATOM     25  C   UNL     1       3.059   3.841  18.500  0.00  0.00    +0.000 A 
ATOM     26  C   UNL     1       2.763   5.203  18.534  0.00  0.00    +0.000 A 
BRANCH  24  27
ATOM     27  O   UNL     1       4.299   1.999  17.693  0.00  0.00    +0.000 OA
ATOM     28  H   UNL     1       4.796   1.772  16.887  0.00  0.00    +0.000 HD
ENDBRANCH  24  27
BRANCH  25  29
ATOM     29  O   UNL     1       2.335   2.979  19.276  0.00  0.00    +0.000 OA
ATOM     30  H   UNL     1       2.728   2.101  19.098  0.00  0.00    +0.000 HD
ENDBRANCH  25  29
ENDBRANCH  20  21
ENDBRANCH   2  19
BRANCH   1  31
ATOM     31  C   UNL     1       0.626   9.134  20.637  0.00  0.00    +0.000 C 
BRANCH  31  32
ATOM     32  C   UNL     1      -0.505   9.536  21.571  0.00  0.00    +0.000 C 
BRANCH  32  33
ATOM     33  C   UNL     1      -0.044   9.912  22.953  0.00  0.00    +0.000 C 
ATOM     34  O   UNL     1       0.955   9.502  23.522  0.00  0.00    +0.000 OA
BRANCH  33  35
ATOM     35  O   UNL     1      -0.992  10.740  23.478  0.00  0.00    +0.000 OA
BRANCH  35  37
ATOM     36  C   UNL     1      -2.790  12.218  22.978  0.00  0.00    +0.000 C 
ATOM     37  C   UNL     1      -1.341  11.877  22.684  0.00  0.00    +0.000 C 
ENDBRANCH  35  37
ENDBRANCH  33  35
ENDBRANCH  32  33
ENDBRANCH  31  32
ENDBRANCH   1  31
TORSDOF 15
ENDMDL
MODEL 3
REMARK VINA RESULT:      -7.4      1.077      1.508
REMARK  Name = 
REMARK  17 active torsions:
REMARK  status: ('A' for Active; 'I' for Inactive)
REMARK    1  A    between atoms: C_1  and  C_2
REMARK    2  A    between atoms: C_2  and  O_3
REMARK    3  A    between atoms: O_3  and  C_4
REMARK    4  A    between atoms: C_4  and  C_6
REMARK    5  A    between atoms: C_6  and  C_7
REMARK    6  A    between atoms: C_7  and  C_8
REMARK    7  A    between atoms: C_8  and  C_9
REMARK    8  A    between atoms: C_9  and  C_11
REMARK    9  A    between atoms: C_12  and  C_13
REMARK   10  A    between atoms: C_16  and  O_17
REMARK   11  A    between atoms: C_18  and  O_19
REMARK   12  A    between atoms: O_19  and  C_20
REMARK   13  A    between atoms: C_22  and  O_23
REMARK   14  A    between atoms: C_22  and  C_24
REMARK   15  A    between atoms: C_25  and  C_26
REMARK   16  A    between atoms: C_29  and  O_30
REMARK   17  A    between atoms: C_31  and  O_32
REMARK                            x       y       z     vdW  Elec       q    Type
REMARK                         _______ _______ _______ _____ _____    ______ ____
ROOT
ATOM      1  C   UNL     1       1.412   9.037  19.326  0.00  0.00    +0.000 C 
ATOM      2  C   UNL     1       2.066   8.420  18.301  0.00  0.00    +0.000 C 
ENDROOT
BRANCH   1   3
ATOM      3  C   UNL     1       0.892  10.435  19.047  0.00  0.00    +0.000 C 
ATOM      4  O   UNL     1       1.582  11.422  19.308  0.00  0.00    +0.000 OA
BRANCH   3   5
ATOM      5  C   UNL     1      -0.482  10.620  18.508  0.00  0.00    +0.000 C 
ATOM      6  C   UNL     1      -1.512  11.030  19.268  0.00  0.00    +0.000 C 
BRANCH   6   7
ATOM      7  C   UNL     1      -2.817  11.308  18.648  0.00  0.00    +0.000 A 
ATOM      8  C   UNL     1      -3.062  10.967  17.318  0.00  0.00    +0.000 A 
ATOM      9  C   UNL     1      -4.272  11.314  16.710  0.00  0.00    +0.000 A 
ATOM     10  C   UNL     1      -5.253  12.007  17.431  0.00  0.00    +0.000 A 
ATOM     11  C   UNL     1      -5.036  12.345  18.771  0.00  0.00    +0.000 A 
ATOM     12  C   UNL     1      -3.813  11.986  19.367  0.00  0.00    +0.000 A 
BRANCH  10  13
ATOM     13  O   UNL     1      -6.410  12.347  16.785  0.00  0.00    +0.000 OA
ATOM     14  H   UNL     1      -6.341  12.102  15.849  0.00  0.00    +0.000 HD
ENDBRANCH  10  13
BRANCH  11  15
ATOM     15  O   UNL     1      -5.875  13.013  19.624  0.00  0.00    +0.000 OA
ATOM     16  C   UNL     1      -5.364  14.124  20.349  0.00  0.00    +0.000 C 
ENDBRANCH  11  15
ENDBRANCH   6   7
ENDBRANCH   3   5
ENDBRANCH   1   3
BRANCH   2  17
ATOM     17  O   UNL     1       2.302   9.009  17.073  0.00  0.00    +0.000 OA
ATOM     18  H   UNL     1       2.601   8.316  16.445  0.00  0.00    +0.000 HD
ENDBRANCH   2  17
BRANCH   2  19
ATOM     19  C   UNL     1       2.580   7.048  18.371  0.00  0.00    +0.000 C 
ATOM     20  C   UNL     1       1.923   5.922  18.034  0.00  0.00    +0.000 C 
BRANCH  20  21
ATOM     21  C   UNL     1       2.507   4.569  18.151  0.00  0.00    +0.000 A 
ATOM     22  C   UNL     1       1.878   3.433  17.606  0.00  0.00    +0.000 A 
ATOM     23  C   UNL     1       2.445   2.157  17.725  0.00  0.00    +0.000 A 
ATOM     24  C   UNL     1       3.658   2.019  18.374  0.00  0.00    +0.000 A 
ATOM     25  C   UNL     1       4.312   3.135  18.889  0.00  0.00    +0.000 A 
ATOM     26  C   UNL     1       3.751   4.406  18.780  0.00  0.00    +0.000 A 
BRANCH  24  27
ATOM     27  O   UNL     1       4.267   0.800  18.531  0.00  0.00    +0.000 OA
ATOM     28  H   UNL     1       4.197   0.320  17.687  0.00  0.00    +0.000 HD
ENDBRANCH  24  27
BRANCH  25  29
ATOM     29  O   UNL     1       5.517   2.987  19.519  0.00  0.00    +0.000 OA
ATOM     30  H   UNL     1       5.919   2.201  19.097  0.00  0.00    +0.000 HD
ENDBRANCH  25  29
ENDBRANCH  20  21
ENDBRANCH   2  19
BRANCH   1  31
ATOM     31  C   UNL     1       1.144   8.277  20.626  0.00  0.00    +0.000 C 
BRANCH  31  32
ATOM     32  C   UNL     1       1.282   8.962  21.977  0.00  0.00    +0.000 C 
BRANCH  32  33
ATOM     33  C   UNL     1      -0.034   9.320  22.612  0.00  0.00    +0.000 C 
ATOM     34  O   UNL     1      -1.048   8.639  22.613  0.00  0.00    +0.000 OA
BRANCH  33  35
ATOM     35  O   UNL     1       0.097  10.577  23.123  0.00  0.00    +0.000 OA
BRANCH  35  37
ATOM     36  C   UNL     1      -2.016  11.660  23.291  0.00  0.00    +0.000 C 
ATOM     37  C   UNL     1      -0.713  11.588  22.517  0.00  0.00    +0.000 C 
ENDBRANCH  35  37
ENDBRANCH  33  35
ENDBRANCH  32  33
ENDBRANCH  31  32
ENDBRANCH   1  31
TORSDOF 15
ENDMDL
MODEL 4
REMARK VINA RESULT:      -7.4      1.479      9.094
REMARK  Name = 
REMARK  17 active torsions:
REMARK  status: ('A' for Active; 'I' for Inactive)
REMARK    1  A    between atoms: C_1  and  C_2
REMARK    2  A    between atoms: C_2  and  O_3
REMARK    3  A    between atoms: O_3  and  C_4
REMARK    4  A    between atoms: C_4  and  C_6
REMARK    5  A    between atoms: C_6  and  C_7
REMARK    6  A    between atoms: C_7  and  C_8
REMARK    7  A    between atoms: C_8  and  C_9
REMARK    8  A    between atoms: C_9  and  C_11
REMARK    9  A    between atoms: C_12  and  C_13
REMARK   10  A    between atoms: C_16  and  O_17
REMARK   11  A    between atoms: C_18  and  O_19
REMARK   12  A    between atoms: O_19  and  C_20
REMARK   13  A    between atoms: C_22  and  O_23
REMARK   14  A    between atoms: C_22  and  C_24
REMARK   15  A    between atoms: C_25  and  C_26
REMARK   16  A    between atoms: C_29  and  O_30
REMARK   17  A    between atoms: C_31  and  O_32
REMARK                            x       y       z     vdW  Elec       q    Type
REMARK                         _______ _______ _______ _____ _____    ______ ____
ROOT
ATOM      1  C   UNL     1       0.632   9.750  19.132  0.00  0.00    +0.000 C 
ATOM      2  C   UNL     1      -0.483  10.081  18.420  0.00  0.00    +0.000 C 
ENDROOT
BRANCH   1   3
ATOM      3  C   UNL     1       1.754   9.085  18.355  0.00  0.00    +0.000 C 
ATOM      4  O   UNL     1       2.140   9.562  17.287  0.00  0.00    +0.000 OA
BRANCH   3   5
ATOM      5  C   UNL     1       2.354   7.821  18.858  0.00  0.00    +0.000 C 
ATOM      6  C   UNL     1       2.334   6.676  18.153  0.00  0.00    +0.000 C 
BRANCH   6   7
ATOM      7  C   UNL     1       3.050   5.493  18.654  0.00  0.00    +0.000 A 
ATOM      8  C   UNL     1       4.425   5.356  18.460  0.00  0.00    +0.000 A 
ATOM      9  C   UNL     1       5.082   4.189  18.860  0.00  0.00    +0.000 A 
ATOM     10  C   UNL     1       4.368   3.144  19.462  0.00  0.00    +0.000 A 
ATOM     11  C   UNL     1       2.991   3.267  19.682  0.00  0.00    +0.000 A 
ATOM     12  C   UNL     1       2.346   4.449  19.274  0.00  0.00    +0.000 A 
BRANCH  10  13
ATOM     13  O   UNL     1       5.051   2.013  19.813  0.00  0.00    +0.000 OA
ATOM     14  H   UNL     1       5.333   1.544  19.012  0.00  0.00    +0.000 HD
ENDBRANCH  10  13
BRANCH  11  15
ATOM     15  O   UNL     1       2.140   2.359  20.254  0.00  0.00    +0.000 OA
ATOM     16  C   UNL     1       1.596   2.649  21.535  0.00  0.00    +0.000 C 
ENDBRANCH  11  15
ENDBRANCH   6   7
ENDBRANCH   3   5
ENDBRANCH   1   3
BRANCH   2  17
ATOM     17  O   UNL     1      -0.646   9.808  17.074  0.00  0.00    +0.000 OA
ATOM     18  H   UNL     1      -1.601   9.666  16.897  0.00  0.00    +0.000 HD
ENDBRANCH   2  17
BRANCH   2  19
ATOM     19  C   UNL     1      -1.637  10.782  18.992  0.00  0.00    +0.000 C 
ATOM     20  C   UNL     1      -2.715  11.239  18.326  0.00  0.00    +0.000 C 
BRANCH  20  21
ATOM     21  C   UNL     1      -3.833  11.956  18.974  0.00  0.00    +0.000 A 
ATOM     22  C   UNL     1      -3.660  12.700  20.157  0.00  0.00    +0.000 A 
ATOM     23  C   UNL     1      -4.731  13.375  20.758  0.00  0.00    +0.000 A 
ATOM     24  C   UNL     1      -5.978  13.323  20.161  0.00  0.00    +0.000 A 
ATOM     25  C   UNL     1      -6.161  12.621  18.973  0.00  0.00    +0.000 A 
ATOM     26  C   UNL     1      -5.101  11.942  18.373  0.00  0.00    +0.000 A 
BRANCH  24  27
ATOM     27  O   UNL     1      -7.070  13.955  20.698  0.00  0.00    +0.000 OA
ATOM     28  H   UNL     1      -7.214  14.779  20.200  0.00  0.00    +0.000 HD
ENDBRANCH  24  27
BRANCH  25  29
ATOM     29  O   UNL     1      -7.396  12.587  18.386  0.00  0.00    +0.000 OA
ATOM     30  H   UNL     1      -7.994  12.271  19.093  0.00  0.00    +0.000 HD
ENDBRANCH  25  29
ENDBRANCH  20  21
ENDBRANCH   2  19
BRANCH   1  31
ATOM     31  C   UNL     1       0.743  10.152  20.604  0.00  0.00    +0.000 C 
BRANCH  31  32
ATOM     32  C   UNL     1       0.328   9.195  21.711  0.00  0.00    +0.000 C 
BRANCH  32  33
ATOM     33  C   UNL     1      -0.221   9.881  22.931  0.00  0.00    +0.000 C 
ATOM     34  O   UNL     1       0.198   9.775  24.073  0.00  0.00    +0.000 OA
BRANCH  33  35
ATOM     35  O   UNL     1      -1.318  10.586  22.534  0.00  0.00    +0.000 OA
BRANCH  35  37
ATOM     36  C   UNL     1      -0.700  12.882  22.435  0.00  0.00    +0.000 C 
ATOM     37  C   UNL     1      -1.521  11.846  23.179  0.00  0.00    +0.000 C 
ENDBRANCH  35  37
ENDBRANCH  33  35
ENDBRANCH  32  33
ENDBRANCH  31  32
ENDBRANCH   1  31
TORSDOF 15
ENDMDL
MODEL 5
REMARK VINA RESULT:      -7.2      1.050      1.480
REMARK  Name = 
REMARK  17 active torsions:
REMARK  status: ('A' for Active; 'I' for Inactive)
REMARK    1  A    between atoms: C_1  and  C_2
REMARK    2  A    between atoms: C_2  and  O_3
REMARK    3  A    between atoms: O_3  and  C_4
REMARK    4  A    between atoms: C_4  and  C_6
REMARK    5  A    between atoms: C_6  and  C_7
REMARK    6  A    between atoms: C_7  and  C_8
REMARK    7  A    between atoms: C_8  and  C_9
REMARK    8  A    between atoms: C_9  and  C_11
REMARK    9  A    between atoms: C_12  and  C_13
REMARK   10  A    between atoms: C_16  and  O_17
REMARK   11  A    between atoms: C_18  and  O_19
REMARK   12  A    between atoms: O_19  and  C_20
REMARK   13  A    between atoms: C_22  and  O_23
REMARK   14  A    between atoms: C_22  and  C_24
REMARK   15  A    between atoms: C_25  and  C_26
REMARK   16  A    between atoms: C_29  and  O_30
REMARK   17  A    between atoms: C_31  and  O_32
REMARK                            x       y       z     vdW  Elec       q    Type
REMARK                         _______ _______ _______ _____ _____    ______ ____
ROOT
ATOM      1  C   UNL     1       1.197   9.621  19.483  0.00  0.00    +0.000 C 
ATOM      2  C   UNL     1       1.790   8.956  18.452  0.00  0.00    +0.000 C 
ENDROOT
BRANCH   1   3
ATOM      3  C   UNL     1       0.583  10.969  19.151  0.00  0.00    +0.000 C 
ATOM      4  O   UNL     1       1.201  12.010  19.381  0.00  0.00    +0.000 OA
BRANCH   3   5
ATOM      5  C   UNL     1      -0.795  11.039  18.597  0.00  0.00    +0.000 C 
ATOM      6  C   UNL     1      -1.841  11.500  19.304  0.00  0.00    +0.000 C 
BRANCH   6   7
ATOM      7  C   UNL     1      -3.153  11.655  18.658  0.00  0.00    +0.000 A 
ATOM      8  C   UNL     1      -3.344  11.275  17.330  0.00  0.00    +0.000 A 
ATOM      9  C   UNL     1      -4.568  11.507  16.697  0.00  0.00    +0.000 A 
ATOM     10  C   UNL     1      -5.619  12.123  17.389  0.00  0.00    +0.000 A 
ATOM     11  C   UNL     1      -5.456  12.497  18.728  0.00  0.00    +0.000 A 
ATOM     12  C   UNL     1      -4.217  12.255  19.350  0.00  0.00    +0.000 A 
BRANCH  10  13
ATOM     13  O   UNL     1      -6.789  12.351  16.719  0.00  0.00    +0.000 OA
ATOM     14  H   UNL     1      -6.717  12.003  15.816  0.00  0.00    +0.000 HD
ENDBRANCH  10  13
BRANCH  11  15
ATOM     15  O   UNL     1      -6.365  13.102  19.556  0.00  0.00    +0.000 OA
ATOM     16  C   UNL     1      -6.488  14.518  19.511  0.00  0.00    +0.000 C 
ENDBRANCH  11  15
ENDBRANCH   6   7
ENDBRANCH   3   5
ENDBRANCH   1   3
BRANCH   2  17
ATOM     17  O   UNL     1       1.889   9.459  17.167  0.00  0.00    +0.000 OA
ATOM     18  H   UNL     1       1.314   8.926  16.577  0.00  0.00    +0.000 HD
ENDBRANCH   2  17
BRANCH   2  19
ATOM     19  C   UNL     1       2.379   7.619  18.575  0.00  0.00    +0.000 C 
ATOM     20  C   UNL     1       1.833   6.457  18.168  0.00  0.00    +0.000 C 
BRANCH  20  21
ATOM     21  C   UNL     1       2.484   5.142  18.345  0.00  0.00    +0.000 A 
ATOM     22  C   UNL     1       2.003   4.186  19.261  0.00  0.00    +0.000 A 
ATOM     23  C   UNL     1       2.632   2.943  19.417  0.00  0.00    +0.000 A 
ATOM     24  C   UNL     1       3.734   2.646  18.637  0.00  0.00    +0.000 A 
ATOM     25  C   UNL     1       4.203   3.564  17.701  0.00  0.00    +0.000 A 
ATOM     26  C   UNL     1       3.587   4.804  17.545  0.00  0.00    +0.000 A 
BRANCH  24  27
ATOM     27  O   UNL     1       4.400   1.451  18.741  0.00  0.00    +0.000 OA
ATOM     28  H   UNL     1       3.964   0.813  18.149  0.00  0.00    +0.000 HD
ENDBRANCH  24  27
BRANCH  25  29
ATOM     29  O   UNL     1       5.287   3.252  16.927  0.00  0.00    +0.000 OA
ATOM     30  H   UNL     1       6.056   3.558  17.448  0.00  0.00    +0.000 HD
ENDBRANCH  25  29
ENDBRANCH  20  21
ENDBRANCH   2  19
BRANCH   1  31
ATOM     31  C   UNL     1       1.081   8.953  20.854  0.00  0.00    +0.000 C 
BRANCH  31  32
ATOM     32  C   UNL     1      -0.253   8.882  21.581  0.00  0.00    +0.000 C 
BRANCH  32  33
ATOM     33  C   UNL     1      -0.386   9.877  22.702  0.00  0.00    +0.000 C 
ATOM     34  O   UNL     1       0.150   9.813  23.796  0.00  0.00    +0.000 OA
BRANCH  33  35
ATOM     35  O   UNL     1      -1.276  10.825  22.290  0.00  0.00    +0.000 OA
BRANCH  35  37
ATOM     36  C   UNL     1      -1.170  13.070  23.074  0.00  0.00    +0.000 C 
ATOM     37  C   UNL     1      -1.776  11.698  23.305  0.00  0.00    +0.000 C 
ENDBRANCH  35  37
ENDBRANCH  33  35
ENDBRANCH  32  33
ENDBRANCH  31  32
ENDBRANCH   1  31
TORSDOF 15
ENDMDL
MODEL 6
REMARK VINA RESULT:      -7.2      2.334      9.676
REMARK  Name = 
REMARK  17 active torsions:
REMARK  status: ('A' for Active; 'I' for Inactive)
REMARK    1  A    between atoms: C_1  and  C_2
REMARK    2  A    between atoms: C_2  and  O_3
REMARK    3  A    between atoms: O_3  and  C_4
REMARK    4  A    between atoms: C_4  and  C_6
REMARK    5  A    between atoms: C_6  and  C_7
REMARK    6  A    between atoms: C_7  and  C_8
REMARK    7  A    between atoms: C_8  and  C_9
REMARK    8  A    between atoms: C_9  and  C_11
REMARK    9  A    between atoms: C_12  and  C_13
REMARK   10  A    between atoms: C_16  and  O_17
REMARK   11  A    between atoms: C_18  and  O_19
REMARK   12  A    between atoms: O_19  and  C_20
REMARK   13  A    between atoms: C_22  and  O_23
REMARK   14  A    between atoms: C_22  and  C_24
REMARK   15  A    between atoms: C_25  and  C_26
REMARK   16  A    between atoms: C_29  and  O_30
REMARK   17  A    between atoms: C_31  and  O_32
REMARK                            x       y       z     vdW  Elec       q    Type
REMARK                         _______ _______ _______ _____ _____    ______ ____
ROOT
ATOM      1  C   UNL     1      -0.065  10.475  19.293  0.00  0.00    +0.000 C 
ATOM      2  C   UNL     1      -0.022  10.884  20.593  0.00  0.00    +0.000 C 
ENDROOT
BRANCH   1   3
ATOM      3  C   UNL     1       1.269  10.155  18.643  0.00  0.00    +0.000 C 
ATOM      4  O   UNL     1       2.005  11.062  18.252  0.00  0.00    +0.000 OA
BRANCH   3   5
ATOM      5  C   UNL     1       1.665   8.739  18.425  0.00  0.00    +0.000 C 
ATOM      6  C   UNL     1       2.807   8.390  17.807  0.00  0.00    +0.000 C 
BRANCH   6   7
ATOM      7  C   UNL     1       3.198   6.974  17.730  0.00  0.00    +0.000 A 
ATOM      8  C   UNL     1       2.371   5.977  18.247  0.00  0.00    +0.000 A 
ATOM      9  C   UNL     1       2.789   4.643  18.251  0.00  0.00    +0.000 A 
ATOM     10  C   UNL     1       4.042   4.292  17.734  0.00  0.00    +0.000 A 
ATOM     11  C   UNL     1       4.882   5.274  17.194  0.00  0.00    +0.000 A 
ATOM     12  C   UNL     1       4.444   6.611  17.198  0.00  0.00    +0.000 A 
BRANCH  10  13
ATOM     13  O   UNL     1       4.417   2.978  17.782  0.00  0.00    +0.000 OA
ATOM     14  H   UNL     1       5.376   2.920  17.919  0.00  0.00    +0.000 HD
ENDBRANCH  10  13
BRANCH  11  15
ATOM     15  O   UNL     1       6.128   5.116  16.648  0.00  0.00    +0.000 OA
ATOM     16  C   UNL     1       7.243   4.993  17.521  0.00  0.00    +0.000 C 
ENDBRANCH  11  15
ENDBRANCH   6   7
ENDBRANCH   3   5
ENDBRANCH   1   3
BRANCH   2  17
ATOM     17  O   UNL     1       1.150  11.053  21.308  0.00  0.00    +0.000 OA
ATOM     18  H   UNL     1       1.004  10.739  22.226  0.00  0.00    +0.000 HD
ENDBRANCH   2  17
BRANCH   2  19
ATOM     19  C   UNL     1      -1.214  11.176  21.395  0.00  0.00    +0.000 C 
ATOM     20  C   UNL     1      -1.896  12.336  21.435  0.00  0.00    +0.000 C 
BRANCH  20  21
ATOM     21  C   UNL     1      -3.083  12.559  22.287  0.00  0.00    +0.000 A 
ATOM     22  C   UNL     1      -3.057  12.340  23.678  0.00  0.00    +0.000 A 
ATOM     23  C   UNL     1      -4.191  12.557  24.472  0.00  0.00    +0.000 A 
ATOM     24  C   UNL     1      -5.352  13.016  23.875  0.00  0.00    +0.000 A 
ATOM     25  C   UNL     1      -5.386  13.271  22.507  0.00  0.00    +0.000 A 
ATOM     26  C   UNL     1      -4.264  13.052  21.710  0.00  0.00    +0.000 A 
BRANCH  24  27
ATOM     27  O   UNL     1      -6.499  13.244  24.592  0.00  0.00    +0.000 OA
ATOM     28  H   UNL     1      -6.647  12.477  25.172  0.00  0.00    +0.000 HD
ENDBRANCH  24  27
BRANCH  25  29
ATOM     29  O   UNL     1      -6.536  13.736  21.931  0.00  0.00    +0.000 OA
ATOM     30  H   UNL     1      -6.360  14.684  21.763  0.00  0.00    +0.000 HD
ENDBRANCH  25  29
ENDBRANCH  20  21
ENDBRANCH   2  19
BRANCH   1  31
ATOM     31  C   UNL     1      -1.416  10.257  18.608  0.00  0.00    +0.000 C 
BRANCH  31  32
ATOM     32  C   UNL     1      -1.497   9.914  17.128  0.00  0.00    +0.000 C 
BRANCH  32  33
ATOM     33  C   UNL     1      -2.570  10.666  16.389  0.00  0.00    +0.000 C 
ATOM     34  O   UNL     1      -2.714  10.721  15.178  0.00  0.00    +0.000 OA
BRANCH  33  35
ATOM     35  O   UNL     1      -3.306  11.332  17.324  0.00  0.00    +0.000 OA
BRANCH  35  37
ATOM     36  C   UNL     1      -5.351  12.137  18.237  0.00  0.00    +0.000 C 
ATOM     37  C   UNL     1      -4.696  11.494  17.029  0.00  0.00    +0.000 C 
ENDBRANCH  35  37
ENDBRANCH  33  35
ENDBRANCH  32  33
ENDBRANCH  31  32
ENDBRANCH   1  31
TORSDOF 15
ENDMDL
MODEL 7
REMARK VINA RESULT:      -7.2      1.758      9.196
REMARK  Name = 
REMARK  17 active torsions:
REMARK  status: ('A' for Active; 'I' for Inactive)
REMARK    1  A    between atoms: C_1  and  C_2
REMARK    2  A    between atoms: C_2  and  O_3
REMARK    3  A    between atoms: O_3  and  C_4
REMARK    4  A    between atoms: C_4  and  C_6
REMARK    5  A    between atoms: C_6  and  C_7
REMARK    6  A    between atoms: C_7  and  C_8
REMARK    7  A    between atoms: C_8  and  C_9
REMARK    8  A    between atoms: C_9  and  C_11
REMARK    9  A    between atoms: C_12  and  C_13
REMARK   10  A    between atoms: C_16  and  O_17
REMARK   11  A    between atoms: C_18  and  O_19
REMARK   12  A    between atoms: O_19  and  C_20
REMARK   13  A    between atoms: C_22  and  O_23
REMARK   14  A    between atoms: C_22  and  C_24
REMARK   15  A    between atoms: C_25  and  C_26
REMARK   16  A    between atoms: C_29  and  O_30
REMARK   17  A    between atoms: C_31  and  O_32
REMARK                            x       y       z     vdW  Elec       q    Type
REMARK                         _______ _______ _______ _____ _____    ______ ____
ROOT
ATOM      1  C   UNL     1       0.618  10.046  19.140  0.00  0.00    +0.000 C 
ATOM      2  C   UNL     1      -0.595  10.240  18.548  0.00  0.00    +0.000 C 
ENDROOT
BRANCH   1   3
ATOM      3  C   UNL     1       1.680   9.367  18.294  0.00  0.00    +0.000 C 
ATOM      4  O   UNL     1       2.125   9.923  17.288  0.00  0.00    +0.000 OA
BRANCH   3   5
ATOM      5  C   UNL     1       2.146   8.000  18.647  0.00  0.00    +0.000 C 
ATOM      6  C   UNL     1       3.120   7.367  17.969  0.00  0.00    +0.000 C 
BRANCH   6   7
ATOM      7  C   UNL     1       3.617   6.066  18.444  0.00  0.00    +0.000 A 
ATOM      8  C   UNL     1       4.966   5.731  18.324  0.00  0.00    +0.000 A 
ATOM      9  C   UNL     1       5.414   4.460  18.695  0.00  0.00    +0.000 A 
ATOM     10  C   UNL     1       4.514   3.508  19.193  0.00  0.00    +0.000 A 
ATOM     11  C   UNL     1       3.159   3.828  19.337  0.00  0.00    +0.000 A 
ATOM     12  C   UNL     1       2.726   5.112  18.960  0.00  0.00    +0.000 A 
BRANCH  10  13
ATOM     13  O   UNL     1       4.996   2.271  19.519  0.00  0.00    +0.000 OA
ATOM     14  H   UNL     1       5.850   2.365  19.969  0.00  0.00    +0.000 HD
ENDBRANCH  10  13
BRANCH  11  15
ATOM     15  O   UNL     1       2.145   3.033  19.804  0.00  0.00    +0.000 OA
ATOM     16  C   UNL     1       1.418   2.242  18.873  0.00  0.00    +0.000 C 
ENDBRANCH  11  15
ENDBRANCH   6   7
ENDBRANCH   3   5
ENDBRANCH   1   3
BRANCH   2  17
ATOM     17  O   UNL     1      -0.901   9.822  17.266  0.00  0.00    +0.000 OA
ATOM     18  H   UNL     1      -0.821   8.844  17.228  0.00  0.00    +0.000 HD
ENDBRANCH   2  17
BRANCH   2  19
ATOM     19  C   UNL     1      -1.715  10.932  19.193  0.00  0.00    +0.000 C 
ATOM     20  C   UNL     1      -2.711  11.601  18.581  0.00  0.00    +0.000 C 
BRANCH  20  21
ATOM     21  C   UNL     1      -3.798  12.291  19.305  0.00  0.00    +0.000 A 
ATOM     22  C   UNL     1      -5.154  12.114  18.967  0.00  0.00    +0.000 A 
ATOM     23  C   UNL     1      -6.173  12.776  19.664  0.00  0.00    +0.000 A 
ATOM     24  C   UNL     1      -5.837  13.603  20.720  0.00  0.00    +0.000 A 
ATOM     25  C   UNL     1      -4.505  13.765  21.091  0.00  0.00    +0.000 A 
ATOM     26  C   UNL     1      -3.485  13.114  20.398  0.00  0.00    +0.000 A 
BRANCH  24  27
ATOM     27  O   UNL     1      -6.783  14.285  21.442  0.00  0.00    +0.000 OA
ATOM     28  H   UNL     1      -6.381  15.114  21.755  0.00  0.00    +0.000 HD
ENDBRANCH  24  27
BRANCH  25  29
ATOM     29  O   UNL     1      -4.186  14.577  22.145  0.00  0.00    +0.000 OA
ATOM     30  H   UNL     1      -4.138  15.473  21.757  0.00  0.00    +0.000 HD
ENDBRANCH  25  29
ENDBRANCH  20  21
ENDBRANCH   2  19
BRANCH   1  31
ATOM     31  C   UNL     1       0.880  10.602  20.541  0.00  0.00    +0.000 C 
BRANCH  31  32
ATOM     32  C   UNL     1       1.110   9.672  21.723  0.00  0.00    +0.000 C 
BRANCH  32  33
ATOM     33  C   UNL     1      -0.134   9.381  22.516  0.00  0.00    +0.000 C 
ATOM     34  O   UNL     1      -0.873   8.419  22.379  0.00  0.00    +0.000 OA
BRANCH  33  35
ATOM     35  O   UNL     1      -0.320  10.431  23.366  0.00  0.00    +0.000 OA
BRANCH  35  37
ATOM     36  C   UNL     1      -1.133  12.636  22.991  0.00  0.00    +0.000 C 
ATOM     37  C   UNL     1      -1.523  11.182  23.181  0.00  0.00    +0.000 C 
ENDBRANCH  35  37
ENDBRANCH  33  35
ENDBRANCH  32  33
ENDBRANCH  31  32
ENDBRANCH   1  31
TORSDOF 15
ENDMDL
MODEL 8
REMARK VINA RESULT:      -7.2      2.097      9.317
REMARK  Name = 
REMARK  17 active torsions:
REMARK  status: ('A' for Active; 'I' for Inactive)
REMARK    1  A    between atoms: C_1  and  C_2
REMARK    2  A    between atoms: C_2  and  O_3
REMARK    3  A    between atoms: O_3  and  C_4
REMARK    4  A    between atoms: C_4  and  C_6
REMARK    5  A    between atoms: C_6  and  C_7
REMARK    6  A    between atoms: C_7  and  C_8
REMARK    7  A    between atoms: C_8  and  C_9
REMARK    8  A    between atoms: C_9  and  C_11
REMARK    9  A    between atoms: C_12  and  C_13
REMARK   10  A    between atoms: C_16  and  O_17
REMARK   11  A    between atoms: C_18  and  O_19
REMARK   12  A    between atoms: O_19  and  C_20
REMARK   13  A    between atoms: C_22  and  O_23
REMARK   14  A    between atoms: C_22  and  C_24
REMARK   15  A    between atoms: C_25  and  C_26
REMARK   16  A    between atoms: C_29  and  O_30
REMARK   17  A    between atoms: C_31  and  O_32
REMARK                            x       y       z     vdW  Elec       q    Type
REMARK                         _______ _______ _______ _____ _____    ______ ____
ROOT
ATOM      1  C   UNL     1       0.126  10.733  19.002  0.00  0.00    +0.000 C 
ATOM      2  C   UNL     1       0.159  11.745  19.915  0.00  0.00    +0.000 C 
ENDROOT
BRANCH   1   3
ATOM      3  C   UNL     1       1.468  10.265  18.467  0.00  0.00    +0.000 C 
ATOM      4  O   UNL     1       2.262  11.073  17.982  0.00  0.00    +0.000 OA
BRANCH   3   5
ATOM      5  C   UNL     1       1.805   8.817  18.478  0.00  0.00    +0.000 C 
ATOM      6  C   UNL     1       2.783   8.293  17.719  0.00  0.00    +0.000 C 
BRANCH   6   7
ATOM      7  C   UNL     1       3.145   6.875  17.865  0.00  0.00    +0.000 A 
ATOM      8  C   UNL     1       4.405   6.416  17.479  0.00  0.00    +0.000 A 
ATOM      9  C   UNL     1       4.710   5.053  17.538  0.00  0.00    +0.000 A 
ATOM     10  C   UNL     1       3.755   4.132  17.987  0.00  0.00    +0.000 A 
ATOM     11  C   UNL     1       2.490   4.571  18.396  0.00  0.00    +0.000 A 
ATOM     12  C   UNL     1       2.201   5.947  18.331  0.00  0.00    +0.000 A 
BRANCH  10  13
ATOM     13  O   UNL     1       4.092   2.807  18.003  0.00  0.00    +0.000 OA
ATOM     14  H   UNL     1       4.841   2.657  17.404  0.00  0.00    +0.000 HD
ENDBRANCH  10  13
BRANCH  11  15
ATOM     15  O   UNL     1       1.442   3.822  18.862  0.00  0.00    +0.000 OA
ATOM     16  C   UNL     1       1.045   3.978  20.218  0.00  0.00    +0.000 C 
ENDBRANCH  11  15
ENDBRANCH   6   7
ENDBRANCH   3   5
ENDBRANCH   1   3
BRANCH   2  17
ATOM     17  O   UNL     1       1.321  12.370  20.331  0.00  0.00    +0.000 OA
ATOM     18  H   UNL     1       1.425  13.204  19.825  0.00  0.00    +0.000 HD
ENDBRANCH   2  17
BRANCH   2  19
ATOM     19  C   UNL     1      -1.033  12.279  20.582  0.00  0.00    +0.000 C 
ATOM     20  C   UNL     1      -1.325  12.205  21.894  0.00  0.00    +0.000 C 
BRANCH  20  21
ATOM     21  C   UNL     1      -2.561  12.755  22.489  0.00  0.00    +0.000 A 
ATOM     22  C   UNL     1      -3.211  13.884  21.955  0.00  0.00    +0.000 A 
ATOM     23  C   UNL     1      -4.383  14.393  22.531  0.00  0.00    +0.000 A 
ATOM     24  C   UNL     1      -4.920  13.756  23.635  0.00  0.00    +0.000 A 
ATOM     25  C   UNL     1      -4.311  12.618  24.157  0.00  0.00    +0.000 A 
ATOM     26  C   UNL     1      -3.142  12.110  23.593  0.00  0.00    +0.000 A 
BRANCH  24  27
ATOM     27  O   UNL     1      -6.061  14.203  24.252  0.00  0.00    +0.000 OA
ATOM     28  H   UNL     1      -5.797  14.801  24.972  0.00  0.00    +0.000 HD
ENDBRANCH  24  27
BRANCH  25  29
ATOM     29  O   UNL     1      -4.858  11.991  25.242  0.00  0.00    +0.000 OA
ATOM     30  H   UNL     1      -4.136  11.431  25.592  0.00  0.00    +0.000 HD
ENDBRANCH  25  29
ENDBRANCH  20  21
ENDBRANCH   2  19
BRANCH   1  31
ATOM     31  C   UNL     1      -1.204  10.063  18.655  0.00  0.00    +0.000 C 
BRANCH  31  32
ATOM     32  C   UNL     1      -1.640   9.890  17.208  0.00  0.00    +0.000 C 
BRANCH  32  33
ATOM     33  C   UNL     1      -2.764  10.803  16.801  0.00  0.00    +0.000 C 
ATOM     34  O   UNL     1      -3.070  11.113  15.660  0.00  0.00    +0.000 OA
BRANCH  33  35
ATOM     35  O   UNL     1      -3.331  11.275  17.948  0.00  0.00    +0.000 OA
BRANCH  35  37
ATOM     36  C   UNL     1      -5.636  10.805  18.311  0.00  0.00    +0.000 C 
ATOM     37  C   UNL     1      -4.639  11.837  17.816  0.00  0.00    +0.000 C 
ENDBRANCH  35  37
ENDBRANCH  33  35
ENDBRANCH  32  33
ENDBRANCH  31  32
ENDBRANCH   1  31
TORSDOF 15
ENDMDL
MODEL 9
REMARK VINA RESULT:      -7.2      1.799      8.859
REMARK  Name = 
REMARK  17 active torsions:
REMARK  status: ('A' for Active; 'I' for Inactive)
REMARK    1  A    between atoms: C_1  and  C_2
REMARK    2  A    between atoms: C_2  and  O_3
REMARK    3  A    between atoms: O_3  and  C_4
REMARK    4  A    between atoms: C_4  and  C_6
REMARK    5  A    between atoms: C_6  and  C_7
REMARK    6  A    between atoms: C_7  and  C_8
REMARK    7  A    between atoms: C_8  and  C_9
REMARK    8  A    between atoms: C_9  and  C_11
REMARK    9  A    between atoms: C_12  and  C_13
REMARK   10  A    between atoms: C_16  and  O_17
REMARK   11  A    between atoms: C_18  and  O_19
REMARK   12  A    between atoms: O_19  and  C_20
REMARK   13  A    between atoms: C_22  and  O_23
REMARK   14  A    between atoms: C_22  and  C_24
REMARK   15  A    between atoms: C_25  and  C_26
REMARK   16  A    between atoms: C_29  and  O_30
REMARK   17  A    between atoms: C_31  and  O_32
REMARK                            x       y       z     vdW  Elec       q    Type
REMARK                         _______ _______ _______ _____ _____    ______ ____
ROOT
ATOM      1  C   UNL     1       0.790  10.129  19.174  0.00  0.00    +0.000 C 
ATOM      2  C   UNL     1      -0.446  10.486  18.724  0.00  0.00    +0.000 C 
ENDROOT
BRANCH   1   3
ATOM      3  C   UNL     1       1.723   9.504  18.153  0.00  0.00    +0.000 C 
ATOM      4  O   UNL     1       2.388  10.215  17.398  0.00  0.00    +0.000 OA
BRANCH   3   5
ATOM      5  C   UNL     1       1.796   8.024  18.024  0.00  0.00    +0.000 C 
ATOM      6  C   UNL     1       2.938   7.335  18.192  0.00  0.00    +0.000 C 
BRANCH   6   7
ATOM      7  C   UNL     1       2.918   5.865  18.170  0.00  0.00    +0.000 A 
ATOM      8  C   UNL     1       3.765   5.152  17.320  0.00  0.00    +0.000 A 
ATOM      9  C   UNL     1       3.677   3.759  17.240  0.00  0.00    +0.000 A 
ATOM     10  C   UNL     1       2.739   3.063  18.013  0.00  0.00    +0.000 A 
ATOM     11  C   UNL     1       1.891   3.755  18.885  0.00  0.00    +0.000 A 
ATOM     12  C   UNL     1       1.994   5.156  18.954  0.00  0.00    +0.000 A 
BRANCH  10  13
ATOM     13  O   UNL     1       2.675   1.703  17.881  0.00  0.00    +0.000 OA
ATOM     14  H   UNL     1       1.775   1.401  18.082  0.00  0.00    +0.000 HD
ENDBRANCH  10  13
BRANCH  11  15
ATOM     15  O   UNL     1       0.924   3.245  19.711  0.00  0.00    +0.000 OA
ATOM     16  C   UNL     1       1.293   2.851  21.026  0.00  0.00    +0.000 C 
ENDBRANCH  11  15
ENDBRANCH   6   7
ENDBRANCH   3   5
ENDBRANCH   1   3
BRANCH   2  17
ATOM     17  O   UNL     1      -0.886  10.273  17.431  0.00  0.00    +0.000 OA
ATOM     18  H   UNL     1      -1.763   9.833  17.466  0.00  0.00    +0.000 HD
ENDBRANCH   2  17
BRANCH   2  19
ATOM     19  C   UNL     1      -1.453  11.157  19.554  0.00  0.00    +0.000 C 
ATOM     20  C   UNL     1      -2.257  12.173  19.184  0.00  0.00    +0.000 C 
BRANCH  20  21
ATOM     21  C   UNL     1      -3.237  12.810  20.087  0.00  0.00    +0.000 A 
ATOM     22  C   UNL     1      -3.060  14.116  20.583  0.00  0.00    +0.000 A 
ATOM     23  C   UNL     1      -4.000  14.707  21.438  0.00  0.00    +0.000 A 
ATOM     24  C   UNL     1      -5.134  13.995  21.783  0.00  0.00    +0.000 A 
ATOM     25  C   UNL     1      -5.344  12.715  21.276  0.00  0.00    +0.000 A 
ATOM     26  C   UNL     1      -4.410  12.120  20.429  0.00  0.00    +0.000 A 
BRANCH  24  27
ATOM     27  O   UNL     1      -6.092  14.510  22.619  0.00  0.00    +0.000 OA
ATOM     28  H   UNL     1      -5.642  15.052  23.291  0.00  0.00    +0.000 HD
ENDBRANCH  24  27
BRANCH  25  29
ATOM     29  O   UNL     1      -6.475  12.026  21.615  0.00  0.00    +0.000 OA
ATOM     30  H   UNL     1      -6.361  11.147  21.201  0.00  0.00    +0.000 HD
ENDBRANCH  25  29
ENDBRANCH  20  21
ENDBRANCH   2  19
BRANCH   1  31
ATOM     31  C   UNL     1       1.206  10.465  20.607  0.00  0.00    +0.000 C 
BRANCH  31  32
ATOM     32  C   UNL     1       1.266   9.388  21.679  0.00  0.00    +0.000 C 
BRANCH  32  33
ATOM     33  C   UNL     1      -0.033   9.186  22.409  0.00  0.00    +0.000 C 
ATOM     34  O   UNL     1      -0.854   8.306  22.199  0.00  0.00    +0.000 OA
BRANCH  33  35
ATOM     35  O   UNL     1      -0.155  10.212  23.299  0.00  0.00    +0.000 OA
BRANCH  35  37
ATOM     36  C   UNL     1      -0.972  12.415  22.921  0.00  0.00    +0.000 C 
ATOM     37  C   UNL     1      -1.360  10.977  23.212  0.00  0.00    +0.000 C 
ENDBRANCH  35  37
ENDBRANCH  33  35
ENDBRANCH  32  33
ENDBRANCH  31  32
ENDBRANCH   1  31
TORSDOF 15
ENDMDL
