MODEL 1
REMARK VINA RESULT:      -8.3      0.000      0.000
REMARK  Name = 
REMARK  2 active torsions:
REMARK  status: ('A' for Active; 'I' for Inactive)
REMARK    1  A    between atoms: C_1  and  N_2
REMARK    2  A    between atoms: C_5  and  C_6
REMARK                            x       y       z     vdW  Elec       q    Type
REMARK                         _______ _______ _______ _____ _____    ______ ____
ROOT
ATOM      1  C   UNL     1       3.719   1.585  17.624  0.00  0.00    +0.000 C 
ATOM      2  N   UNL     1       3.574   2.960  18.088  0.00  0.00    +0.000 N 
ATOM      3  C   UNL     1       4.098   4.034  17.360  0.00  0.00    +0.000 A 
ATOM      4  N   UNL     1       4.708   3.847  16.226  0.00  0.00    +0.000 NA
ATOM      5  C   UNL     1       5.240   4.916  15.549  0.00  0.00    +0.000 A 
ATOM      6  N   UNL     1       5.169   6.148  15.926  0.00  0.00    +0.000 NA
ATOM      7  C   UNL     1       4.541   6.513  17.077  0.00  0.00    +0.000 A 
ATOM      8  O   UNL     1       4.459   7.678  17.452  0.00  0.00    +0.000 OA
ATOM      9  C   UNL     1       3.974   5.415  17.867  0.00  0.00    +0.000 A 
ATOM     10  C   UNL     1       3.352   5.632  19.034  0.00  0.00    +0.000 A 
ATOM     11  C   UNL     1       2.800   4.516  19.805  0.00  0.00    +0.000 A 
ATOM     12  C   UNL     1       2.157   4.788  21.022  0.00  0.00    +0.000 A 
ATOM     13  C   UNL     1       1.631   3.750  21.784  0.00  0.00    +0.000 A 
ATOM     14  C   UNL     1       1.747   2.438  21.335  0.00  0.00    +0.000 A 
ATOM     15  C   UNL     1       2.384   2.163  20.120  0.00  0.00    +0.000 A 
ATOM     16  C   UNL     1       2.923   3.189  19.326  0.00  0.00    +0.000 A 
ENDROOT
BRANCH   5  17
ATOM     17  C   UNL     1       5.989   4.577  14.299  0.00  0.00    +0.000 A 
ATOM     18  C   UNL     1       7.197   5.215  13.993  0.00  0.00    +0.000 A 
ATOM     19  C   UNL     1       7.845   4.953  12.784  0.00  0.00    +0.000 A 
ATOM     20  C   UNL     1       7.294   4.047  11.880  0.00  0.00    +0.000 A 
ATOM     21  C   UNL     1       6.106   3.384  12.189  0.00  0.00    +0.000 A 
ATOM     22  C   UNL     1       5.457   3.644  13.397  0.00  0.00    +0.000 A 
ENDBRANCH   5  17
TORSDOF 1
ENDMDL
MODEL 2
REMARK VINA RESULT:      -8.1      3.729      5.372
REMARK  Name = 
REMARK  2 active torsions:
REMARK  status: ('A' for Active; 'I' for Inactive)
REMARK    1  A    between atoms: C_1  and  N_2
REMARK    2  A    between atoms: C_5  and  C_6
REMARK                            x       y       z     vdW  Elec       q    Type
REMARK                         _______ _______ _______ _____ _____    ______ ____
ROOT
ATOM      1  C   UNL     1       2.005   9.804  17.887  0.00  0.00    +0.000 C 
ATOM      2  N   UNL     1       1.740   8.952  19.041  0.00  0.00    +0.000 N 
ATOM      3  C   UNL     1       2.260   7.656  19.125  0.00  0.00    +0.000 A 
ATOM      4  N   UNL     1       3.024   7.173  18.189  0.00  0.00    +0.000 NA
ATOM      5  C   UNL     1       3.494   5.888  18.282  0.00  0.00    +0.000 A 
ATOM      6  N   UNL     1       3.268   5.080  19.263  0.00  0.00    +0.000 NA
ATOM      7  C   UNL     1       2.507   5.442  20.332  0.00  0.00    +0.000 A 
ATOM      8  O   UNL     1       2.283   4.691  21.276  0.00  0.00    +0.000 OA
ATOM      9  C   UNL     1       1.947   6.797  20.284  0.00  0.00    +0.000 A 
ATOM     10  C   UNL     1       1.161   7.271  21.259  0.00  0.00    +0.000 A 
ATOM     11  C   UNL     1       0.610   8.626  21.182  0.00  0.00    +0.000 A 
ATOM     12  C   UNL     1      -0.210   9.082  22.225  0.00  0.00    +0.000 A 
ATOM     13  C   UNL     1      -0.758  10.360  22.177  0.00  0.00    +0.000 A 
ATOM     14  C   UNL     1      -0.490  11.184  21.089  0.00  0.00    +0.000 A 
ATOM     15  C   UNL     1       0.331  10.735  20.049  0.00  0.00    +0.000 A 
ATOM     16  C   UNL     1       0.901   9.451  20.068  0.00  0.00    +0.000 A 
ENDROOT
BRANCH   5  17
ATOM     17  C   UNL     1       4.296   5.409  17.113  0.00  0.00    +0.000 A 
ATOM     18  C   UNL     1       4.515   4.042  16.906  0.00  0.00    +0.000 A 
ATOM     19  C   UNL     1       5.334   3.611  15.861  0.00  0.00    +0.000 A 
ATOM     20  C   UNL     1       5.931   4.542  15.013  0.00  0.00    +0.000 A 
ATOM     21  C   UNL     1       5.694   5.905  15.193  0.00  0.00    +0.000 A 
ATOM     22  C   UNL     1       4.876   6.339  16.237  0.00  0.00    +0.000 A 
ENDBRANCH   5  17
TORSDOF 1
ENDMDL
MODEL 3
REMARK VINA RESULT:      -8.1      3.721      5.297
REMARK  Name = 
REMARK  2 active torsions:
REMARK  status: ('A' for Active; 'I' for Inactive)
REMARK    1  A    between atoms: C_1  and  N_2
REMARK    2  A    between atoms: C_5  and  C_6
REMARK                            x       y       z     vdW  Elec       q    Type
REMARK                         _______ _______ _______ _____ _____    ______ ____
ROOT
ATOM      1  C   UNL     1       2.059   9.809  17.866  0.00  0.00    +0.000 C 
ATOM      2  N   UNL     1       1.775   8.957  19.015  0.00  0.00    +0.000 N 
ATOM      3  C   UNL     1       2.297   7.662  19.109  0.00  0.00    +0.000 A 
ATOM      4  N   UNL     1       3.079   7.181  18.188  0.00  0.00    +0.000 NA
ATOM      5  C   UNL     1       3.550   5.896  18.291  0.00  0.00    +0.000 A 
ATOM      6  N   UNL     1       3.308   5.089  19.267  0.00  0.00    +0.000 NA
ATOM      7  C   UNL     1       2.527   5.449  20.322  0.00  0.00    +0.000 A 
ATOM      8  O   UNL     1       2.287   4.698  21.262  0.00  0.00    +0.000 OA
ATOM      9  C   UNL     1       1.965   6.802  20.263  0.00  0.00    +0.000 A 
ATOM     10  C   UNL     1       1.159   7.275  21.223  0.00  0.00    +0.000 A 
ATOM     11  C   UNL     1       0.607   8.629  21.136  0.00  0.00    +0.000 A 
ATOM     12  C   UNL     1      -0.233   9.083  22.163  0.00  0.00    +0.000 A 
ATOM     13  C   UNL     1      -0.784  10.360  22.105  0.00  0.00    +0.000 A 
ATOM     14  C   UNL     1      -0.497  11.185  21.022  0.00  0.00    +0.000 A 
ATOM     15  C   UNL     1       0.343  10.737  19.997  0.00  0.00    +0.000 A 
ATOM     16  C   UNL     1       0.916   9.454  20.027  0.00  0.00    +0.000 A 
ENDROOT
BRANCH   5  17
ATOM     17  C   UNL     1       4.375   5.420  17.136  0.00  0.00    +0.000 A 
ATOM     18  C   UNL     1       4.912   6.329  16.216  0.00  0.00    +0.000 A 
ATOM     19  C   UNL     1       5.609   5.868  15.097  0.00  0.00    +0.000 A 
ATOM     20  C   UNL     1       5.778   4.500  14.895  0.00  0.00    +0.000 A 
ATOM     21  C   UNL     1       5.271   3.588  15.822  0.00  0.00    +0.000 A 
ATOM     22  C   UNL     1       4.575   4.045  16.942  0.00  0.00    +0.000 A 
ENDBRANCH   5  17
TORSDOF 1
ENDMDL
MODEL 4
REMARK VINA RESULT:      -8.0      0.092      1.035
REMARK  Name = 
REMARK  2 active torsions:
REMARK  status: ('A' for Active; 'I' for Inactive)
REMARK    1  A    between atoms: C_1  and  N_2
REMARK    2  A    between atoms: C_5  and  C_6
REMARK                            x       y       z     vdW  Elec       q    Type
REMARK                         _______ _______ _______ _____ _____    ______ ____
ROOT
ATOM      1  C   UNL     1       3.656   1.618  17.592  0.00  0.00    +0.000 C 
ATOM      2  N   UNL     1       3.552   2.987  18.082  0.00  0.00    +0.000 N 
ATOM      3  C   UNL     1       4.071   4.064  17.355  0.00  0.00    +0.000 A 
ATOM      4  N   UNL     1       4.640   3.885  16.199  0.00  0.00    +0.000 NA
ATOM      5  C   UNL     1       5.169   4.955  15.522  0.00  0.00    +0.000 A 
ATOM      6  N   UNL     1       5.133   6.182  15.921  0.00  0.00    +0.000 NA
ATOM      7  C   UNL     1       4.550   6.538  17.098  0.00  0.00    +0.000 A 
ATOM      8  O   UNL     1       4.502   7.699  17.494  0.00  0.00    +0.000 OA
ATOM      9  C   UNL     1       3.989   5.438  17.889  0.00  0.00    +0.000 A 
ATOM     10  C   UNL     1       3.409   5.647  19.078  0.00  0.00    +0.000 A 
ATOM     11  C   UNL     1       2.862   4.527  19.849  0.00  0.00    +0.000 A 
ATOM     12  C   UNL     1       2.265   4.791  21.091  0.00  0.00    +0.000 A 
ATOM     13  C   UNL     1       1.746   3.749  21.853  0.00  0.00    +0.000 A 
ATOM     14  C   UNL     1       1.822   2.444  21.379  0.00  0.00    +0.000 A 
ATOM     15  C   UNL     1       2.414   2.177  20.139  0.00  0.00    +0.000 A 
ATOM     16  C   UNL     1       2.946   3.207  19.345  0.00  0.00    +0.000 A 
ENDROOT
BRANCH   5  17
ATOM     17  C   UNL     1       5.870   4.624  14.242  0.00  0.00    +0.000 A 
ATOM     18  C   UNL     1       5.328   3.692  13.349  0.00  0.00    +0.000 A 
ATOM     19  C   UNL     1       6.031   3.328  12.199  0.00  0.00    +0.000 A 
ATOM     20  C   UNL     1       7.274   3.898  11.932  0.00  0.00    +0.000 A 
ATOM     21  C   UNL     1       7.809   4.849  12.802  0.00  0.00    +0.000 A 
ATOM     22  C   UNL     1       7.108   5.215  13.952  0.00  0.00    +0.000 A 
ENDBRANCH   5  17
TORSDOF 1
ENDMDL
MODEL 5
REMARK VINA RESULT:      -7.9      1.606      1.664
REMARK  Name = 
REMARK  2 active torsions:
REMARK  status: ('A' for Active; 'I' for Inactive)
REMARK    1  A    between atoms: C_1  and  N_2
REMARK    2  A    between atoms: C_5  and  C_6
REMARK                            x       y       z     vdW  Elec       q    Type
REMARK                         _______ _______ _______ _____ _____    ______ ____
ROOT
ATOM      1  C   UNL     1       2.146   3.277  16.473  0.00  0.00    +0.000 C 
ATOM      2  N   UNL     1       3.055   3.621  17.559  0.00  0.00    +0.000 N 
ATOM      3  C   UNL     1       4.381   3.994  17.310  0.00  0.00    +0.000 A 
ATOM      4  N   UNL     1       4.842   4.078  16.097  0.00  0.00    +0.000 NA
ATOM      5  C   UNL     1       6.154   4.416  15.884  0.00  0.00    +0.000 A 
ATOM      6  N   UNL     1       7.011   4.700  16.807  0.00  0.00    +0.000 NA
ATOM      7  C   UNL     1       6.679   4.683  18.126  0.00  0.00    +0.000 A 
ATOM      8  O   UNL     1       7.476   4.953  19.019  0.00  0.00    +0.000 OA
ATOM      9  C   UNL     1       5.295   4.300  18.428  0.00  0.00    +0.000 A 
ATOM     10  C   UNL     1       4.844   4.219  19.687  0.00  0.00    +0.000 A 
ATOM     11  C   UNL     1       3.458   3.828  19.960  0.00  0.00    +0.000 A 
ATOM     12  C   UNL     1       3.028   3.755  21.293  0.00  0.00    +0.000 A 
ATOM     13  C   UNL     1       1.721   3.377  21.587  0.00  0.00    +0.000 A 
ATOM     14  C   UNL     1       0.844   3.070  20.552  0.00  0.00    +0.000 A 
ATOM     15  C   UNL     1       1.268   3.146  19.221  0.00  0.00    +0.000 A 
ATOM     16  C   UNL     1       2.580   3.526  18.891  0.00  0.00    +0.000 A 
ENDROOT
BRANCH   5  17
ATOM     17  C   UNL     1       6.598   4.403  14.455  0.00  0.00    +0.000 A 
ATOM     18  C   UNL     1       7.575   5.297  14.000  0.00  0.00    +0.000 A 
ATOM     19  C   UNL     1       7.921   5.333  12.648  0.00  0.00    +0.000 A 
ATOM     20  C   UNL     1       7.299   4.472  11.746  0.00  0.00    +0.000 A 
ATOM     21  C   UNL     1       6.346   3.557  12.195  0.00  0.00    +0.000 A 
ATOM     22  C   UNL     1       5.998   3.519  13.546  0.00  0.00    +0.000 A 
ENDBRANCH   5  17
TORSDOF 1
ENDMDL
MODEL 6
REMARK VINA RESULT:      -7.9      1.599      1.953
REMARK  Name = 
REMARK  2 active torsions:
REMARK  status: ('A' for Active; 'I' for Inactive)
REMARK    1  A    between atoms: C_1  and  N_2
REMARK    2  A    between atoms: C_5  and  C_6
REMARK                            x       y       z     vdW  Elec       q    Type
REMARK                         _______ _______ _______ _____ _____    ______ ____
ROOT
ATOM      1  C   UNL     1       2.081   3.270  16.517  0.00  0.00    +0.000 C 
ATOM      2  N   UNL     1       3.016   3.588  17.589  0.00  0.00    +0.000 N 
ATOM      3  C   UNL     1       4.335   3.969  17.317  0.00  0.00    +0.000 A 
ATOM      4  N   UNL     1       4.767   4.082  16.095  0.00  0.00    +0.000 NA
ATOM      5  C   UNL     1       6.073   4.426  15.858  0.00  0.00    +0.000 A 
ATOM      6  N   UNL     1       6.952   4.689  16.766  0.00  0.00    +0.000 NA
ATOM      7  C   UNL     1       6.652   4.639  18.092  0.00  0.00    +0.000 A 
ATOM      8  O   UNL     1       7.471   4.888  18.971  0.00  0.00    +0.000 OA
ATOM      9  C   UNL     1       5.277   4.248  18.419  0.00  0.00    +0.000 A 
ATOM     10  C   UNL     1       4.857   4.136  19.686  0.00  0.00    +0.000 A 
ATOM     11  C   UNL     1       3.478   3.737  19.983  0.00  0.00    +0.000 A 
ATOM     12  C   UNL     1       3.081   3.631  21.324  0.00  0.00    +0.000 A 
ATOM     13  C   UNL     1       1.782   3.244  21.641  0.00  0.00    +0.000 A 
ATOM     14  C   UNL     1       0.879   2.962  20.621  0.00  0.00    +0.000 A 
ATOM     15  C   UNL     1       1.271   3.071  19.282  0.00  0.00    +0.000 A 
ATOM     16  C   UNL     1       2.574   3.460  18.929  0.00  0.00    +0.000 A 
ENDROOT
BRANCH   5  17
ATOM     17  C   UNL     1       6.482   4.448  14.418  0.00  0.00    +0.000 A 
ATOM     18  C   UNL     1       5.885   3.585  13.491  0.00  0.00    +0.000 A 
ATOM     19  C   UNL     1       6.332   3.555  12.169  0.00  0.00    +0.000 A 
ATOM     20  C   UNL     1       7.370   4.392  11.764  0.00  0.00    +0.000 A 
ATOM     21  C   UNL     1       7.951   5.277  12.674  0.00  0.00    +0.000 A 
ATOM     22  C   UNL     1       7.506   5.309  13.996  0.00  0.00    +0.000 A 
ENDBRANCH   5  17
TORSDOF 1
ENDMDL
MODEL 7
REMARK VINA RESULT:      -7.8      4.309      7.993
REMARK  Name = 
REMARK  2 active torsions:
REMARK  status: ('A' for Active; 'I' for Inactive)
REMARK    1  A    between atoms: C_1  and  N_2
REMARK    2  A    between atoms: C_5  and  C_6
REMARK                            x       y       z     vdW  Elec       q    Type
REMARK                         _______ _______ _______ _____ _____    ______ ____
ROOT
ATOM      1  C   UNL     1       2.014   5.194  21.040  0.00  0.00    +0.000 C 
ATOM      2  N   UNL     1       2.464   5.899  19.845  0.00  0.00    +0.000 N 
ATOM      3  C   UNL     1       2.111   7.232  19.609  0.00  0.00    +0.000 A 
ATOM      4  N   UNL     1       1.392   7.901  20.461  0.00  0.00    +0.000 NA
ATOM      5  C   UNL     1       1.034   9.197  20.188  0.00  0.00    +0.000 A 
ATOM      6  N   UNL     1       1.377   9.860  19.136  0.00  0.00    +0.000 NA
ATOM      7  C   UNL     1       2.149   9.310  18.160  0.00  0.00    +0.000 A 
ATOM      8  O   UNL     1       2.490   9.924  17.153  0.00  0.00    +0.000 OA
ATOM      9  C   UNL     1       2.545   7.914  18.374  0.00  0.00    +0.000 A 
ATOM     10  C   UNL     1       3.285   7.245  17.479  0.00  0.00    +0.000 A 
ATOM     11  C   UNL     1       3.660   5.849  17.715  0.00  0.00    +0.000 A 
ATOM     12  C   UNL     1       4.435   5.186  16.752  0.00  0.00    +0.000 A 
ATOM     13  C   UNL     1       4.800   3.856  16.941  0.00  0.00    +0.000 A 
ATOM     14  C   UNL     1       4.392   3.187  18.090  0.00  0.00    +0.000 A 
ATOM     15  C   UNL     1       3.623   3.846  19.055  0.00  0.00    +0.000 A 
ATOM     16  C   UNL     1       3.239   5.188  18.895  0.00  0.00    +0.000 A 
ENDROOT
BRANCH   5  17
ATOM     17  C   UNL     1       0.139   9.844  21.199  0.00  0.00    +0.000 A 
ATOM     18  C   UNL     1      -0.484  11.068  20.925  0.00  0.00    +0.000 A 
ATOM     19  C   UNL     1      -1.248  11.703  21.906  0.00  0.00    +0.000 A 
ATOM     20  C   UNL     1      -1.400  11.116  23.161  0.00  0.00    +0.000 A 
ATOM     21  C   UNL     1      -0.807   9.883  23.433  0.00  0.00    +0.000 A 
ATOM     22  C   UNL     1      -0.043   9.245  22.455  0.00  0.00    +0.000 A 
ENDBRANCH   5  17
TORSDOF 1
ENDMDL
MODEL 8
REMARK VINA RESULT:      -7.7      4.244      7.936
REMARK  Name = 
REMARK  2 active torsions:
REMARK  status: ('A' for Active; 'I' for Inactive)
REMARK    1  A    between atoms: C_1  and  N_2
REMARK    2  A    between atoms: C_5  and  C_6
REMARK                            x       y       z     vdW  Elec       q    Type
REMARK                         _______ _______ _______ _____ _____    ______ ____
ROOT
ATOM      1  C   UNL     1       2.011   5.101  21.159  0.00  0.00    +0.000 C 
ATOM      2  N   UNL     1       2.439   5.760  19.930  0.00  0.00    +0.000 N 
ATOM      3  C   UNL     1       2.121   7.098  19.671  0.00  0.00    +0.000 A 
ATOM      4  N   UNL     1       1.457   7.813  20.531  0.00  0.00    +0.000 NA
ATOM      5  C   UNL     1       1.132   9.113  20.237  0.00  0.00    +0.000 A 
ATOM      6  N   UNL     1       1.457   9.736  19.156  0.00  0.00    +0.000 NA
ATOM      7  C   UNL     1       2.174   9.136  18.167  0.00  0.00    +0.000 A 
ATOM      8  O   UNL     1       2.497   9.712  17.132  0.00  0.00    +0.000 OA
ATOM      9  C   UNL     1       2.531   7.733  18.403  0.00  0.00    +0.000 A 
ATOM     10  C   UNL     1       3.214   7.017  17.500  0.00  0.00    +0.000 A 
ATOM     11  C   UNL     1       3.552   5.615  17.760  0.00  0.00    +0.000 A 
ATOM     12  C   UNL     1       4.267   4.902  16.787  0.00  0.00    +0.000 A 
ATOM     13  C   UNL     1       4.595   3.566  16.997  0.00  0.00    +0.000 A 
ATOM     14  C   UNL     1       4.209   2.940  18.178  0.00  0.00    +0.000 A 
ATOM     15  C   UNL     1       3.499   3.649  19.153  0.00  0.00    +0.000 A 
ATOM     16  C   UNL     1       3.154   4.999  18.971  0.00  0.00    +0.000 A 
ENDROOT
BRANCH   5  17
ATOM     17  C   UNL     1       0.298   9.815  21.263  0.00  0.00    +0.000 A 
ATOM     18  C   UNL     1       0.096   9.252  22.529  0.00  0.00    +0.000 A 
ATOM     19  C   UNL     1      -0.751   9.874  23.448  0.00  0.00    +0.000 A 
ATOM     20  C   UNL     1      -1.393  11.063  23.111  0.00  0.00    +0.000 A 
ATOM     21  C   UNL     1      -1.175  11.647  21.862  0.00  0.00    +0.000 A 
ATOM     22  C   UNL     1      -0.329  11.027  20.941  0.00  0.00    +0.000 A 
ENDBRANCH   5  17
TORSDOF 1
ENDMDL
MODEL 9
REMARK VINA RESULT:      -7.5      7.220      9.280
REMARK  Name = 
REMARK  2 active torsions:
REMARK  status: ('A' for Active; 'I' for Inactive)
REMARK    1  A    between atoms: C_1  and  N_2
REMARK    2  A    between atoms: C_5  and  C_6
REMARK                            x       y       z     vdW  Elec       q    Type
REMARK                         _______ _______ _______ _____ _____    ______ ____
ROOT
ATOM      1  C   UNL     1      -1.631  11.621  18.752  0.00  0.00    +0.000 C 
ATOM      2  N   UNL     1      -1.490  11.528  20.200  0.00  0.00    +0.000 N 
ATOM      3  C   UNL     1      -0.596  10.627  20.790  0.00  0.00    +0.000 A 
ATOM      4  N   UNL     1       0.166   9.861  20.066  0.00  0.00    +0.000 NA
ATOM      5  C   UNL     1       1.011   8.965  20.671  0.00  0.00    +0.000 A 
ATOM      6  N   UNL     1       1.154   8.818  21.944  0.00  0.00    +0.000 NA
ATOM      7  C   UNL     1       0.448   9.562  22.838  0.00  0.00    +0.000 A 
ATOM      8  O   UNL     1       0.571   9.441  24.053  0.00  0.00    +0.000 OA
ATOM      9  C   UNL     1      -0.498  10.522  22.259  0.00  0.00    +0.000 A 
ATOM     10  C   UNL     1      -1.274  11.299  23.026  0.00  0.00    +0.000 A 
ATOM     11  C   UNL     1      -2.215  12.245  22.421  0.00  0.00    +0.000 A 
ATOM     12  C   UNL     1      -3.009  13.039  23.261  0.00  0.00    +0.000 A 
ATOM     13  C   UNL     1      -3.920  13.940  22.718  0.00  0.00    +0.000 A 
ATOM     14  C   UNL     1      -4.041  14.049  21.337  0.00  0.00    +0.000 A 
ATOM     15  C   UNL     1      -3.248  13.261  20.495  0.00  0.00    +0.000 A 
ATOM     16  C   UNL     1      -2.317  12.344  21.012  0.00  0.00    +0.000 A 
ENDROOT
BRANCH   5  17
ATOM     17  C   UNL     1       1.780   8.079  19.742  0.00  0.00    +0.000 A 
ATOM     18  C   UNL     1       2.204   6.808  20.152  0.00  0.00    +0.000 A 
ATOM     19  C   UNL     1       2.992   6.024  19.308  0.00  0.00    +0.000 A 
ATOM     20  C   UNL     1       3.355   6.500  18.049  0.00  0.00    +0.000 A 
ATOM     21  C   UNL     1       2.913   7.753  17.621  0.00  0.00    +0.000 A 
ATOM     22  C   UNL     1       2.125   8.539  18.463  0.00  0.00    +0.000 A 
ENDBRANCH   5  17
TORSDOF 1
ENDMDL
