MODEL 1
REMARK VINA RESULT:      -9.4      0.000      0.000
REMARK  Name = 
REMARK  7 active torsions:
REMARK  status: ('A' for Active; 'I' for Inactive)
REMARK    1  A    between atoms: C_1  and  C_2
REMARK    2  A    between atoms: C_2  and  N_3
REMARK    3  A    between atoms: C_2  and  C_24
REMARK    4  A    between atoms: C_8  and  N_9
REMARK    5  A    between atoms: C_13  and  C_14
REMARK    6  A    between atoms: C_13  and  C_15
REMARK    7  A    between atoms: C_16  and  C_17
REMARK                            x       y       z     vdW  Elec       q    Type
REMARK                         _______ _______ _______ _____ _____    ______ ____
ROOT
ATOM      1  N   UNL     1       1.301   8.960  20.069  0.00  0.00    +0.000 N 
ATOM      2  C   UNL     1       1.971   8.171  19.175  0.00  0.00    +0.000 A 
ATOM      3  N   UNL     1       2.579   8.690  18.104  0.00  0.00    +0.000 NA
ATOM      4  C   UNL     1       3.373   7.860  17.400  0.00  0.00    +0.000 A 
ATOM      5  C   UNL     1       3.566   6.539  17.717  0.00  0.00    +0.000 A 
ATOM      6  C   UNL     1       2.845   6.083  18.795  0.00  0.00    +0.000 A 
ATOM      7  N   UNL     1       2.045   6.883  19.516  0.00  0.00    +0.000 NA
ATOM      8  H   UNL     1       0.884   8.409  20.803  0.00  0.00    +0.000 HD
ENDROOT
BRANCH   6   9
ATOM      9  N   UNL     1       2.966   4.767  19.252  0.00  0.00    +0.000 N 
ATOM     10  C   UNL     1       2.125   4.189  20.178  0.00  0.00    +0.000 C 
ATOM     11  O   UNL     1       1.127   4.669  20.684  0.00  0.00    +0.000 OA
ATOM     12  O   UNL     1       2.572   2.922  20.468  0.00  0.00    +0.000 OA
ATOM     13  C   UNL     1       3.695   2.624  19.599  0.00  0.00    +0.000 C 
ATOM     14  C   UNL     1       4.692   1.796  20.406  0.00  0.00    +0.000 C 
ATOM     15  C   UNL     1       3.162   1.798  18.421  0.00  0.00    +0.000 C 
ATOM     16  C   UNL     1       4.204   4.036  19.254  0.00  0.00    +0.000 C 
BRANCH  16  17
ATOM     17  C   UNL     1       5.173   4.214  18.106  0.00  0.00    +0.000 A 
ATOM     18  C   UNL     1       4.857   3.868  16.784  0.00  0.00    +0.000 A 
ATOM     19  C   UNL     1       5.789   4.027  15.755  0.00  0.00    +0.000 A 
ATOM     20  C   UNL     1       7.045   4.561  16.025  0.00  0.00    +0.000 A 
ATOM     21  C   UNL     1       7.369   4.944  17.323  0.00  0.00    +0.000 A 
ATOM     22  C   UNL     1       6.443   4.768  18.355  0.00  0.00    +0.000 A 
ENDBRANCH  16  17
ENDBRANCH   6   9
BRANCH   1  24
ATOM     23  C   UNL     1      -0.228   9.907  18.441  0.00  0.00    +0.000 C 
ATOM     24  C   UNL     1       0.649  10.184  19.669  0.00  0.00    +0.000 C 
BRANCH  24  25
ATOM     25  C   UNL     1      -0.131  10.700  20.869  0.00  0.00    +0.000 A 
ATOM     26  C   UNL     1      -0.163   9.922  22.039  0.00  0.00    +0.000 A 
ATOM     27  C   UNL     1      -0.902  10.329  23.150  0.00  0.00    +0.000 A 
ATOM     28  C   UNL     1      -1.634  11.512  23.104  0.00  0.00    +0.000 A 
ATOM     29  C   UNL     1      -1.624  12.293  21.949  0.00  0.00    +0.000 A 
ATOM     30  C   UNL     1      -0.881  11.886  20.837  0.00  0.00    +0.000 A 
ENDBRANCH  24  25
ENDBRANCH   1  24
TORSDOF 4
ENDMDL
MODEL 2
REMARK VINA RESULT:      -9.1      2.622      4.218
REMARK  Name = 
REMARK  7 active torsions:
REMARK  status: ('A' for Active; 'I' for Inactive)
REMARK    1  A    between atoms: C_1  and  C_2
REMARK    2  A    between atoms: C_2  and  N_3
REMARK    3  A    between atoms: C_2  and  C_24
REMARK    4  A    between atoms: C_8  and  N_9
REMARK    5  A    between atoms: C_13  and  C_14
REMARK    6  A    between atoms: C_13  and  C_15
REMARK    7  A    between atoms: C_16  and  C_17
REMARK                            x       y       z     vdW  Elec       q    Type
REMARK                         _______ _______ _______ _____ _____    ______ ____
ROOT
ATOM      1  N   UNL     1       1.079   9.404  18.083  0.00  0.00    +0.000 N 
ATOM      2  C   UNL     1       1.854   8.464  18.705  0.00  0.00    +0.000 A 
ATOM      3  N   UNL     1       1.598   8.062  19.953  0.00  0.00    +0.000 NA
ATOM      4  C   UNL     1       2.292   6.996  20.398  0.00  0.00    +0.000 A 
ATOM      5  C   UNL     1       3.234   6.336  19.652  0.00  0.00    +0.000 A 
ATOM      6  C   UNL     1       3.475   6.867  18.407  0.00  0.00    +0.000 A 
ATOM      7  N   UNL     1       2.802   7.927  17.935  0.00  0.00    +0.000 NA
ATOM      8  H   UNL     1       1.422   9.608  17.157  0.00  0.00    +0.000 HD
ENDROOT
BRANCH   6   9
ATOM      9  N   UNL     1       4.387   6.279  17.525  0.00  0.00    +0.000 N 
ATOM     10  C   UNL     1       5.361   6.975  16.841  0.00  0.00    +0.000 C 
ATOM     11  O   UNL     1       5.641   8.156  16.935  0.00  0.00    +0.000 OA
ATOM     12  O   UNL     1       6.026   6.116  15.999  0.00  0.00    +0.000 OA
ATOM     13  C   UNL     1       5.531   4.772  16.235  0.00  0.00    +0.000 C 
ATOM     14  C   UNL     1       5.498   4.053  14.889  0.00  0.00    +0.000 C 
ATOM     15  C   UNL     1       6.521   4.073  17.176  0.00  0.00    +0.000 C 
ATOM     16  C   UNL     1       4.134   5.053  16.818  0.00  0.00    +0.000 C 
BRANCH  16  17
ATOM     17  C   UNL     1       3.383   3.938  17.513  0.00  0.00    +0.000 A 
ATOM     18  C   UNL     1       4.029   2.886  18.178  0.00  0.00    +0.000 A 
ATOM     19  C   UNL     1       3.299   1.863  18.788  0.00  0.00    +0.000 A 
ATOM     20  C   UNL     1       1.907   1.888  18.767  0.00  0.00    +0.000 A 
ATOM     21  C   UNL     1       1.244   2.939  18.142  0.00  0.00    +0.000 A 
ATOM     22  C   UNL     1       1.976   3.954  17.517  0.00  0.00    +0.000 A 
ENDBRANCH  16  17
ENDBRANCH   6   9
BRANCH   1  24
ATOM     23  C   UNL     1       1.238  11.741  18.715  0.00  0.00    +0.000 C 
ATOM     24  C   UNL     1       0.412  10.452  18.819  0.00  0.00    +0.000 C 
BRANCH  24  25
ATOM     25  C   UNL     1      -0.993  10.585  18.252  0.00  0.00    +0.000 A 
ATOM     26  C   UNL     1      -1.887  11.482  18.863  0.00  0.00    +0.000 A 
ATOM     27  C   UNL     1      -3.200  11.606  18.410  0.00  0.00    +0.000 A 
ATOM     28  C   UNL     1      -3.647  10.824  17.348  0.00  0.00    +0.000 A 
ATOM     29  C   UNL     1      -2.780   9.921  16.735  0.00  0.00    +0.000 A 
ATOM     30  C   UNL     1      -1.464   9.799  17.187  0.00  0.00    +0.000 A 
ENDBRANCH  24  25
ENDBRANCH   1  24
TORSDOF 4
ENDMDL
MODEL 3
REMARK VINA RESULT:      -9.1      2.589      4.095
REMARK  Name = 
REMARK  7 active torsions:
REMARK  status: ('A' for Active; 'I' for Inactive)
REMARK    1  A    between atoms: C_1  and  C_2
REMARK    2  A    between atoms: C_2  and  N_3
REMARK    3  A    between atoms: C_2  and  C_24
REMARK    4  A    between atoms: C_8  and  N_9
REMARK    5  A    between atoms: C_13  and  C_14
REMARK    6  A    between atoms: C_13  and  C_15
REMARK    7  A    between atoms: C_16  and  C_17
REMARK                            x       y       z     vdW  Elec       q    Type
REMARK                         _______ _______ _______ _____ _____    ______ ____
ROOT
ATOM      1  N   UNL     1       1.188   9.521  18.154  0.00  0.00    +0.000 N 
ATOM      2  C   UNL     1       1.891   8.523  18.769  0.00  0.00    +0.000 A 
ATOM      3  N   UNL     1       1.552   8.074  19.981  0.00  0.00    +0.000 NA
ATOM      4  C   UNL     1       2.180   6.961  20.409  0.00  0.00    +0.000 A 
ATOM      5  C   UNL     1       3.136   6.299  19.683  0.00  0.00    +0.000 A 
ATOM      6  C   UNL     1       3.465   6.877  18.480  0.00  0.00    +0.000 A 
ATOM      7  N   UNL     1       2.859   7.984  18.025  0.00  0.00    +0.000 NA
ATOM      8  H   UNL     1       1.589   9.754  17.258  0.00  0.00    +0.000 HD
ENDROOT
BRANCH   6   9
ATOM      9  N   UNL     1       4.401   6.294  17.620  0.00  0.00    +0.000 N 
ATOM     10  C   UNL     1       5.399   6.993  16.975  0.00  0.00    +0.000 C 
ATOM     11  O   UNL     1       5.682   8.171  17.091  0.00  0.00    +0.000 OA
ATOM     12  O   UNL     1       6.086   6.140  16.145  0.00  0.00    +0.000 OA
ATOM     13  C   UNL     1       5.578   4.796  16.349  0.00  0.00    +0.000 C 
ATOM     14  C   UNL     1       5.582   4.092  14.994  0.00  0.00    +0.000 C 
ATOM     15  C   UNL     1       6.534   4.081  17.312  0.00  0.00    +0.000 C 
ATOM     16  C   UNL     1       4.164   5.077  16.892  0.00  0.00    +0.000 C 
BRANCH  16  17
ATOM     17  C   UNL     1       3.387   3.959  17.550  0.00  0.00    +0.000 A 
ATOM     18  C   UNL     1       1.987   3.882  17.515  0.00  0.00    +0.000 A 
ATOM     19  C   UNL     1       1.306   2.845  18.156  0.00  0.00    +0.000 A 
ATOM     20  C   UNL     1       2.014   1.848  18.821  0.00  0.00    +0.000 A 
ATOM     21  C   UNL     1       3.404   1.885  18.841  0.00  0.00    +0.000 A 
ATOM     22  C   UNL     1       4.085   2.933  18.214  0.00  0.00    +0.000 A 
ENDBRANCH  16  17
ENDBRANCH   6   9
BRANCH   1  24
ATOM     23  C   UNL     1       1.300  11.872  18.740  0.00  0.00    +0.000 C 
ATOM     24  C   UNL     1       0.522  10.560  18.902  0.00  0.00    +0.000 C 
BRANCH  24  25
ATOM     25  C   UNL     1      -0.912  10.638  18.400  0.00  0.00    +0.000 A 
ATOM     26  C   UNL     1      -1.300   9.811  17.331  0.00  0.00    +0.000 A 
ATOM     27  C   UNL     1      -2.589   9.879  16.804  0.00  0.00    +0.000 A 
ATOM     28  C   UNL     1      -3.508  10.785  17.326  0.00  0.00    +0.000 A 
ATOM     29  C   UNL     1      -3.140  11.622  18.378  0.00  0.00    +0.000 A 
ATOM     30  C   UNL     1      -1.849  11.552  18.908  0.00  0.00    +0.000 A 
ENDBRANCH  24  25
ENDBRANCH   1  24
TORSDOF 4
ENDMDL
MODEL 4
REMARK VINA RESULT:      -9.0      2.546      4.161
REMARK  Name = 
REMARK  7 active torsions:
REMARK  status: ('A' for Active; 'I' for Inactive)
REMARK    1  A    between atoms: C_1  and  C_2
REMARK    2  A    between atoms: C_2  and  N_3
REMARK    3  A    between atoms: C_2  and  C_24
REMARK    4  A    between atoms: C_8  and  N_9
REMARK    5  A    between atoms: C_13  and  C_14
REMARK    6  A    between atoms: C_13  and  C_15
REMARK    7  A    between atoms: C_16  and  C_17
REMARK                            x       y       z     vdW  Elec       q    Type
REMARK                         _______ _______ _______ _____ _____    ______ ____
ROOT
ATOM      1  N   UNL     1       1.075   9.816  18.068  0.00  0.00    +0.000 N 
ATOM      2  C   UNL     1       1.685   8.811  18.766  0.00  0.00    +0.000 A 
ATOM      3  N   UNL     1       1.250   8.434  19.972  0.00  0.00    +0.000 NA
ATOM      4  C   UNL     1       1.789   7.310  20.483  0.00  0.00    +0.000 A 
ATOM      5  C   UNL     1       2.750   6.568  19.846  0.00  0.00    +0.000 A 
ATOM      6  C   UNL     1       3.181   7.075  18.643  0.00  0.00    +0.000 A 
ATOM      7  N   UNL     1       2.665   8.191  18.106  0.00  0.00    +0.000 NA
ATOM      8  H   UNL     1       1.540   9.988  17.190  0.00  0.00    +0.000 HD
ENDROOT
BRANCH   6   9
ATOM      9  N   UNL     1       4.134   6.407  17.867  0.00  0.00    +0.000 N 
ATOM     10  C   UNL     1       5.137   7.038  17.161  0.00  0.00    +0.000 C 
ATOM     11  O   UNL     1       5.409   8.225  17.147  0.00  0.00    +0.000 OA
ATOM     12  O   UNL     1       5.842   6.103  16.442  0.00  0.00    +0.000 OA
ATOM     13  C   UNL     1       5.341   4.786  16.790  0.00  0.00    +0.000 C 
ATOM     14  C   UNL     1       5.371   3.935  15.523  0.00  0.00    +0.000 C 
ATOM     15  C   UNL     1       6.288   4.194  17.840  0.00  0.00    +0.000 C 
ATOM     16  C   UNL     1       3.917   5.114  17.278  0.00  0.00    +0.000 C 
BRANCH  16  17
ATOM     17  C   UNL     1       3.138   4.070  18.047  0.00  0.00    +0.000 A 
ATOM     18  C   UNL     1       3.692   3.334  19.103  0.00  0.00    +0.000 A 
ATOM     19  C   UNL     1       2.946   2.362  19.774  0.00  0.00    +0.000 A 
ATOM     20  C   UNL     1       1.622   2.127  19.417  0.00  0.00    +0.000 A 
ATOM     21  C   UNL     1       1.040   2.868  18.394  0.00  0.00    +0.000 A 
ATOM     22  C   UNL     1       1.793   3.829  17.712  0.00  0.00    +0.000 A 
ENDBRANCH  16  17
ENDBRANCH   6   9
BRANCH   1  24
ATOM     23  C   UNL     1       1.104  12.229  18.314  0.00  0.00    +0.000 C 
ATOM     24  C   UNL     1       0.422  10.920  18.731  0.00  0.00    +0.000 C 
BRANCH  24  25
ATOM     25  C   UNL     1      -1.054  10.863  18.368  0.00  0.00    +0.000 A 
ATOM     26  C   UNL     1      -1.472   9.959  17.375  0.00  0.00    +0.000 A 
ATOM     27  C   UNL     1      -2.807   9.902  16.974  0.00  0.00    +0.000 A 
ATOM     28  C   UNL     1      -3.744  10.757  17.549  0.00  0.00    +0.000 A 
ATOM     29  C   UNL     1      -3.348  11.667  18.528  0.00  0.00    +0.000 A 
ATOM     30  C   UNL     1      -2.011  11.722  18.931  0.00  0.00    +0.000 A 
ENDBRANCH  24  25
ENDBRANCH   1  24
TORSDOF 4
ENDMDL
MODEL 5
REMARK VINA RESULT:      -8.9      2.607      4.597
REMARK  Name = 
REMARK  7 active torsions:
REMARK  status: ('A' for Active; 'I' for Inactive)
REMARK    1  A    between atoms: C_1  and  C_2
REMARK    2  A    between atoms: C_2  and  N_3
REMARK    3  A    between atoms: C_2  and  C_24
REMARK    4  A    between atoms: C_8  and  N_9
REMARK    5  A    between atoms: C_13  and  C_14
REMARK    6  A    between atoms: C_13  and  C_15
REMARK    7  A    between atoms: C_16  and  C_17
REMARK                            x       y       z     vdW  Elec       q    Type
REMARK                         _______ _______ _______ _____ _____    ______ ____
ROOT
ATOM      1  N   UNL     1      -0.151  10.020  18.310  0.00  0.00    +0.000 N 
ATOM      2  C   UNL     1       0.628   9.252  19.130  0.00  0.00    +0.000 A 
ATOM      3  N   UNL     1       0.387   9.163  20.441  0.00  0.00    +0.000 NA
ATOM      4  C   UNL     1       1.083   8.231  21.121  0.00  0.00    +0.000 A 
ATOM      5  C   UNL     1       2.014   7.405  20.544  0.00  0.00    +0.000 A 
ATOM      6  C   UNL     1       2.241   7.620  19.205  0.00  0.00    +0.000 A 
ATOM      7  N   UNL     1       1.565   8.539  18.500  0.00  0.00    +0.000 NA
ATOM      8  H   UNL     1       0.180   9.993  17.358  0.00  0.00    +0.000 HD
ENDROOT
BRANCH   6   9
ATOM      9  N   UNL     1       3.140   6.832  18.480  0.00  0.00    +0.000 N 
ATOM     10  C   UNL     1       4.008   7.325  17.529  0.00  0.00    +0.000 C 
ATOM     11  O   UNL     1       4.196   8.487  17.219  0.00  0.00    +0.000 OA
ATOM     12  O   UNL     1       4.685   6.279  16.949  0.00  0.00    +0.000 OA
ATOM     13  C   UNL     1       4.318   5.057  17.640  0.00  0.00    +0.000 C 
ATOM     14  C   UNL     1       4.258   3.942  16.599  0.00  0.00    +0.000 C 
ATOM     15  C   UNL     1       5.420   4.756  18.665  0.00  0.00    +0.000 C 
ATOM     16  C   UNL     1       2.942   5.431  18.223  0.00  0.00    +0.000 C 
BRANCH  16  17
ATOM     17  C   UNL     1       2.331   4.559  19.297  0.00  0.00    +0.000 A 
ATOM     18  C   UNL     1       2.811   4.526  20.614  0.00  0.00    +0.000 A 
ATOM     19  C   UNL     1       2.232   3.689  21.571  0.00  0.00    +0.000 A 
ATOM     20  C   UNL     1       1.144   2.889  21.235  0.00  0.00    +0.000 A 
ATOM     21  C   UNL     1       0.629   2.929  19.944  0.00  0.00    +0.000 A 
ATOM     22  C   UNL     1       1.220   3.754  18.982  0.00  0.00    +0.000 A 
ENDBRANCH  16  17
ENDBRANCH   6   9
BRANCH   1  24
ATOM     23  C   UNL     1       0.108  12.422  18.520  0.00  0.00    +0.000 C 
ATOM     24  C   UNL     1      -0.806  11.217  18.779  0.00  0.00    +0.000 C 
BRANCH  24  25
ATOM     25  C   UNL     1      -2.149  11.312  18.072  0.00  0.00    +0.000 A 
ATOM     26  C   UNL     1      -3.268  11.750  18.802  0.00  0.00    +0.000 A 
ATOM     27  C   UNL     1      -4.530  11.809  18.212  0.00  0.00    +0.000 A 
ATOM     28  C   UNL     1      -4.699  11.417  16.887  0.00  0.00    +0.000 A 
ATOM     29  C   UNL     1      -3.604  10.968  16.149  0.00  0.00    +0.000 A 
ATOM     30  C   UNL     1      -2.339  10.912  16.740  0.00  0.00    +0.000 A 
ENDBRANCH  24  25
ENDBRANCH   1  24
TORSDOF 4
ENDMDL
MODEL 6
REMARK VINA RESULT:      -8.8      2.442      4.172
REMARK  Name = 
REMARK  7 active torsions:
REMARK  status: ('A' for Active; 'I' for Inactive)
REMARK    1  A    between atoms: C_1  and  C_2
REMARK    2  A    between atoms: C_2  and  N_3
REMARK    3  A    between atoms: C_2  and  C_24
REMARK    4  A    between atoms: C_8  and  N_9
REMARK    5  A    between atoms: C_13  and  C_14
REMARK    6  A    between atoms: C_13  and  C_15
REMARK    7  A    between atoms: C_16  and  C_17
REMARK                            x       y       z     vdW  Elec       q    Type
REMARK                         _______ _______ _______ _____ _____    ______ ____
ROOT
ATOM      1  N   UNL     1       0.492   9.965  18.232  0.00  0.00    +0.000 N 
ATOM      2  C   UNL     1       1.142   9.060  19.024  0.00  0.00    +0.000 A 
ATOM      3  N   UNL     1       0.784   8.862  20.297  0.00  0.00    +0.000 NA
ATOM      4  C   UNL     1       1.351   7.814  20.926  0.00  0.00    +0.000 A 
ATOM      5  C   UNL     1       2.264   6.976  20.340  0.00  0.00    +0.000 A 
ATOM      6  C   UNL     1       2.618   7.302  19.052  0.00  0.00    +0.000 A 
ATOM      7  N   UNL     1       2.073   8.339  18.397  0.00  0.00    +0.000 NA
ATOM      8  H   UNL     1       0.901  10.006  17.311  0.00  0.00    +0.000 HD
ENDROOT
BRANCH   6   9
ATOM      9  N   UNL     1       3.515   6.519  18.320  0.00  0.00    +0.000 N 
ATOM     10  C   UNL     1       4.452   7.028  17.445  0.00  0.00    +0.000 C 
ATOM     11  O   UNL     1       4.709   8.197  17.222  0.00  0.00    +0.000 OA
ATOM     12  O   UNL     1       5.109   5.990  16.830  0.00  0.00    +0.000 OA
ATOM     13  C   UNL     1       4.652   4.746  17.421  0.00  0.00    +0.000 C 
ATOM     14  C   UNL     1       4.593   3.704  16.306  0.00  0.00    +0.000 C 
ATOM     15  C   UNL     1       5.686   4.327  18.474  0.00  0.00    +0.000 C 
ATOM     16  C   UNL     1       3.267   5.149  17.961  0.00  0.00    +0.000 C 
BRANCH  16  17
ATOM     17  C   UNL     1       2.563   4.241  18.946  0.00  0.00    +0.000 A 
ATOM     18  C   UNL     1       1.271   3.743  18.730  0.00  0.00    +0.000 A 
ATOM     19  C   UNL     1       0.647   2.925  19.675  0.00  0.00    +0.000 A 
ATOM     20  C   UNL     1       1.315   2.569  20.843  0.00  0.00    +0.000 A 
ATOM     21  C   UNL     1       2.611   3.024  21.063  0.00  0.00    +0.000 A 
ATOM     22  C   UNL     1       3.229   3.856  20.125  0.00  0.00    +0.000 A 
ENDBRANCH  16  17
ENDBRANCH   6   9
BRANCH   1  24
ATOM     23  C   UNL     1       0.570  12.388  18.154  0.00  0.00    +0.000 C 
ATOM     24  C   UNL     1      -0.110  11.160  18.773  0.00  0.00    +0.000 C 
BRANCH  24  25
ATOM     25  C   UNL     1      -1.603  11.087  18.492  0.00  0.00    +0.000 A 
ATOM     26  C   UNL     1      -2.072  10.137  17.567  0.00  0.00    +0.000 A 
ATOM     27  C   UNL     1      -3.425  10.062  17.241  0.00  0.00    +0.000 A 
ATOM     28  C   UNL     1      -4.332  10.944  17.822  0.00  0.00    +0.000 A 
ATOM     29  C   UNL     1      -3.887  11.900  18.733  0.00  0.00    +0.000 A 
ATOM     30  C   UNL     1      -2.531  11.974  19.062  0.00  0.00    +0.000 A 
ENDBRANCH  24  25
ENDBRANCH   1  24
TORSDOF 4
ENDMDL
MODEL 7
REMARK VINA RESULT:      -8.7      3.160      8.433
REMARK  Name = 
REMARK  7 active torsions:
REMARK  status: ('A' for Active; 'I' for Inactive)
REMARK    1  A    between atoms: C_1  and  C_2
REMARK    2  A    between atoms: C_2  and  N_3
REMARK    3  A    between atoms: C_2  and  C_24
REMARK    4  A    between atoms: C_8  and  N_9
REMARK    5  A    between atoms: C_13  and  C_14
REMARK    6  A    between atoms: C_13  and  C_15
REMARK    7  A    between atoms: C_16  and  C_17
REMARK                            x       y       z     vdW  Elec       q    Type
REMARK                         _______ _______ _______ _____ _____    ______ ____
ROOT
ATOM      1  N   UNL     1       5.308   4.692  14.555  0.00  0.00    +0.000 N 
ATOM      2  C   UNL     1       5.571   4.537  15.888  0.00  0.00    +0.000 A 
ATOM      3  N   UNL     1       6.654   5.078  16.454  0.00  0.00    +0.000 NA
ATOM      4  C   UNL     1       6.716   5.036  17.799  0.00  0.00    +0.000 A 
ATOM      5  C   UNL     1       5.751   4.464  18.589  0.00  0.00    +0.000 A 
ATOM      6  C   UNL     1       4.711   3.874  17.911  0.00  0.00    +0.000 A 
ATOM      7  N   UNL     1       4.620   3.898  16.572  0.00  0.00    +0.000 NA
ATOM      8  H   UNL     1       4.468   4.204  14.288  0.00  0.00    +0.000 HD
ENDROOT
BRANCH   6   9
ATOM      9  N   UNL     1       3.641   3.280  18.586  0.00  0.00    +0.000 N 
ATOM     10  C   UNL     1       3.492   1.920  18.755  0.00  0.00    +0.000 C 
ATOM     11  O   UNL     1       4.265   1.037  18.431  0.00  0.00    +0.000 OA
ATOM     12  O   UNL     1       2.295   1.670  19.383  0.00  0.00    +0.000 OA
ATOM     13  C   UNL     1       1.693   2.940  19.742  0.00  0.00    +0.000 C 
ATOM     14  C   UNL     1       0.183   2.799  19.563  0.00  0.00    +0.000 C 
ATOM     15  C   UNL     1       2.022   3.209  21.216  0.00  0.00    +0.000 C 
ATOM     16  C   UNL     1       2.347   3.893  18.723  0.00  0.00    +0.000 C 
BRANCH  16  17
ATOM     17  C   UNL     1       2.254   5.387  18.939  0.00  0.00    +0.000 A 
ATOM     18  C   UNL     1       2.400   6.316  17.900  0.00  0.00    +0.000 A 
ATOM     19  C   UNL     1       2.329   7.690  18.146  0.00  0.00    +0.000 A 
ATOM     20  C   UNL     1       2.085   8.158  19.433  0.00  0.00    +0.000 A 
ATOM     21  C   UNL     1       1.903   7.254  20.475  0.00  0.00    +0.000 A 
ATOM     22  C   UNL     1       1.991   5.881  20.231  0.00  0.00    +0.000 A 
ENDBRANCH  16  17
ENDBRANCH   6   9
BRANCH   1  24
ATOM     23  C   UNL     1       7.709   4.929  14.308  0.00  0.00    +0.000 C 
ATOM     24  C   UNL     1       6.363   4.835  13.580  0.00  0.00    +0.000 C 
BRANCH  24  25
ATOM     25  C   UNL     1       6.269   3.653  12.628  0.00  0.00    +0.000 A 
ATOM     26  C   UNL     1       7.454   3.124  12.087  0.00  0.00    +0.000 A 
ATOM     27  C   UNL     1       7.417   2.071  11.174  0.00  0.00    +0.000 A 
ATOM     28  C   UNL     1       6.195   1.537  10.774  0.00  0.00    +0.000 A 
ATOM     29  C   UNL     1       5.008   2.055  11.290  0.00  0.00    +0.000 A 
ATOM     30  C   UNL     1       5.045   3.108  12.207  0.00  0.00    +0.000 A 
ENDBRANCH  24  25
ENDBRANCH   1  24
TORSDOF 4
ENDMDL
MODEL 8
REMARK VINA RESULT:      -8.7      2.246      3.031
REMARK  Name = 
REMARK  7 active torsions:
REMARK  status: ('A' for Active; 'I' for Inactive)
REMARK    1  A    between atoms: C_1  and  C_2
REMARK    2  A    between atoms: C_2  and  N_3
REMARK    3  A    between atoms: C_2  and  C_24
REMARK    4  A    between atoms: C_8  and  N_9
REMARK    5  A    between atoms: C_13  and  C_14
REMARK    6  A    between atoms: C_13  and  C_15
REMARK    7  A    between atoms: C_16  and  C_17
REMARK                            x       y       z     vdW  Elec       q    Type
REMARK                         _______ _______ _______ _____ _____    ______ ____
ROOT
ATOM      1  N   UNL     1       1.531   9.396  18.099  0.00  0.00    +0.000 N 
ATOM      2  C   UNL     1       1.992   8.309  18.789  0.00  0.00    +0.000 A 
ATOM      3  N   UNL     1       1.831   8.201  20.111  0.00  0.00    +0.000 NA
ATOM      4  C   UNL     1       2.139   7.011  20.661  0.00  0.00    +0.000 A 
ATOM      5  C   UNL     1       2.614   5.941  19.946  0.00  0.00    +0.000 A 
ATOM      6  C   UNL     1       2.810   6.172  18.605  0.00  0.00    +0.000 A 
ATOM      7  N   UNL     1       2.513   7.345  18.027  0.00  0.00    +0.000 NA
ATOM      8  H   UNL     1       1.754   9.329  17.118  0.00  0.00    +0.000 HD
ENDROOT
BRANCH   6   9
ATOM      9  N   UNL     1       3.259   5.163  17.747  0.00  0.00    +0.000 N 
ATOM     10  C   UNL     1       2.450   4.181  17.217  0.00  0.00    +0.000 C 
ATOM     11  O   UNL     1       1.243   4.064  17.330  0.00  0.00    +0.000 OA
ATOM     12  O   UNL     1       3.219   3.304  16.490  0.00  0.00    +0.000 OA
ATOM     13  C   UNL     1       4.578   3.811  16.453  0.00  0.00    +0.000 C 
ATOM     14  C   UNL     1       5.517   2.608  16.518  0.00  0.00    +0.000 C 
ATOM     15  C   UNL     1       4.763   4.546  15.120  0.00  0.00    +0.000 C 
ATOM     16  C   UNL     1       4.616   4.690  17.718  0.00  0.00    +0.000 C 
BRANCH  16  17
ATOM     17  C   UNL     1       5.749   5.675  17.901  0.00  0.00    +0.000 A 
ATOM     18  C   UNL     1       5.831   6.881  17.191  0.00  0.00    +0.000 A 
ATOM     19  C   UNL     1       6.907   7.753  17.373  0.00  0.00    +0.000 A 
ATOM     20  C   UNL     1       7.908   7.448  18.290  0.00  0.00    +0.000 A 
ATOM     21  C   UNL     1       7.832   6.273  19.031  0.00  0.00    +0.000 A 
ATOM     22  C   UNL     1       6.764   5.392  18.835  0.00  0.00    +0.000 A 
ENDBRANCH  16  17
ENDBRANCH   6   9
BRANCH   1  24
ATOM     23  C   UNL     1       2.341  11.674  17.911  0.00  0.00    +0.000 C 
ATOM     24  C   UNL     1       1.451  10.705  18.701  0.00  0.00    +0.000 C 
BRANCH  24  25
ATOM     25  C   UNL     1      -0.015  11.109  18.724  0.00  0.00    +0.000 A 
ATOM     26  C   UNL     1      -0.393  12.239  19.470  0.00  0.00    +0.000 A 
ATOM     27  C   UNL     1      -1.731  12.623  19.561  0.00  0.00    +0.000 A 
ATOM     28  C   UNL     1      -2.715  11.876  18.919  0.00  0.00    +0.000 A 
ATOM     29  C   UNL     1      -2.362  10.746  18.183  0.00  0.00    +0.000 A 
ATOM     30  C   UNL     1      -1.022  10.363  18.090  0.00  0.00    +0.000 A 
ENDBRANCH  24  25
ENDBRANCH   1  24
TORSDOF 4
ENDMDL
MODEL 9
REMARK VINA RESULT:      -8.7      2.894      8.284
REMARK  Name = 
REMARK  7 active torsions:
REMARK  status: ('A' for Active; 'I' for Inactive)
REMARK    1  A    between atoms: C_1  and  C_2
REMARK    2  A    between atoms: C_2  and  N_3
REMARK    3  A    between atoms: C_2  and  C_24
REMARK    4  A    between atoms: C_8  and  N_9
REMARK    5  A    between atoms: C_13  and  C_14
REMARK    6  A    between atoms: C_13  and  C_15
REMARK    7  A    between atoms: C_16  and  C_17
REMARK                            x       y       z     vdW  Elec       q    Type
REMARK                         _______ _______ _______ _____ _____    ______ ____
ROOT
ATOM      1  N   UNL     1       5.366   4.788  14.863  0.00  0.00    +0.000 N 
ATOM      2  C   UNL     1       5.603   4.830  16.209  0.00  0.00    +0.000 A 
ATOM      3  N   UNL     1       6.602   5.557  16.721  0.00  0.00    +0.000 NA
ATOM      4  C   UNL     1       6.626   5.690  18.061  0.00  0.00    +0.000 A 
ATOM      5  C   UNL     1       5.706   5.115  18.900  0.00  0.00    +0.000 A 
ATOM      6  C   UNL     1       4.758   4.332  18.285  0.00  0.00    +0.000 A 
ATOM      7  N   UNL     1       4.707   4.179  16.953  0.00  0.00    +0.000 NA
ATOM      8  H   UNL     1       4.593   4.179  14.646  0.00  0.00    +0.000 HD
ENDROOT
BRANCH   6   9
ATOM      9  N   UNL     1       3.739   3.710  19.012  0.00  0.00    +0.000 N 
ATOM     10  C   UNL     1       3.690   2.356  19.273  0.00  0.00    +0.000 C 
ATOM     11  O   UNL     1       4.522   1.511  18.999  0.00  0.00    +0.000 OA
ATOM     12  O   UNL     1       2.520   2.064  19.932  0.00  0.00    +0.000 OA
ATOM     13  C   UNL     1       1.831   3.310  20.213  0.00  0.00    +0.000 C 
ATOM     14  C   UNL     1       0.334   3.049  20.064  0.00  0.00    +0.000 C 
ATOM     15  C   UNL     1       2.151   3.700  21.662  0.00  0.00    +0.000 C 
ATOM     16  C   UNL     1       2.406   4.236  19.125  0.00  0.00    +0.000 C 
BRANCH  16  17
ATOM     17  C   UNL     1       2.207   5.731  19.242  0.00  0.00    +0.000 A 
ATOM     18  C   UNL     1       1.863   6.360  20.447  0.00  0.00    +0.000 A 
ATOM     19  C   UNL     1       1.666   7.741  20.509  0.00  0.00    +0.000 A 
ATOM     20  C   UNL     1       1.834   8.523  19.370  0.00  0.00    +0.000 A 
ATOM     21  C   UNL     1       2.208   7.926  18.171  0.00  0.00    +0.000 A 
ATOM     22  C   UNL     1       2.389   6.542  18.106  0.00  0.00    +0.000 A 
ENDBRANCH  16  17
ENDBRANCH   6   9
BRANCH   1  24
ATOM     23  C   UNL     1       7.777   4.757  14.605  0.00  0.00    +0.000 C 
ATOM     24  C   UNL     1       6.428   4.927  13.896  0.00  0.00    +0.000 C 
BRANCH  24  25
ATOM     25  C   UNL     1       6.185   3.901  12.800  0.00  0.00    +0.000 A 
ATOM     26  C   UNL     1       4.861   3.620  12.417  0.00  0.00    +0.000 A 
ATOM     27  C   UNL     1       4.585   2.654  11.450  0.00  0.00    +0.000 A 
ATOM     28  C   UNL     1       5.625   1.941  10.860  0.00  0.00    +0.000 A 
ATOM     29  C   UNL     1       6.943   2.196  11.234  0.00  0.00    +0.000 A 
ATOM     30  C   UNL     1       7.221   3.166  12.200  0.00  0.00    +0.000 A 
ENDBRANCH  24  25
ENDBRANCH   1  24
TORSDOF 4
ENDMDL
