MODEL 1
REMARK VINA RESULT:      -7.5      0.000      0.000
REMARK  Name = 
REMARK  16 active torsions:
REMARK  status: ('A' for Active; 'I' for Inactive)
REMARK    1  A    between atoms: C_1  and  C_2
REMARK    2  A    between atoms: C_2  and  C_3
REMARK    3  A    between atoms: C_2  and  C_4
REMARK    4  A    between atoms: C_8  and  C_9
REMARK    5  A    between atoms: C_9  and  C_10
REMARK    6  A    between atoms: C_9  and  C_11
REMARK    7  A    between atoms: C_12  and  N_13
REMARK    8  A    between atoms: C_14  and  C_16
REMARK    9  A    between atoms: C_16  and  C_17
REMARK   10  A    between atoms: C_17  and  C_18
REMARK   11  A    between atoms: C_18  and  C_19
REMARK   12  A    between atoms: C_19  and  C_20
REMARK   13  A    between atoms: C_20  and  S_21
REMARK   14  A    between atoms: S_21  and  C_22
REMARK   15  A    between atoms: C_25  and  C_26
REMARK   16  A    between atoms: C_26  and  O_28
REMARK                            x       y       z     vdW  Elec       q    Type
REMARK                         _______ _______ _______ _____ _____    ______ ____
ROOT
ATOM      1  C   UNL     1       1.233   7.802  21.253  0.00  0.00    +0.000 C 
ENDROOT
BRANCH   1   2
ATOM      2  C   UNL     1       1.933   8.335  19.999  0.00  0.00    +0.000 C 
BRANCH   2   4
ATOM      3  N   UNL     1       3.210   6.294  19.668  0.00  0.00    +0.000 N 
ATOM      4  C   UNL     1       2.356   7.208  19.065  0.00  0.00    +0.000 C 
ATOM      5  O   UNL     1       1.972   7.165  17.901  0.00  0.00    +0.000 OA
ATOM      6  H   UNL     1       3.109   6.224  20.674  0.00  0.00    +0.000 HD
BRANCH   3  12
ATOM      7  C   UNL     1       4.524   5.000  18.029  0.00  0.00    +0.000 A 
ATOM      8  C   UNL     1       4.655   3.802  17.300  0.00  0.00    +0.000 A 
ATOM      9  C   UNL     1       3.844   2.705  17.564  0.00  0.00    +0.000 A 
ATOM     10  C   UNL     1       2.893   2.771  18.574  0.00  0.00    +0.000 A 
ATOM     11  C   UNL     1       2.726   3.936  19.345  0.00  0.00    +0.000 A 
ATOM     12  C   UNL     1       3.534   5.063  19.047  0.00  0.00    +0.000 A 
BRANCH   7  14
ATOM     13  C   UNL     1       6.962   5.594  17.913  0.00  0.00    +0.000 C 
ATOM     14  C   UNL     1       5.526   6.121  17.759  0.00  0.00    +0.000 C 
ATOM     15  C   UNL     1       5.363   6.765  16.377  0.00  0.00    +0.000 C 
ENDBRANCH   7  14
BRANCH  11  16
ATOM     16  C   UNL     1       1.667   3.964  20.449  0.00  0.00    +0.000 C 
ATOM     17  C   UNL     1       0.407   3.209  20.016  0.00  0.00    +0.000 C 
ATOM     18  C   UNL     1       2.165   3.412  21.795  0.00  0.00    +0.000 C 
ENDBRANCH  11  16
ENDBRANCH   3  12
ENDBRANCH   2   4
ENDBRANCH   1   2
BRANCH   1  19
ATOM     19  C   UNL     1      -0.087   8.521  21.578  0.00  0.00    +0.000 C 
BRANCH  19  20
ATOM     20  C   UNL     1       0.066   9.600  22.652  0.00  0.00    +0.000 C 
BRANCH  20  21
ATOM     21  C   UNL     1      -0.633  10.937  22.356  0.00  0.00    +0.000 C 
BRANCH  21  22
ATOM     22  S   UNL     1      -0.233  11.761  20.773  0.00  0.00    +0.000 S 
BRANCH  22  23
ATOM     23  C   UNL     1      -1.740  11.643  19.915  0.00  0.00    +0.000 A 
ATOM     24  N   UNL     1      -1.841  11.081  18.723  0.00  0.00    +0.000 NA
ATOM     25  C   UNL     1      -3.099  11.428  18.307  0.00  0.00    +0.000 A 
ATOM     26  C   UNL     1      -3.724  11.250  17.071  0.00  0.00    +0.000 A 
ATOM     27  C   UNL     1      -5.034  11.741  16.916  0.00  0.00    +0.000 A 
ATOM     28  C   UNL     1      -5.693  12.381  17.977  0.00  0.00    +0.000 A 
ATOM     29  C   UNL     1      -5.068  12.572  19.219  0.00  0.00    +0.000 A 
ATOM     30  C   UNL     1      -3.767  12.094  19.318  0.00  0.00    +0.000 A 
ATOM     31  O   UNL     1      -2.901  12.218  20.368  0.00  0.00    +0.000 OA
BRANCH  26  32
ATOM     32  C   UNL     1      -3.001  10.639  15.937  0.00  0.00    +0.000 C 
ATOM     33  O   UNL     1      -2.877  11.213  14.867  0.00  0.00    +0.000 OA
BRANCH  32  34
ATOM     34  O   UNL     1      -2.458   9.426  16.183  0.00  0.00    +0.000 OA
ATOM     35  H   UNL     1      -2.387   9.197  17.139  0.00  0.00    +0.000 HD
ENDBRANCH  32  34
ENDBRANCH  26  32
ENDBRANCH  22  23
ENDBRANCH  21  22
ENDBRANCH  20  21
ENDBRANCH  19  20
ENDBRANCH   1  19
TORSDOF 12
ENDMDL
MODEL 2
REMARK VINA RESULT:      -7.5      3.306      9.802
REMARK  Name = 
REMARK  16 active torsions:
REMARK  status: ('A' for Active; 'I' for Inactive)
REMARK    1  A    between atoms: C_1  and  C_2
REMARK    2  A    between atoms: C_2  and  C_3
REMARK    3  A    between atoms: C_2  and  C_4
REMARK    4  A    between atoms: C_8  and  C_9
REMARK    5  A    between atoms: C_9  and  C_10
REMARK    6  A    between atoms: C_9  and  C_11
REMARK    7  A    between atoms: C_12  and  N_13
REMARK    8  A    between atoms: C_14  and  C_16
REMARK    9  A    between atoms: C_16  and  C_17
REMARK   10  A    between atoms: C_17  and  C_18
REMARK   11  A    between atoms: C_18  and  C_19
REMARK   12  A    between atoms: C_19  and  C_20
REMARK   13  A    between atoms: C_20  and  S_21
REMARK   14  A    between atoms: S_21  and  C_22
REMARK   15  A    between atoms: C_25  and  C_26
REMARK   16  A    between atoms: C_26  and  O_28
REMARK                            x       y       z     vdW  Elec       q    Type
REMARK                         _______ _______ _______ _____ _____    ______ ____
ROOT
ATOM      1  C   UNL     1       1.795   8.315  17.466  0.00  0.00    +0.000 C 
ENDROOT
BRANCH   1   2
ATOM      2  C   UNL     1       1.952   9.789  17.853  0.00  0.00    +0.000 C 
BRANCH   2   4
ATOM      3  N   UNL     1       1.299  10.935  19.894  0.00  0.00    +0.000 N 
ATOM      4  C   UNL     1       0.833  10.252  18.778  0.00  0.00    +0.000 C 
ATOM      5  O   UNL     1      -0.342  10.006  18.532  0.00  0.00    +0.000 OA
ATOM      6  H   UNL     1       2.190  11.400  19.761  0.00  0.00    +0.000 HD
BRANCH   3  12
ATOM      7  C   UNL     1      -0.246  10.971  21.817  0.00  0.00    +0.000 A 
ATOM      8  C   UNL     1      -1.267  11.661  22.501  0.00  0.00    +0.000 A 
ATOM      9  C   UNL     1      -1.620  12.958  22.152  0.00  0.00    +0.000 A 
ATOM     10  C   UNL     1      -0.951  13.607  21.122  0.00  0.00    +0.000 A 
ATOM     11  C   UNL     1       0.087  12.975  20.412  0.00  0.00    +0.000 A 
ATOM     12  C   UNL     1       0.418  11.638  20.752  0.00  0.00    +0.000 A 
BRANCH   7  14
ATOM     13  C   UNL     1      -0.046   9.514  23.853  0.00  0.00    +0.000 C 
ATOM     14  C   UNL     1       0.163   9.593  22.333  0.00  0.00    +0.000 C 
ATOM     15  C   UNL     1      -0.586   8.441  21.653  0.00  0.00    +0.000 C 
ENDBRANCH   7  14
BRANCH  11  16
ATOM     16  C   UNL     1       0.796  13.727  19.286  0.00  0.00    +0.000 C 
ATOM     17  C   UNL     1      -0.092  14.844  18.730  0.00  0.00    +0.000 C 
ATOM     18  C   UNL     1       2.160  14.307  19.696  0.00  0.00    +0.000 C 
ENDBRANCH  11  16
ENDBRANCH   3  12
ENDBRANCH   2   4
ENDBRANCH   1   2
BRANCH   1  19
ATOM     19  C   UNL     1       2.765   7.375  18.201  0.00  0.00    +0.000 C 
BRANCH  19  20
ATOM     20  C   UNL     1       2.426   7.204  19.683  0.00  0.00    +0.000 C 
BRANCH  20  21
ATOM     21  C   UNL     1       1.584   5.966  20.034  0.00  0.00    +0.000 C 
BRANCH  21  22
ATOM     22  S   UNL     1       2.472   4.495  20.658  0.00  0.00    +0.000 S 
BRANCH  22  23
ATOM     23  C   UNL     1       3.776   4.350  19.518  0.00  0.00    +0.000 A 
ATOM     24  N   UNL     1       4.992   4.805  19.763  0.00  0.00    +0.000 NA
ATOM     25  C   UNL     1       5.616   4.733  18.546  0.00  0.00    +0.000 A 
ATOM     26  C   UNL     1       6.866   5.207  18.141  0.00  0.00    +0.000 A 
ATOM     27  C   UNL     1       7.242   5.013  16.798  0.00  0.00    +0.000 A 
ATOM     28  C   UNL     1       6.389   4.356  15.899  0.00  0.00    +0.000 A 
ATOM     29  C   UNL     1       5.126   3.886  16.296  0.00  0.00    +0.000 A 
ATOM     30  C   UNL     1       4.788   4.121  17.623  0.00  0.00    +0.000 A 
ATOM     31  O   UNL     1       3.604   3.852  18.250  0.00  0.00    +0.000 OA
BRANCH  26  32
ATOM     32  C   UNL     1       7.729   5.959  19.073  0.00  0.00    +0.000 C 
ATOM     33  O   UNL     1       8.266   7.008  18.751  0.00  0.00    +0.000 OA
BRANCH  32  34
ATOM     34  O   UNL     1       7.850   5.426  20.309  0.00  0.00    +0.000 OA
ATOM     35  H   UNL     1       7.852   4.440  20.330  0.00  0.00    +0.000 HD
ENDBRANCH  32  34
ENDBRANCH  26  32
ENDBRANCH  22  23
ENDBRANCH  21  22
ENDBRANCH  20  21
ENDBRANCH  19  20
ENDBRANCH   1  19
TORSDOF 12
ENDMDL
MODEL 3
REMARK VINA RESULT:      -7.5      2.065      3.405
REMARK  Name = 
REMARK  16 active torsions:
REMARK  status: ('A' for Active; 'I' for Inactive)
REMARK    1  A    between atoms: C_1  and  C_2
REMARK    2  A    between atoms: C_2  and  C_3
REMARK    3  A    between atoms: C_2  and  C_4
REMARK    4  A    between atoms: C_8  and  C_9
REMARK    5  A    between atoms: C_9  and  C_10
REMARK    6  A    between atoms: C_9  and  C_11
REMARK    7  A    between atoms: C_12  and  N_13
REMARK    8  A    between atoms: C_14  and  C_16
REMARK    9  A    between atoms: C_16  and  C_17
REMARK   10  A    between atoms: C_17  and  C_18
REMARK   11  A    between atoms: C_18  and  C_19
REMARK   12  A    between atoms: C_19  and  C_20
REMARK   13  A    between atoms: C_20  and  S_21
REMARK   14  A    between atoms: S_21  and  C_22
REMARK   15  A    between atoms: C_25  and  C_26
REMARK   16  A    between atoms: C_26  and  O_28
REMARK                            x       y       z     vdW  Elec       q    Type
REMARK                         _______ _______ _______ _____ _____    ______ ____
ROOT
ATOM      1  C   UNL     1       1.085   7.804  21.234  0.00  0.00    +0.000 C 
ENDROOT
BRANCH   1   2
ATOM      2  C   UNL     1       1.890   8.327  20.039  0.00  0.00    +0.000 C 
BRANCH   2   4
ATOM      3  N   UNL     1       3.236   6.327  19.738  0.00  0.00    +0.000 N 
ATOM      4  C   UNL     1       2.344   7.196  19.125  0.00  0.00    +0.000 C 
ATOM      5  O   UNL     1       1.951   7.115  17.966  0.00  0.00    +0.000 OA
ATOM      6  H   UNL     1       3.147   6.274  20.746  0.00  0.00    +0.000 HD
BRANCH   3  12
ATOM      7  C   UNL     1       4.604   5.042  18.136  0.00  0.00    +0.000 A 
ATOM      8  C   UNL     1       4.775   3.837  17.426  0.00  0.00    +0.000 A 
ATOM      9  C   UNL     1       3.986   2.725  17.693  0.00  0.00    +0.000 A 
ATOM     10  C   UNL     1       3.019   2.782  18.689  0.00  0.00    +0.000 A 
ATOM     11  C   UNL     1       2.813   3.954  19.441  0.00  0.00    +0.000 A 
ATOM     12  C   UNL     1       3.599   5.095  19.138  0.00  0.00    +0.000 A 
BRANCH   7  14
ATOM     13  C   UNL     1       7.020   5.638  17.787  0.00  0.00    +0.000 C 
ATOM     14  C   UNL     1       5.584   6.182  17.865  0.00  0.00    +0.000 C 
ATOM     15  C   UNL     1       5.265   6.969  16.589  0.00  0.00    +0.000 C 
ENDBRANCH   7  14
BRANCH  11  16
ATOM     16  C   UNL     1       1.737   3.971  20.528  0.00  0.00    +0.000 C 
ATOM     17  C   UNL     1       0.422   3.388  20.005  0.00  0.00    +0.000 C 
ATOM     18  C   UNL     1       2.152   3.241  21.817  0.00  0.00    +0.000 C 
ENDBRANCH  11  16
ENDBRANCH   3  12
ENDBRANCH   2   4
ENDBRANCH   1   2
BRANCH   1  19
ATOM     19  C   UNL     1      -0.166   8.639  21.550  0.00  0.00    +0.000 C 
BRANCH  19  20
ATOM     20  C   UNL     1      -0.104   9.317  22.921  0.00  0.00    +0.000 C 
BRANCH  20  21
ATOM     21  C   UNL     1      -1.030  10.531  23.104  0.00  0.00    +0.000 C 
BRANCH  21  22
ATOM     22  S   UNL     1      -0.768  11.962  21.996  0.00  0.00    +0.000 S 
BRANCH  22  23
ATOM     23  C   UNL     1      -2.399  12.446  21.640  0.00  0.00    +0.000 A 
ATOM     24  N   UNL     1      -3.314  12.617  22.578  0.00  0.00    +0.000 NA
ATOM     25  C   UNL     1      -4.483  12.728  21.873  0.00  0.00    +0.000 A 
ATOM     26  C   UNL     1      -5.806  12.778  22.318  0.00  0.00    +0.000 A 
ATOM     27  C   UNL     1      -6.825  12.865  21.352  0.00  0.00    +0.000 A 
ATOM     28  C   UNL     1      -6.518  12.908  19.984  0.00  0.00    +0.000 A 
ATOM     29  C   UNL     1      -5.191  12.848  19.528  0.00  0.00    +0.000 A 
ATOM     30  C   UNL     1      -4.221  12.738  20.516  0.00  0.00    +0.000 A 
ATOM     31  O   UNL     1      -2.873  12.577  20.358  0.00  0.00    +0.000 OA
BRANCH  26  32
ATOM     32  C   UNL     1      -6.127  12.661  23.755  0.00  0.00    +0.000 C 
ATOM     33  O   UNL     1      -7.002  11.913  24.162  0.00  0.00    +0.000 OA
BRANCH  32  34
ATOM     34  O   UNL     1      -5.361  13.407  24.582  0.00  0.00    +0.000 OA
ATOM     35  H   UNL     1      -4.455  13.048  24.734  0.00  0.00    +0.000 HD
ENDBRANCH  32  34
ENDBRANCH  26  32
ENDBRANCH  22  23
ENDBRANCH  21  22
ENDBRANCH  20  21
ENDBRANCH  19  20
ENDBRANCH   1  19
TORSDOF 12
ENDMDL
MODEL 4
REMARK VINA RESULT:      -7.4      1.378      2.598
REMARK  Name = 
REMARK  16 active torsions:
REMARK  status: ('A' for Active; 'I' for Inactive)
REMARK    1  A    between atoms: C_1  and  C_2
REMARK    2  A    between atoms: C_2  and  C_3
REMARK    3  A    between atoms: C_2  and  C_4
REMARK    4  A    between atoms: C_8  and  C_9
REMARK    5  A    between atoms: C_9  and  C_10
REMARK    6  A    between atoms: C_9  and  C_11
REMARK    7  A    between atoms: C_12  and  N_13
REMARK    8  A    between atoms: C_14  and  C_16
REMARK    9  A    between atoms: C_16  and  C_17
REMARK   10  A    between atoms: C_17  and  C_18
REMARK   11  A    between atoms: C_18  and  C_19
REMARK   12  A    between atoms: C_19  and  C_20
REMARK   13  A    between atoms: C_20  and  S_21
REMARK   14  A    between atoms: S_21  and  C_22
REMARK   15  A    between atoms: C_25  and  C_26
REMARK   16  A    between atoms: C_26  and  O_28
REMARK                            x       y       z     vdW  Elec       q    Type
REMARK                         _______ _______ _______ _____ _____    ______ ____
ROOT
ATOM      1  C   UNL     1       0.883   7.790  21.125  0.00  0.00    +0.000 C 
ENDROOT
BRANCH   1   2
ATOM      2  C   UNL     1       1.889   8.296  20.086  0.00  0.00    +0.000 C 
BRANCH   2   4
ATOM      3  N   UNL     1       3.309   6.363  19.701  0.00  0.00    +0.000 N 
ATOM      4  C   UNL     1       2.338   7.186  19.145  0.00  0.00    +0.000 C 
ATOM      5  O   UNL     1       1.876   7.081  18.014  0.00  0.00    +0.000 OA
ATOM      6  H   UNL     1       3.288   6.310  20.712  0.00  0.00    +0.000 HD
BRANCH   3  12
ATOM      7  C   UNL     1       4.524   5.150  17.928  0.00  0.00    +0.000 A 
ATOM      8  C   UNL     1       4.698   3.939  17.229  0.00  0.00    +0.000 A 
ATOM      9  C   UNL     1       4.079   2.769  17.650  0.00  0.00    +0.000 A 
ATOM     10  C   UNL     1       3.284   2.774  18.790  0.00  0.00    +0.000 A 
ATOM     11  C   UNL     1       3.084   3.951  19.536  0.00  0.00    +0.000 A 
ATOM     12  C   UNL     1       3.692   5.148  19.080  0.00  0.00    +0.000 A 
BRANCH   7  14
ATOM     13  C   UNL     1       6.803   6.207  17.874  0.00  0.00    +0.000 C 
ATOM     14  C   UNL     1       5.328   6.367  17.472  0.00  0.00    +0.000 C 
ATOM     15  C   UNL     1       5.234   6.628  15.964  0.00  0.00    +0.000 C 
ENDBRANCH   7  14
BRANCH  11  16
ATOM     16  C   UNL     1       2.202   3.910  20.784  0.00  0.00    +0.000 C 
ATOM     17  C   UNL     1       0.722   4.028  20.412  0.00  0.00    +0.000 C 
ATOM     18  C   UNL     1       2.420   2.659  21.653  0.00  0.00    +0.000 C 
ENDBRANCH  11  16
ENDBRANCH   3  12
ENDBRANCH   2   4
ENDBRANCH   1   2
BRANCH   1  19
ATOM     19  C   UNL     1       0.053   8.907  21.779  0.00  0.00    +0.000 C 
BRANCH  19  20
ATOM     20  C   UNL     1       0.564  10.310  21.441  0.00  0.00    +0.000 C 
BRANCH  20  21
ATOM     21  C   UNL     1      -0.502  11.304  20.950  0.00  0.00    +0.000 C 
BRANCH  21  22
ATOM     22  S   UNL     1      -0.647  11.556  19.145  0.00  0.00    +0.000 S 
BRANCH  22  23
ATOM     23  C   UNL     1      -2.349  11.854  18.959  0.00  0.00    +0.000 A 
ATOM     24  N   UNL     1      -3.083  12.419  19.902  0.00  0.00    +0.000 NA
ATOM     25  C   UNL     1      -4.369  12.226  19.470  0.00  0.00    +0.000 A 
ATOM     26  C   UNL     1      -5.585  12.472  20.112  0.00  0.00    +0.000 A 
ATOM     27  C   UNL     1      -6.770  12.144  19.428  0.00  0.00    +0.000 A 
ATOM     28  C   UNL     1      -6.729  11.594  18.139  0.00  0.00    +0.000 A 
ATOM     29  C   UNL     1      -5.511  11.334  17.491  0.00  0.00    +0.000 A 
ATOM     30  C   UNL     1      -4.367  11.650  18.213  0.00  0.00    +0.000 A 
ATOM     31  O   UNL     1      -3.064  11.426  17.867  0.00  0.00    +0.000 OA
BRANCH  26  32
ATOM     32  C   UNL     1      -5.620  12.986  21.496  0.00  0.00    +0.000 C 
ATOM     33  O   UNL     1      -6.323  13.932  21.814  0.00  0.00    +0.000 OA
BRANCH  32  34
ATOM     34  O   UNL     1      -4.854  12.314  22.383  0.00  0.00    +0.000 OA
ATOM     35  H   UNL     1      -4.315  12.889  22.975  0.00  0.00    +0.000 HD
ENDBRANCH  32  34
ENDBRANCH  26  32
ENDBRANCH  22  23
ENDBRANCH  21  22
ENDBRANCH  20  21
ENDBRANCH  19  20
ENDBRANCH   1  19
TORSDOF 12
ENDMDL
MODEL 5
REMARK VINA RESULT:      -7.2      2.640     10.374
REMARK  Name = 
REMARK  16 active torsions:
REMARK  status: ('A' for Active; 'I' for Inactive)
REMARK    1  A    between atoms: C_1  and  C_2
REMARK    2  A    between atoms: C_2  and  C_3
REMARK    3  A    between atoms: C_2  and  C_4
REMARK    4  A    between atoms: C_8  and  C_9
REMARK    5  A    between atoms: C_9  and  C_10
REMARK    6  A    between atoms: C_9  and  C_11
REMARK    7  A    between atoms: C_12  and  N_13
REMARK    8  A    between atoms: C_14  and  C_16
REMARK    9  A    between atoms: C_16  and  C_17
REMARK   10  A    between atoms: C_17  and  C_18
REMARK   11  A    between atoms: C_18  and  C_19
REMARK   12  A    between atoms: C_19  and  C_20
REMARK   13  A    between atoms: C_20  and  S_21
REMARK   14  A    between atoms: S_21  and  C_22
REMARK   15  A    between atoms: C_25  and  C_26
REMARK   16  A    between atoms: C_26  and  O_28
REMARK                            x       y       z     vdW  Elec       q    Type
REMARK                         _______ _______ _______ _____ _____    ______ ____
ROOT
ATOM      1  C   UNL     1       1.123  11.681  20.055  0.00  0.00    +0.000 C 
ENDROOT
BRANCH   1   2
ATOM      2  C   UNL     1      -0.002  12.706  19.880  0.00  0.00    +0.000 C 
BRANCH   2   4
ATOM      3  N   UNL     1      -2.409  12.825  19.572  0.00  0.00    +0.000 N 
ATOM      4  C   UNL     1      -1.373  12.089  20.130  0.00  0.00    +0.000 C 
ATOM      5  O   UNL     1      -1.500  11.058  20.782  0.00  0.00    +0.000 OA
ATOM      6  H   UNL     1      -2.146  13.377  18.764  0.00  0.00    +0.000 HD
BRANCH   3  12
ATOM      7  C   UNL     1      -4.162  11.588  18.354  0.00  0.00    +0.000 A 
ATOM      8  C   UNL     1      -5.533  11.285  18.239  0.00  0.00    +0.000 A 
ATOM      9  C   UNL     1      -6.441  11.674  19.215  0.00  0.00    +0.000 A 
ATOM     10  C   UNL     1      -6.002  12.361  20.339  0.00  0.00    +0.000 A 
ATOM     11  C   UNL     1      -4.642  12.680  20.516  0.00  0.00    +0.000 A 
ATOM     12  C   UNL     1      -3.726  12.309  19.498  0.00  0.00    +0.000 A 
BRANCH   7  14
ATOM     13  C   UNL     1      -2.760   9.611  17.692  0.00  0.00    +0.000 C 
ATOM     14  C   UNL     1      -3.210  11.027  17.299  0.00  0.00    +0.000 C 
ATOM     15  C   UNL     1      -3.810  11.000  15.889  0.00  0.00    +0.000 C 
ENDBRANCH   7  14
BRANCH  11  16
ATOM     16  C   UNL     1      -4.203  13.437  21.769  0.00  0.00    +0.000 C 
ATOM     17  C   UNL     1      -5.311  14.373  22.260  0.00  0.00    +0.000 C 
ATOM     18  C   UNL     1      -3.755  12.519  22.918  0.00  0.00    +0.000 C 
ENDBRANCH  11  16
ENDBRANCH   3  12
ENDBRANCH   2   4
ENDBRANCH   1   2
BRANCH   1  19
ATOM     19  C   UNL     1       1.426  10.871  18.783  0.00  0.00    +0.000 C 
BRANCH  19  20
ATOM     20  C   UNL     1       1.027   9.398  18.902  0.00  0.00    +0.000 C 
BRANCH  20  21
ATOM     21  C   UNL     1       2.140   8.382  18.597  0.00  0.00    +0.000 C 
BRANCH  21  22
ATOM     22  S   UNL     1       2.141   6.823  19.553  0.00  0.00    +0.000 S 
BRANCH  22  23
ATOM     23  C   UNL     1       3.450   5.949  18.817  0.00  0.00    +0.000 A 
ATOM     24  N   UNL     1       4.672   5.934  19.321  0.00  0.00    +0.000 NA
ATOM     25  C   UNL     1       5.426   5.374  18.324  0.00  0.00    +0.000 A 
ATOM     26  C   UNL     1       6.810   5.227  18.211  0.00  0.00    +0.000 A 
ATOM     27  C   UNL     1       7.318   4.629  17.042  0.00  0.00    +0.000 A 
ATOM     28  C   UNL     1       6.456   4.186  16.028  0.00  0.00    +0.000 A 
ATOM     29  C   UNL     1       5.064   4.339  16.129  0.00  0.00    +0.000 A 
ATOM     30  C   UNL     1       4.610   4.957  17.288  0.00  0.00    +0.000 A 
ATOM     31  O   UNL     1       3.329   5.307  17.609  0.00  0.00    +0.000 OA
BRANCH  26  32
ATOM     32  C   UNL     1       7.715   5.758  19.250  0.00  0.00    +0.000 C 
ATOM     33  O   UNL     1       7.864   5.197  20.324  0.00  0.00    +0.000 OA
BRANCH  32  34
ATOM     34  O   UNL     1       8.390   6.880  18.913  0.00  0.00    +0.000 OA
ATOM     35  H   UNL     1       7.818   7.666  18.749  0.00  0.00    +0.000 HD
ENDBRANCH  32  34
ENDBRANCH  26  32
ENDBRANCH  22  23
ENDBRANCH  21  22
ENDBRANCH  20  21
ENDBRANCH  19  20
ENDBRANCH   1  19
TORSDOF 12
ENDMDL
MODEL 6
REMARK VINA RESULT:      -7.1      2.749     10.079
REMARK  Name = 
REMARK  16 active torsions:
REMARK  status: ('A' for Active; 'I' for Inactive)
REMARK    1  A    between atoms: C_1  and  C_2
REMARK    2  A    between atoms: C_2  and  C_3
REMARK    3  A    between atoms: C_2  and  C_4
REMARK    4  A    between atoms: C_8  and  C_9
REMARK    5  A    between atoms: C_9  and  C_10
REMARK    6  A    between atoms: C_9  and  C_11
REMARK    7  A    between atoms: C_12  and  N_13
REMARK    8  A    between atoms: C_14  and  C_16
REMARK    9  A    between atoms: C_16  and  C_17
REMARK   10  A    between atoms: C_17  and  C_18
REMARK   11  A    between atoms: C_18  and  C_19
REMARK   12  A    between atoms: C_19  and  C_20
REMARK   13  A    between atoms: C_20  and  S_21
REMARK   14  A    between atoms: S_21  and  C_22
REMARK   15  A    between atoms: C_25  and  C_26
REMARK   16  A    between atoms: C_26  and  O_28
REMARK                            x       y       z     vdW  Elec       q    Type
REMARK                         _______ _______ _______ _____ _____    ______ ____
ROOT
ATOM      1  C   UNL     1       1.252   9.420  17.965  0.00  0.00    +0.000 C 
ENDROOT
BRANCH   1   2
ATOM      2  C   UNL     1       1.310   9.904  19.418  0.00  0.00    +0.000 C 
BRANCH   2   4
ATOM      3  N   UNL     1      -0.436  11.591  19.351  0.00  0.00    +0.000 N 
ATOM      4  C   UNL     1      -0.050  10.381  19.911  0.00  0.00    +0.000 C 
ATOM      5  O   UNL     1      -0.692   9.738  20.734  0.00  0.00    +0.000 OA
ATOM      6  H   UNL     1      -0.037  11.780  18.439  0.00  0.00    +0.000 HD
BRANCH   3  12
ATOM      7  C   UNL     1      -2.097  12.913  20.609  0.00  0.00    +0.000 A 
ATOM      8  C   UNL     1      -3.459  13.202  20.828  0.00  0.00    +0.000 A 
ATOM      9  C   UNL     1      -4.446  12.701  19.989  0.00  0.00    +0.000 A 
ATOM     10  C   UNL     1      -4.098  11.913  18.899  0.00  0.00    +0.000 A 
ATOM     11  C   UNL     1      -2.754  11.602  18.622  0.00  0.00    +0.000 A 
ATOM     12  C   UNL     1      -1.754  12.089  19.503  0.00  0.00    +0.000 A 
BRANCH   7  14
ATOM     13  C   UNL     1      -1.144  15.120  21.341  0.00  0.00    +0.000 C 
ATOM     14  C   UNL     1      -1.063  13.594  21.504  0.00  0.00    +0.000 C 
ATOM     15  C   UNL     1      -1.207  13.230  22.987  0.00  0.00    +0.000 C 
ENDBRANCH   7  14
BRANCH  11  16
ATOM     16  C   UNL     1      -2.416  10.731  17.412  0.00  0.00    +0.000 C 
ATOM     17  C   UNL     1      -3.116   9.372  17.503  0.00  0.00    +0.000 C 
ATOM     18  C   UNL     1      -2.747  11.393  16.064  0.00  0.00    +0.000 C 
ENDBRANCH  11  16
ENDBRANCH   3  12
ENDBRANCH   2   4
ENDBRANCH   1   2
BRANCH   1  19
ATOM     19  C   UNL     1       1.839   8.014  17.756  0.00  0.00    +0.000 C 
BRANCH  19  20
ATOM     20  C   UNL     1       2.428   7.414  19.035  0.00  0.00    +0.000 C 
BRANCH  20  21
ATOM     21  C   UNL     1       1.844   6.058  19.462  0.00  0.00    +0.000 C 
BRANCH  21  22
ATOM     22  S   UNL     1       2.989   4.852  20.222  0.00  0.00    +0.000 S 
BRANCH  22  23
ATOM     23  C   UNL     1       4.219   4.705  19.003  0.00  0.00    +0.000 A 
ATOM     24  N   UNL     1       5.318   5.438  19.004  0.00  0.00    +0.000 NA
ATOM     25  C   UNL     1       5.864   5.205  17.770  0.00  0.00    +0.000 A 
ATOM     26  C   UNL     1       6.950   5.808  17.133  0.00  0.00    +0.000 A 
ATOM     27  C   UNL     1       7.274   5.381  15.832  0.00  0.00    +0.000 A 
ATOM     28  C   UNL     1       6.532   4.372  15.200  0.00  0.00    +0.000 A 
ATOM     29  C   UNL     1       5.432   3.768  15.829  0.00  0.00    +0.000 A 
ATOM     30  C   UNL     1       5.134   4.239  17.102  0.00  0.00    +0.000 A 
ATOM     31  O   UNL     1       4.081   3.895  17.902  0.00  0.00    +0.000 OA
BRANCH  26  32
ATOM     32  C   UNL     1       7.685   6.917  17.775  0.00  0.00    +0.000 C 
ATOM     33  O   UNL     1       7.802   8.008  17.239  0.00  0.00    +0.000 OA
BRANCH  32  34
ATOM     34  O   UNL     1       8.178   6.650  19.005  0.00  0.00    +0.000 OA
ATOM     35  H   UNL     1       8.194   5.692  19.239  0.00  0.00    +0.000 HD
ENDBRANCH  32  34
ENDBRANCH  26  32
ENDBRANCH  22  23
ENDBRANCH  21  22
ENDBRANCH  20  21
ENDBRANCH  19  20
ENDBRANCH   1  19
TORSDOF 12
ENDMDL
MODEL 7
REMARK VINA RESULT:      -7.1      2.123      4.447
REMARK  Name = 
REMARK  16 active torsions:
REMARK  status: ('A' for Active; 'I' for Inactive)
REMARK    1  A    between atoms: C_1  and  C_2
REMARK    2  A    between atoms: C_2  and  C_3
REMARK    3  A    between atoms: C_2  and  C_4
REMARK    4  A    between atoms: C_8  and  C_9
REMARK    5  A    between atoms: C_9  and  C_10
REMARK    6  A    between atoms: C_9  and  C_11
REMARK    7  A    between atoms: C_12  and  N_13
REMARK    8  A    between atoms: C_14  and  C_16
REMARK    9  A    between atoms: C_16  and  C_17
REMARK   10  A    between atoms: C_17  and  C_18
REMARK   11  A    between atoms: C_18  and  C_19
REMARK   12  A    between atoms: C_19  and  C_20
REMARK   13  A    between atoms: C_20  and  S_21
REMARK   14  A    between atoms: S_21  and  C_22
REMARK   15  A    between atoms: C_25  and  C_26
REMARK   16  A    between atoms: C_26  and  O_28
REMARK                            x       y       z     vdW  Elec       q    Type
REMARK                         _______ _______ _______ _____ _____    ______ ____
ROOT
ATOM      1  C   UNL     1       1.762   9.883  18.536  0.00  0.00    +0.000 C 
ENDROOT
BRANCH   1   2
ATOM      2  C   UNL     1       1.521   8.563  17.796  0.00  0.00    +0.000 C 
BRANCH   2   4
ATOM      3  N   UNL     1       2.405   6.307  17.625  0.00  0.00    +0.000 N 
ATOM      4  C   UNL     1       2.243   7.400  18.465  0.00  0.00    +0.000 C 
ATOM      5  O   UNL     1       2.605   7.462  19.635  0.00  0.00    +0.000 OA
ATOM      6  H   UNL     1       2.437   6.535  16.638  0.00  0.00    +0.000 HD
BRANCH   3  12
ATOM      7  C   UNL     1       2.767   4.182  18.826  0.00  0.00    +0.000 A 
ATOM      8  C   UNL     1       3.697   3.244  19.318  0.00  0.00    +0.000 A 
ATOM      9  C   UNL     1       5.043   3.324  18.988  0.00  0.00    +0.000 A 
ATOM     10  C   UNL     1       5.494   4.331  18.143  0.00  0.00    +0.000 A 
ATOM     11  C   UNL     1       4.610   5.288  17.610  0.00  0.00    +0.000 A 
ATOM     12  C   UNL     1       3.242   5.220  17.980  0.00  0.00    +0.000 A 
BRANCH   7  14
ATOM     13  C   UNL     1       0.870   2.536  18.745  0.00  0.00    +0.000 C 
ATOM     14  C   UNL     1       1.288   3.961  19.139  0.00  0.00    +0.000 C 
ATOM     15  C   UNL     1       0.933   4.210  20.610  0.00  0.00    +0.000 C 
ENDBRANCH   7  14
BRANCH  11  16
ATOM     16  C   UNL     1       5.149   6.379  16.685  0.00  0.00    +0.000 C 
ATOM     17  C   UNL     1       6.395   7.037  17.283  0.00  0.00    +0.000 C 
ATOM     18  C   UNL     1       5.458   5.883  15.262  0.00  0.00    +0.000 C 
ENDBRANCH  11  16
ENDBRANCH   3  12
ENDBRANCH   2   4
ENDBRANCH   1   2
BRANCH   1  19
ATOM     19  C   UNL     1       0.481  10.516  19.105  0.00  0.00    +0.000 C 
BRANCH  19  20
ATOM     20  C   UNL     1       0.380  12.018  18.827  0.00  0.00    +0.000 C 
BRANCH  20  21
ATOM     21  C   UNL     1      -0.981  12.506  18.304  0.00  0.00    +0.000 C 
BRANCH  21  22
ATOM     22  S   UNL     1      -2.074  11.266  17.520  0.00  0.00    +0.000 S 
BRANCH  22  23
ATOM     23  C   UNL     1      -3.594  11.582  18.302  0.00  0.00    +0.000 A 
ATOM     24  N   UNL     1      -3.691  12.276  19.422  0.00  0.00    +0.000 NA
ATOM     25  C   UNL     1      -4.983  12.065  19.823  0.00  0.00    +0.000 A 
ATOM     26  C   UNL     1      -5.632  12.419  21.008  0.00  0.00    +0.000 A 
ATOM     27  C   UNL     1      -6.979  12.039  21.162  0.00  0.00    +0.000 A 
ATOM     28  C   UNL     1      -7.649  11.334  20.152  0.00  0.00    +0.000 A 
ATOM     29  C   UNL     1      -7.001  10.966  18.962  0.00  0.00    +0.000 A 
ATOM     30  C   UNL     1      -5.666  11.339  18.864  0.00  0.00    +0.000 A 
ATOM     31  O   UNL     1      -4.779  11.041  17.867  0.00  0.00    +0.000 OA
BRANCH  26  32
ATOM     32  C   UNL     1      -4.902  13.099  22.097  0.00  0.00    +0.000 C 
ATOM     33  O   UNL     1      -4.774  14.313  22.127  0.00  0.00    +0.000 OA
BRANCH  32  34
ATOM     34  O   UNL     1      -4.425  12.290  23.068  0.00  0.00    +0.000 OA
ATOM     35  H   UNL     1      -3.514  12.511  23.372  0.00  0.00    +0.000 HD
ENDBRANCH  32  34
ENDBRANCH  26  32
ENDBRANCH  22  23
ENDBRANCH  21  22
ENDBRANCH  20  21
ENDBRANCH  19  20
ENDBRANCH   1  19
TORSDOF 12
ENDMDL
MODEL 8
REMARK VINA RESULT:      -7.1      1.312      3.223
REMARK  Name = 
REMARK  16 active torsions:
REMARK  status: ('A' for Active; 'I' for Inactive)
REMARK    1  A    between atoms: C_1  and  C_2
REMARK    2  A    between atoms: C_2  and  C_3
REMARK    3  A    between atoms: C_2  and  C_4
REMARK    4  A    between atoms: C_8  and  C_9
REMARK    5  A    between atoms: C_9  and  C_10
REMARK    6  A    between atoms: C_9  and  C_11
REMARK    7  A    between atoms: C_12  and  N_13
REMARK    8  A    between atoms: C_14  and  C_16
REMARK    9  A    between atoms: C_16  and  C_17
REMARK   10  A    between atoms: C_17  and  C_18
REMARK   11  A    between atoms: C_18  and  C_19
REMARK   12  A    between atoms: C_19  and  C_20
REMARK   13  A    between atoms: C_20  and  S_21
REMARK   14  A    between atoms: S_21  and  C_22
REMARK   15  A    between atoms: C_25  and  C_26
REMARK   16  A    between atoms: C_26  and  O_28
REMARK                            x       y       z     vdW  Elec       q    Type
REMARK                         _______ _______ _______ _____ _____    ______ ____
ROOT
ATOM      1  C   UNL     1       0.606   9.335  19.616  0.00  0.00    +0.000 C 
ENDROOT
BRANCH   1   2
ATOM      2  C   UNL     1       1.589   8.803  18.568  0.00  0.00    +0.000 C 
BRANCH   2   4
ATOM      3  N   UNL     1       2.506   6.633  17.977  0.00  0.00    +0.000 N 
ATOM      4  C   UNL     1       2.256   7.511  19.022  0.00  0.00    +0.000 C 
ATOM      5  O   UNL     1       2.507   7.303  20.205  0.00  0.00    +0.000 OA
ATOM      6  H   UNL     1       2.627   7.076  17.074  0.00  0.00    +0.000 HD
BRANCH   3  12
ATOM      7  C   UNL     1       2.822   4.345  18.845  0.00  0.00    +0.000 A 
ATOM      8  C   UNL     1       3.731   3.321  19.179  0.00  0.00    +0.000 A 
ATOM      9  C   UNL     1       5.075   3.414  18.843  0.00  0.00    +0.000 A 
ATOM     10  C   UNL     1       5.544   4.522  18.149  0.00  0.00    +0.000 A 
ATOM     11  C   UNL     1       4.681   5.570  17.777  0.00  0.00    +0.000 A 
ATOM     12  C   UNL     1       3.316   5.484  18.154  0.00  0.00    +0.000 A 
BRANCH   7  14
ATOM     13  C   UNL     1       0.910   2.724  18.665  0.00  0.00    +0.000 C 
ATOM     14  C   UNL     1       1.341   4.119  19.146  0.00  0.00    +0.000 C 
ATOM     15  C   UNL     1       0.989   4.280  20.629  0.00  0.00    +0.000 C 
ENDBRANCH   7  14
BRANCH  11  16
ATOM     16  C   UNL     1       5.240   6.771  17.014  0.00  0.00    +0.000 C 
ATOM     17  C   UNL     1       6.698   7.035  17.401  0.00  0.00    +0.000 C 
ATOM     18  C   UNL     1       5.125   6.639  15.486  0.00  0.00    +0.000 C 
ENDBRANCH  11  16
ENDBRANCH   3  12
ENDBRANCH   2   4
ENDBRANCH   1   2
BRANCH   1  19
ATOM     19  C   UNL     1       1.167  10.488  20.464  0.00  0.00    +0.000 C 
BRANCH  19  20
ATOM     20  C   UNL     1       0.199  10.961  21.550  0.00  0.00    +0.000 C 
BRANCH  20  21
ATOM     21  C   UNL     1      -0.076  12.473  21.583  0.00  0.00    +0.000 C 
BRANCH  21  22
ATOM     22  S   UNL     1      -0.390  13.305  19.985  0.00  0.00    +0.000 S 
BRANCH  22  23
ATOM     23  C   UNL     1      -1.885  12.574  19.486  0.00  0.00    +0.000 A 
ATOM     24  N   UNL     1      -2.019  11.931  18.340  0.00  0.00    +0.000 NA
ATOM     25  C   UNL     1      -3.372  11.755  18.223  0.00  0.00    +0.000 A 
ATOM     26  C   UNL     1      -4.133  11.270  17.157  0.00  0.00    +0.000 A 
ATOM     27  C   UNL     1      -5.531  11.226  17.309  0.00  0.00    +0.000 A 
ATOM     28  C   UNL     1      -6.139  11.649  18.500  0.00  0.00    +0.000 A 
ATOM     29  C   UNL     1      -5.383  12.148  19.572  0.00  0.00    +0.000 A 
ATOM     30  C   UNL     1      -4.010  12.196  19.368  0.00  0.00    +0.000 A 
ATOM     31  O   UNL     1      -3.052  12.708  20.199  0.00  0.00    +0.000 OA
BRANCH  26  32
ATOM     32  C   UNL     1      -3.493  10.891  15.881  0.00  0.00    +0.000 C 
ATOM     33  O   UNL     1      -4.001  10.082  15.120  0.00  0.00    +0.000 OA
BRANCH  32  34
ATOM     34  O   UNL     1      -2.334  11.529  15.602  0.00  0.00    +0.000 OA
ATOM     35  H   UNL     1      -2.445  12.385  15.125  0.00  0.00    +0.000 HD
ENDBRANCH  32  34
ENDBRANCH  26  32
ENDBRANCH  22  23
ENDBRANCH  21  22
ENDBRANCH  20  21
ENDBRANCH  19  20
ENDBRANCH   1  19
TORSDOF 12
ENDMDL
MODEL 9
REMARK VINA RESULT:      -7.0      3.390      9.625
REMARK  Name = 
REMARK  16 active torsions:
REMARK  status: ('A' for Active; 'I' for Inactive)
REMARK    1  A    between atoms: C_1  and  C_2
REMARK    2  A    between atoms: C_2  and  C_3
REMARK    3  A    between atoms: C_2  and  C_4
REMARK    4  A    between atoms: C_8  and  C_9
REMARK    5  A    between atoms: C_9  and  C_10
REMARK    6  A    between atoms: C_9  and  C_11
REMARK    7  A    between atoms: C_12  and  N_13
REMARK    8  A    between atoms: C_14  and  C_16
REMARK    9  A    between atoms: C_16  and  C_17
REMARK   10  A    between atoms: C_17  and  C_18
REMARK   11  A    between atoms: C_18  and  C_19
REMARK   12  A    between atoms: C_19  and  C_20
REMARK   13  A    between atoms: C_20  and  S_21
REMARK   14  A    between atoms: S_21  and  C_22
REMARK   15  A    between atoms: C_25  and  C_26
REMARK   16  A    between atoms: C_26  and  O_28
REMARK                            x       y       z     vdW  Elec       q    Type
REMARK                         _______ _______ _______ _____ _____    ______ ____
ROOT
ATOM      1  C   UNL     1       2.115   8.226  17.996  0.00  0.00    +0.000 C 
ENDROOT
BRANCH   1   2
ATOM      2  C   UNL     1       2.127   9.752  18.133  0.00  0.00    +0.000 C 
BRANCH   2   4
ATOM      3  N   UNL     1       1.212  10.805  20.122  0.00  0.00    +0.000 N 
ATOM      4  C   UNL     1       0.903  10.263  18.882  0.00  0.00    +0.000 C 
ATOM      5  O   UNL     1      -0.224  10.164  18.406  0.00  0.00    +0.000 OA
ATOM      6  H   UNL     1       2.150  11.180  20.195  0.00  0.00    +0.000 HD
BRANCH   3  12
ATOM      7  C   UNL     1      -0.048  12.884  20.549  0.00  0.00    +0.000 A 
ATOM      8  C   UNL     1      -0.842  13.622  21.449  0.00  0.00    +0.000 A 
ATOM      9  C   UNL     1      -1.324  13.051  22.620  0.00  0.00    +0.000 A 
ATOM     10  C   UNL     1      -1.040  11.724  22.914  0.00  0.00    +0.000 A 
ATOM     11  C   UNL     1      -0.263  10.933  22.047  0.00  0.00    +0.000 A 
ATOM     12  C   UNL     1       0.253  11.533  20.870  0.00  0.00    +0.000 A 
BRANCH   7  14
ATOM     13  C   UNL     1      -0.457  14.836  19.022  0.00  0.00    +0.000 C 
ATOM     14  C   UNL     1       0.348  13.543  19.229  0.00  0.00    +0.000 C 
ATOM     15  C   UNL     1       1.846  13.851  19.127  0.00  0.00    +0.000 C 
ENDBRANCH   7  14
BRANCH  11  16
ATOM     16  C   UNL     1       0.024   9.475  22.411  0.00  0.00    +0.000 C 
ATOM     17  C   UNL     1      -0.695   8.521  21.453  0.00  0.00    +0.000 C 
ATOM     18  C   UNL     1       1.522   9.134  22.454  0.00  0.00    +0.000 C 
ENDBRANCH  11  16
ENDBRANCH   3  12
ENDBRANCH   2   4
ENDBRANCH   1   2
BRANCH   1  19
ATOM     19  C   UNL     1       1.846   7.487  19.317  0.00  0.00    +0.000 C 
BRANCH  19  20
ATOM     20  C   UNL     1       2.714   6.240  19.494  0.00  0.00    +0.000 C 
BRANCH  20  21
ATOM     21  C   UNL     1       2.006   5.019  20.105  0.00  0.00    +0.000 C 
BRANCH  21  22
ATOM     22  S   UNL     1       2.942   3.449  20.168  0.00  0.00    +0.000 S 
BRANCH  22  23
ATOM     23  C   UNL     1       4.188   3.725  18.988  0.00  0.00    +0.000 A 
ATOM     24  N   UNL     1       5.328   4.326  19.280  0.00  0.00    +0.000 NA
ATOM     25  C   UNL     1       5.887   4.571  18.054  0.00  0.00    +0.000 A 
ATOM     26  C   UNL     1       7.021   5.310  17.709  0.00  0.00    +0.000 A 
ATOM     27  C   UNL     1       7.349   5.419  16.344  0.00  0.00    +0.000 A 
ATOM     28  C   UNL     1       6.563   4.796  15.363  0.00  0.00    +0.000 A 
ATOM     29  C   UNL     1       5.415   4.061  15.701  0.00  0.00    +0.000 A 
ATOM     30  C   UNL     1       5.117   4.001  17.057  0.00  0.00    +0.000 A 
ATOM     31  O   UNL     1       4.027   3.434  17.655  0.00  0.00    +0.000 OA
BRANCH  26  32
ATOM     32  C   UNL     1       7.805   6.020  18.739  0.00  0.00    +0.000 C 
ATOM     33  O   UNL     1       8.132   7.189  18.608  0.00  0.00    +0.000 OA
BRANCH  32  34
ATOM     34  O   UNL     1       8.097   5.300  19.845  0.00  0.00    +0.000 OA
ATOM     35  H   UNL     1       8.621   5.787  20.523  0.00  0.00    +0.000 HD
ENDBRANCH  32  34
ENDBRANCH  26  32
ENDBRANCH  22  23
ENDBRANCH  21  22
ENDBRANCH  20  21
ENDBRANCH  19  20
ENDBRANCH   1  19
TORSDOF 12
ENDMDL
