MODEL 1
REMARK VINA RESULT:      -8.0      0.000      0.000
REMARK  Name = 
REMARK  7 active torsions:
REMARK  status: ('A' for Active; 'I' for Inactive)
REMARK    1  A    between atoms: C_3  and  C_4
REMARK    2  A    between atoms: C_4  and  C_5
REMARK    3  A    between atoms: C_4  and  C_11
REMARK    4  A    between atoms: C_12  and  O_13
REMARK    5  A    between atoms: C_17  and  O_18
REMARK    6  A    between atoms: C_24  and  O_25
REMARK    7  A    between atoms: C_29  and  O_30
REMARK                            x       y       z     vdW  Elec       q    Type
REMARK                         _______ _______ _______ _____ _____    ______ ____
ROOT
ATOM      1  C   UNL     1       0.557  11.065  18.786  0.00  0.00    +0.000 C 
ENDROOT
BRANCH   1   4
ATOM      2  O   UNL     1       2.454   9.473  17.524  0.00  0.00    +0.000 OA
ATOM      3  C   UNL     1       1.913   8.937  18.485  0.00  0.00    +0.000 A 
ATOM      4  C   UNL     1       0.952   9.685  19.332  0.00  0.00    +0.000 A 
ATOM      5  C   UNL     1       0.582   9.111  20.498  0.00  0.00    +0.000 A 
ATOM      6  O   UNL     1       1.009   7.861  20.922  0.00  0.00    +0.000 OA
ATOM      7  C   UNL     1       1.787   7.101  20.095  0.00  0.00    +0.000 A 
ATOM      8  C   UNL     1       2.132   5.820  20.531  0.00  0.00    +0.000 A 
ATOM      9  C   UNL     1       2.954   5.029  19.732  0.00  0.00    +0.000 A 
ATOM     10  C   UNL     1       3.424   5.492  18.506  0.00  0.00    +0.000 A 
ATOM     11  C   UNL     1       3.073   6.769  18.070  0.00  0.00    +0.000 A 
ATOM     12  C   UNL     1       2.257   7.568  18.876  0.00  0.00    +0.000 A 
BRANCH   5  13
ATOM     13  O   UNL     1      -0.259   9.752  21.388  0.00  0.00    +0.000 OA
ATOM     14  H   UNL     1      -0.364  10.687  21.099  0.00  0.00    +0.000 HD
ENDBRANCH   5  13
BRANCH   9  15
ATOM     15  O   UNL     1       3.338   3.781  20.123  0.00  0.00    +0.000 OA
ATOM     16  H   UNL     1       2.809   3.513  20.893  0.00  0.00    +0.000 HD
ENDBRANCH   9  15
ENDBRANCH   1   4
BRANCH   1  17
ATOM     17  C   UNL     1       1.409  12.179  19.387  0.00  0.00    +0.000 A 
ATOM     18  C   UNL     1       1.346  12.609  20.672  0.00  0.00    +0.000 A 
ATOM     19  O   UNL     1       2.059  13.704  21.157  0.00  0.00    +0.000 OA
ATOM     20  C   UNL     1       2.600  14.578  20.254  0.00  0.00    +0.000 A 
ATOM     21  C   UNL     1       2.990  15.841  20.697  0.00  0.00    +0.000 A 
ATOM     22  C   UNL     1       3.545  16.735  19.781  0.00  0.00    +0.000 A 
ATOM     23  C   UNL     1       3.718  16.384  18.443  0.00  0.00    +0.000 A 
ATOM     24  C   UNL     1       3.354  15.109  18.013  0.00  0.00    +0.000 A 
ATOM     25  C   UNL     1       2.795  14.218  18.930  0.00  0.00    +0.000 A 
ATOM     26  C   UNL     1       2.437  12.854  18.550  0.00  0.00    +0.000 A 
ATOM     27  O   UNL     1       3.032  12.317  17.627  0.00  0.00    +0.000 OA
BRANCH  18  28
ATOM     28  O   UNL     1       0.557  11.998  21.629  0.00  0.00    +0.000 OA
ATOM     29  H   UNL     1      -0.396  12.135  21.469  0.00  0.00    +0.000 HD
ENDBRANCH  18  28
BRANCH  22  30
ATOM     30  O   UNL     1       3.947  17.981  20.159  0.00  0.00    +0.000 OA
ATOM     31  H   UNL     1       3.216  18.605  20.017  0.00  0.00    +0.000 HD
ENDBRANCH  22  30
ENDBRANCH   1  17
BRANCH   1  32
ATOM     32  C   UNL     1      -0.968  11.232  18.820  0.00  0.00    +0.000 A 
ATOM     33  C   UNL     1      -1.777  10.479  17.967  0.00  0.00    +0.000 A 
ATOM     34  C   UNL     1      -3.154  10.675  17.998  0.00  0.00    +0.000 A 
ATOM     35  C   UNL     1      -3.692  11.620  18.862  0.00  0.00    +0.000 A 
ATOM     36  C   UNL     1      -2.828  12.319  19.684  0.00  0.00    +0.000 A 
ATOM     37  N   UNL     1      -1.488  12.130  19.706  0.00  0.00    +0.000 NA
ENDBRANCH   1  32
TORSDOF 7
ENDMDL
MODEL 2
REMARK VINA RESULT:      -7.9      1.368      7.346
REMARK  Name = 
REMARK  7 active torsions:
REMARK  status: ('A' for Active; 'I' for Inactive)
REMARK    1  A    between atoms: C_3  and  C_4
REMARK    2  A    between atoms: C_4  and  C_5
REMARK    3  A    between atoms: C_4  and  C_11
REMARK    4  A    between atoms: C_12  and  O_13
REMARK    5  A    between atoms: C_17  and  O_18
REMARK    6  A    between atoms: C_24  and  O_25
REMARK    7  A    between atoms: C_29  and  O_30
REMARK                            x       y       z     vdW  Elec       q    Type
REMARK                         _______ _______ _______ _____ _____    ______ ____
ROOT
ATOM      1  C   UNL     1      -0.259  11.099  19.677  0.00  0.00    +0.000 C 
ENDROOT
BRANCH   1   4
ATOM      2  O   UNL     1       1.605  12.225  21.403  0.00  0.00    +0.000 OA
ATOM      3  C   UNL     1       1.191  12.996  20.545  0.00  0.00    +0.000 A 
ATOM      4  C   UNL     1       0.270  12.526  19.481  0.00  0.00    +0.000 A 
ATOM      5  C   UNL     1       0.048  13.364  18.444  0.00  0.00    +0.000 A 
ATOM      6  O   UNL     1       0.590  14.637  18.340  0.00  0.00    +0.000 OA
ATOM      7  C   UNL     1       1.332  15.138  19.373  0.00  0.00    +0.000 A 
ATOM      8  C   UNL     1       1.795  16.450  19.258  0.00  0.00    +0.000 A 
ATOM      9  C   UNL     1       2.586  16.982  20.273  0.00  0.00    +0.000 A 
ATOM     10  C   UNL     1       2.908  16.232  21.401  0.00  0.00    +0.000 A 
ATOM     11  C   UNL     1       2.439  14.924  21.516  0.00  0.00    +0.000 A 
ATOM     12  C   UNL     1       1.654  14.384  20.492  0.00  0.00    +0.000 A 
BRANCH   5  13
ATOM     13  O   UNL     1      -0.743  12.998  17.372  0.00  0.00    +0.000 OA
ATOM     14  H   UNL     1      -1.266  12.205  17.627  0.00  0.00    +0.000 HD
ENDBRANCH   5  13
BRANCH   9  15
ATOM     15  O   UNL     1       3.081  18.250  20.198  0.00  0.00    +0.000 OA
ATOM     16  H   UNL     1       2.732  18.772  20.939  0.00  0.00    +0.000 HD
ENDBRANCH   9  15
ENDBRANCH   1   4
BRANCH   1  17
ATOM     17  C   UNL     1       0.824  10.052  19.434  0.00  0.00    +0.000 A 
ATOM     18  C   UNL     1       1.640  10.004  18.351  0.00  0.00    +0.000 A 
ATOM     19  O   UNL     1       2.542   8.970  18.108  0.00  0.00    +0.000 OA
ATOM     20  C   UNL     1       2.393   7.801  18.803  0.00  0.00    +0.000 A 
ATOM     21  C   UNL     1       3.032   6.656  18.330  0.00  0.00    +0.000 A 
ATOM     22  C   UNL     1       2.885   5.462  19.036  0.00  0.00    +0.000 A 
ATOM     23  C   UNL     1       2.120   5.400  20.199  0.00  0.00    +0.000 A 
ATOM     24  C   UNL     1       1.509   6.555  20.683  0.00  0.00    +0.000 A 
ATOM     25  C   UNL     1       1.653   7.748  19.973  0.00  0.00    +0.000 A 
ATOM     26  C   UNL     1       1.076   9.000  20.455  0.00  0.00    +0.000 A 
ATOM     27  O   UNL     1       0.893   9.150  21.654  0.00  0.00    +0.000 OA
BRANCH  18  28
ATOM     28  O   UNL     1       1.650  10.985  17.376  0.00  0.00    +0.000 OA
ATOM     29  H   UNL     1       2.512  11.051  16.922  0.00  0.00    +0.000 HD
ENDBRANCH  18  28
BRANCH  22  30
ATOM     30  O   UNL     1       3.489   4.312  18.622  0.00  0.00    +0.000 OA
ATOM     31  H   UNL     1       4.413   4.506  18.391  0.00  0.00    +0.000 HD
ENDBRANCH  22  30
ENDBRANCH   1  17
BRANCH   1  32
ATOM     32  C   UNL     1      -1.599  10.925  18.949  0.00  0.00    +0.000 A 
ATOM     33  C   UNL     1      -1.752   9.926  17.986  0.00  0.00    +0.000 A 
ATOM     34  C   UNL     1      -2.968   9.814  17.320  0.00  0.00    +0.000 A 
ATOM     35  C   UNL     1      -3.996  10.700  17.616  0.00  0.00    +0.000 A 
ATOM     36  C   UNL     1      -3.772  11.656  18.589  0.00  0.00    +0.000 A 
ATOM     37  N   UNL     1      -2.615  11.774  19.280  0.00  0.00    +0.000 NA
ENDBRANCH   1  32
TORSDOF 7
ENDMDL
MODEL 3
REMARK VINA RESULT:      -7.9      3.228      7.721
REMARK  Name = 
REMARK  7 active torsions:
REMARK  status: ('A' for Active; 'I' for Inactive)
REMARK    1  A    between atoms: C_3  and  C_4
REMARK    2  A    between atoms: C_4  and  C_5
REMARK    3  A    between atoms: C_4  and  C_11
REMARK    4  A    between atoms: C_12  and  O_13
REMARK    5  A    between atoms: C_17  and  O_18
REMARK    6  A    between atoms: C_24  and  O_25
REMARK    7  A    between atoms: C_29  and  O_30
REMARK                            x       y       z     vdW  Elec       q    Type
REMARK                         _______ _______ _______ _____ _____    ______ ____
ROOT
ATOM      1  C   UNL     1      -0.931  12.870  20.701  0.00  0.00    +0.000 C 
ENDROOT
BRANCH   1   4
ATOM      2  O   UNL     1      -3.519  12.159  19.979  0.00  0.00    +0.000 OA
ATOM      3  C   UNL     1      -3.430  12.644  21.102  0.00  0.00    +0.000 A 
ATOM      4  C   UNL     1      -2.106  12.980  21.682  0.00  0.00    +0.000 A 
ATOM      5  C   UNL     1      -2.070  13.284  22.998  0.00  0.00    +0.000 A 
ATOM      6  O   UNL     1      -3.188  13.340  23.817  0.00  0.00    +0.000 OA
ATOM      7  C   UNL     1      -4.430  13.164  23.272  0.00  0.00    +0.000 A 
ATOM      8  C   UNL     1      -5.531  13.302  24.118  0.00  0.00    +0.000 A 
ATOM      9  C   UNL     1      -6.810  13.093  23.607  0.00  0.00    +0.000 A 
ATOM     10  C   UNL     1      -7.004  12.763  22.269  0.00  0.00    +0.000 A 
ATOM     11  C   UNL     1      -5.902  12.632  21.424  0.00  0.00    +0.000 A 
ATOM     12  C   UNL     1      -4.617  12.830  21.939  0.00  0.00    +0.000 A 
BRANCH   5  13
ATOM     13  O   UNL     1      -0.881  13.551  23.649  0.00  0.00    +0.000 OA
ATOM     14  H   UNL     1      -0.766  14.527  23.699  0.00  0.00    +0.000 HD
ENDBRANCH   5  13
BRANCH   9  15
ATOM     15  O   UNL     1      -7.917  13.194  24.398  0.00  0.00    +0.000 OA
ATOM     16  H   UNL     1      -8.698  13.322  23.834  0.00  0.00    +0.000 HD
ENDBRANCH   9  15
ENDBRANCH   1   4
BRANCH   1  17
ATOM     17  C   UNL     1      -0.420  11.437  20.586  0.00  0.00    +0.000 A 
ATOM     18  C   UNL     1      -0.067  10.643  21.628  0.00  0.00    +0.000 A 
ATOM     19  O   UNL     1       0.502   9.380  21.480  0.00  0.00    +0.000 OA
ATOM     20  C   UNL     1       1.020   9.039  20.261  0.00  0.00    +0.000 A 
ATOM     21  C   UNL     1       1.898   7.959  20.185  0.00  0.00    +0.000 A 
ATOM     22  C   UNL     1       2.428   7.606  18.944  0.00  0.00    +0.000 A 
ATOM     23  C   UNL     1       2.091   8.309  17.789  0.00  0.00    +0.000 A 
ATOM     24  C   UNL     1       1.189   9.369  17.866  0.00  0.00    +0.000 A 
ATOM     25  C   UNL     1       0.664   9.723  19.110  0.00  0.00    +0.000 A 
ATOM     26  C   UNL     1      -0.320  10.793  19.248  0.00  0.00    +0.000 A 
ATOM     27  O   UNL     1      -1.046  11.062  18.302  0.00  0.00    +0.000 OA
BRANCH  18  28
ATOM     28  O   UNL     1      -0.236  11.020  22.948  0.00  0.00    +0.000 OA
ATOM     29  H   UNL     1       0.493  11.584  23.271  0.00  0.00    +0.000 HD
ENDBRANCH  18  28
BRANCH  22  30
ATOM     30  O   UNL     1       3.288   6.557  18.810  0.00  0.00    +0.000 OA
ATOM     31  H   UNL     1       4.105   6.871  18.387  0.00  0.00    +0.000 HD
ENDBRANCH  22  30
ENDBRANCH   1  17
BRANCH   1  32
ATOM     32  C   UNL     1       0.096  13.976  20.976  0.00  0.00    +0.000 A 
ATOM     33  C   UNL     1      -0.178  15.296  20.613  0.00  0.00    +0.000 A 
ATOM     34  C   UNL     1       0.785  16.272  20.846  0.00  0.00    +0.000 A 
ATOM     35  C   UNL     1       1.999  15.915  21.420  0.00  0.00    +0.000 A 
ATOM     36  C   UNL     1       2.192  14.589  21.763  0.00  0.00    +0.000 A 
ATOM     37  N   UNL     1       1.266  13.620  21.582  0.00  0.00    +0.000 NA
ENDBRANCH   1  32
TORSDOF 7
ENDMDL
MODEL 4
REMARK VINA RESULT:      -7.7      2.209      5.598
REMARK  Name = 
REMARK  7 active torsions:
REMARK  status: ('A' for Active; 'I' for Inactive)
REMARK    1  A    between atoms: C_3  and  C_4
REMARK    2  A    between atoms: C_4  and  C_5
REMARK    3  A    between atoms: C_4  and  C_11
REMARK    4  A    between atoms: C_12  and  O_13
REMARK    5  A    between atoms: C_17  and  O_18
REMARK    6  A    between atoms: C_24  and  O_25
REMARK    7  A    between atoms: C_29  and  O_30
REMARK                            x       y       z     vdW  Elec       q    Type
REMARK                         _______ _______ _______ _____ _____    ______ ____
ROOT
ATOM      1  C   UNL     1       0.353  12.225  20.531  0.00  0.00    +0.000 C 
ENDROOT
BRANCH   1   4
ATOM      2  O   UNL     1       0.026   9.682  21.606  0.00  0.00    +0.000 OA
ATOM      3  C   UNL     1       0.754   9.717  20.620  0.00  0.00    +0.000 A 
ATOM      4  C   UNL     1       0.951  10.978  19.864  0.00  0.00    +0.000 A 
ATOM      5  C   UNL     1       1.569  10.888  18.666  0.00  0.00    +0.000 A 
ATOM      6  O   UNL     1       2.062   9.707  18.130  0.00  0.00    +0.000 OA
ATOM      7  C   UNL     1       2.009   8.559  18.870  0.00  0.00    +0.000 A 
ATOM      8  C   UNL     1       2.583   7.411  18.322  0.00  0.00    +0.000 A 
ATOM      9  C   UNL     1       2.517   6.214  19.030  0.00  0.00    +0.000 A 
ATOM     10  C   UNL     1       1.900   6.150  20.277  0.00  0.00    +0.000 A 
ATOM     11  C   UNL     1       1.333   7.300  20.825  0.00  0.00    +0.000 A 
ATOM     12  C   UNL     1       1.389   8.500  20.109  0.00  0.00    +0.000 A 
BRANCH   5  13
ATOM     13  O   UNL     1       1.745  11.992  17.855  0.00  0.00    +0.000 OA
ATOM     14  H   UNL     1       0.883  12.208  17.432  0.00  0.00    +0.000 HD
ENDBRANCH   5  13
BRANCH   9  15
ATOM     15  O   UNL     1       3.042   5.060  18.528  0.00  0.00    +0.000 OA
ATOM     16  H   UNL     1       2.416   4.678  17.891  0.00  0.00    +0.000 HD
ENDBRANCH   9  15
ENDBRANCH   1   4
BRANCH   1  17
ATOM     17  C   UNL     1      -1.122  12.403  20.183  0.00  0.00    +0.000 A 
ATOM     18  C   UNL     1      -2.118  12.631  21.076  0.00  0.00    +0.000 A 
ATOM     19  O   UNL     1      -3.467  12.677  20.735  0.00  0.00    +0.000 OA
ATOM     20  C   UNL     1      -3.849  12.166  19.524  0.00  0.00    +0.000 A 
ATOM     21  C   UNL     1      -5.196  11.871  19.318  0.00  0.00    +0.000 A 
ATOM     22  C   UNL     1      -5.591  11.352  18.084  0.00  0.00    +0.000 A 
ATOM     23  C   UNL     1      -4.667  11.131  17.064  0.00  0.00    +0.000 A 
ATOM     24  C   UNL     1      -3.327  11.456  17.267  0.00  0.00    +0.000 A 
ATOM     25  C   UNL     1      -2.933  11.972  18.503  0.00  0.00    +0.000 A 
ATOM     26  C   UNL     1      -1.554  12.375  18.759  0.00  0.00    +0.000 A 
ATOM     27  O   UNL     1      -0.851  12.727  17.823  0.00  0.00    +0.000 OA
BRANCH  18  28
ATOM     28  O   UNL     1      -1.883  12.837  22.424  0.00  0.00    +0.000 OA
ATOM     29  H   UNL     1      -2.048  13.760  22.694  0.00  0.00    +0.000 HD
ENDBRANCH  18  28
BRANCH  22  30
ATOM     30  O   UNL     1      -6.894  11.048  17.825  0.00  0.00    +0.000 OA
ATOM     31  H   UNL     1      -6.946  10.580  16.975  0.00  0.00    +0.000 HD
ENDBRANCH  22  30
ENDBRANCH   1  17
BRANCH   1  32
ATOM     32  C   UNL     1       1.284  13.428  20.340  0.00  0.00    +0.000 A 
ATOM     33  C   UNL     1       0.786  14.631  19.836  0.00  0.00    +0.000 A 
ATOM     34  C   UNL     1       1.661  15.694  19.643  0.00  0.00    +0.000 A 
ATOM     35  C   UNL     1       3.009  15.536  19.940  0.00  0.00    +0.000 A 
ATOM     36  C   UNL     1       3.426  14.318  20.445  0.00  0.00    +0.000 A 
ATOM     37  N   UNL     1       2.598  13.274  20.678  0.00  0.00    +0.000 NA
ENDBRANCH   1  32
TORSDOF 7
ENDMDL
MODEL 5
REMARK VINA RESULT:      -7.7      2.745      5.819
REMARK  Name = 
REMARK  7 active torsions:
REMARK  status: ('A' for Active; 'I' for Inactive)
REMARK    1  A    between atoms: C_3  and  C_4
REMARK    2  A    between atoms: C_4  and  C_5
REMARK    3  A    between atoms: C_4  and  C_11
REMARK    4  A    between atoms: C_12  and  O_13
REMARK    5  A    between atoms: C_17  and  O_18
REMARK    6  A    between atoms: C_24  and  O_25
REMARK    7  A    between atoms: C_29  and  O_30
REMARK                            x       y       z     vdW  Elec       q    Type
REMARK                         _______ _______ _______ _____ _____    ______ ____
ROOT
ATOM      1  C   UNL     1       0.345  12.207  21.029  0.00  0.00    +0.000 C 
ENDROOT
BRANCH   1   4
ATOM      2  O   UNL     1       0.609   9.587  21.920  0.00  0.00    +0.000 OA
ATOM      3  C   UNL     1       1.001   9.765  20.772  0.00  0.00    +0.000 A 
ATOM      4  C   UNL     1       0.835  11.082  20.108  0.00  0.00    +0.000 A 
ATOM      5  C   UNL     1       1.072  11.135  18.778  0.00  0.00    +0.000 A 
ATOM      6  O   UNL     1       1.495  10.055  18.018  0.00  0.00    +0.000 OA
ATOM      7  C   UNL     1       1.781   8.869  18.635  0.00  0.00    +0.000 A 
ATOM      8  C   UNL     1       2.275   7.832  17.842  0.00  0.00    +0.000 A 
ATOM      9  C   UNL     1       2.543   6.597  18.429  0.00  0.00    +0.000 A 
ATOM     10  C   UNL     1       2.338   6.389  19.790  0.00  0.00    +0.000 A 
ATOM     11  C   UNL     1       1.850   7.429  20.581  0.00  0.00    +0.000 A 
ATOM     12  C   UNL     1       1.570   8.666  19.991  0.00  0.00    +0.000 A 
BRANCH   5  13
ATOM     13  O   UNL     1       0.886  12.296  18.054  0.00  0.00    +0.000 OA
ATOM     14  H   UNL     1       0.811  13.048  18.685  0.00  0.00    +0.000 HD
ENDBRANCH   5  13
BRANCH   9  15
ATOM     15  O   UNL     1       3.005   5.546  17.694  0.00  0.00    +0.000 OA
ATOM     16  H   UNL     1       3.739   5.849  17.134  0.00  0.00    +0.000 HD
ENDBRANCH   9  15
ENDBRANCH   1   4
BRANCH   1  17
ATOM     17  C   UNL     1      -1.174  12.201  21.174  0.00  0.00    +0.000 A 
ATOM     18  C   UNL     1      -2.059  12.449  20.176  0.00  0.00    +0.000 A 
ATOM     19  O   UNL     1      -3.435  12.546  20.370  0.00  0.00    +0.000 OA
ATOM     20  C   UNL     1      -3.902  12.713  21.645  0.00  0.00    +0.000 A 
ATOM     21  C   UNL     1      -5.207  13.169  21.825  0.00  0.00    +0.000 A 
ATOM     22  C   UNL     1      -5.689  13.339  23.123  0.00  0.00    +0.000 A 
ATOM     23  C   UNL     1      -4.893  13.058  24.232  0.00  0.00    +0.000 A 
ATOM     24  C   UNL     1      -3.599  12.574  24.045  0.00  0.00    +0.000 A 
ATOM     25  C   UNL     1      -3.118  12.408  22.746  0.00  0.00    +0.000 A 
ATOM     26  C   UNL     1      -1.789  11.861  22.486  0.00  0.00    +0.000 A 
ATOM     27  O   UNL     1      -1.282  11.111  23.308  0.00  0.00    +0.000 OA
BRANCH  18  28
ATOM     28  O   UNL     1      -1.673  12.635  18.862  0.00  0.00    +0.000 OA
ATOM     29  H   UNL     1      -0.812  12.220  18.664  0.00  0.00    +0.000 HD
ENDBRANCH  18  28
BRANCH  22  30
ATOM     30  O   UNL     1      -6.957  13.779  23.359  0.00  0.00    +0.000 OA
ATOM     31  H   UNL     1      -7.040  14.692  23.037  0.00  0.00    +0.000 HD
ENDBRANCH  22  30
ENDBRANCH   1  17
BRANCH   1  32
ATOM     32  C   UNL     1       1.023  13.532  20.657  0.00  0.00    +0.000 A 
ATOM     33  C   UNL     1       2.370  13.741  20.958  0.00  0.00    +0.000 A 
ATOM     34  C   UNL     1       2.950  14.964  20.638  0.00  0.00    +0.000 A 
ATOM     35  C   UNL     1       2.178  15.952  20.039  0.00  0.00    +0.000 A 
ATOM     36  C   UNL     1       0.854  15.667  19.762  0.00  0.00    +0.000 A 
ATOM     37  N   UNL     1       0.266  14.478  20.029  0.00  0.00    +0.000 NA
ENDBRANCH   1  32
TORSDOF 7
ENDMDL
MODEL 6
REMARK VINA RESULT:      -7.7      0.963      1.005
REMARK  Name = 
REMARK  7 active torsions:
REMARK  status: ('A' for Active; 'I' for Inactive)
REMARK    1  A    between atoms: C_3  and  C_4
REMARK    2  A    between atoms: C_4  and  C_5
REMARK    3  A    between atoms: C_4  and  C_11
REMARK    4  A    between atoms: C_12  and  O_13
REMARK    5  A    between atoms: C_17  and  O_18
REMARK    6  A    between atoms: C_24  and  O_25
REMARK    7  A    between atoms: C_29  and  O_30
REMARK                            x       y       z     vdW  Elec       q    Type
REMARK                         _______ _______ _______ _____ _____    ______ ____
ROOT
ATOM      1  C   UNL     1       0.182  11.143  18.576  0.00  0.00    +0.000 C 
ENDROOT
BRANCH   1   4
ATOM      2  O   UNL     1       2.254   9.862  17.236  0.00  0.00    +0.000 OA
ATOM      3  C   UNL     1       1.828   9.242  18.205  0.00  0.00    +0.000 A 
ATOM      4  C   UNL     1       0.794   9.832  19.090  0.00  0.00    +0.000 A 
ATOM      5  C   UNL     1       0.549   9.198  20.258  0.00  0.00    +0.000 A 
ATOM      6  O   UNL     1       1.169   8.021  20.651  0.00  0.00    +0.000 OA
ATOM      7  C   UNL     1       2.026   7.392  19.791  0.00  0.00    +0.000 A 
ATOM      8  C   UNL     1       2.570   6.173  20.199  0.00  0.00    +0.000 A 
ATOM      9  C   UNL     1       3.475   5.521  19.365  0.00  0.00    +0.000 A 
ATOM     10  C   UNL     1       3.832   6.059  18.132  0.00  0.00    +0.000 A 
ATOM     11  C   UNL     1       3.283   7.275  17.725  0.00  0.00    +0.000 A 
ATOM     12  C   UNL     1       2.383   7.936  18.566  0.00  0.00    +0.000 A 
BRANCH   5  13
ATOM     13  O   UNL     1      -0.349   9.698  21.181  0.00  0.00    +0.000 OA
ATOM     14  H   UNL     1      -0.907  10.376  20.736  0.00  0.00    +0.000 HD
ENDBRANCH   5  13
BRANCH   9  15
ATOM     15  O   UNL     1       4.051   4.339  19.727  0.00  0.00    +0.000 OA
ATOM     16  H   UNL     1       3.673   4.049  20.573  0.00  0.00    +0.000 HD
ENDBRANCH   9  15
ENDBRANCH   1   4
BRANCH   1  17
ATOM     17  C   UNL     1       0.674  12.349  19.370  0.00  0.00    +0.000 A 
ATOM     18  C   UNL     1       0.166  12.767  20.557  0.00  0.00    +0.000 A 
ATOM     19  O   UNL     1       0.564  13.938  21.198  0.00  0.00    +0.000 OA
ATOM     20  C   UNL     1       1.257  14.871  20.477  0.00  0.00    +0.000 A 
ATOM     21  C   UNL     1       1.345  16.171  20.973  0.00  0.00    +0.000 A 
ATOM     22  C   UNL     1       2.052  17.126  20.242  0.00  0.00    +0.000 A 
ATOM     23  C   UNL     1       2.671  16.800  19.037  0.00  0.00    +0.000 A 
ATOM     24  C   UNL     1       2.605  15.491  18.561  0.00  0.00    +0.000 A 
ATOM     25  C   UNL     1       1.894  14.539  19.291  0.00  0.00    +0.000 A 
ATOM     26  C   UNL     1       1.828  13.143  18.869  0.00  0.00    +0.000 A 
ATOM     27  O   UNL     1       2.737  12.681  18.194  0.00  0.00    +0.000 OA
BRANCH  18  28
ATOM     28  O   UNL     1      -0.807  12.065  21.244  0.00  0.00    +0.000 OA
ATOM     29  H   UNL     1      -0.441  11.556  21.992  0.00  0.00    +0.000 HD
ENDBRANCH  18  28
BRANCH  22  30
ATOM     30  O   UNL     1       2.173  18.410  20.681  0.00  0.00    +0.000 OA
ATOM     31  H   UNL     1       2.203  18.411  21.652  0.00  0.00    +0.000 HD
ENDBRANCH  22  30
ENDBRANCH   1  17
BRANCH   1  32
ATOM     32  C   UNL     1      -1.331  10.981  18.381  0.00  0.00    +0.000 A 
ATOM     33  C   UNL     1      -1.845   9.821  17.799  0.00  0.00    +0.000 A 
ATOM     34  C   UNL     1      -3.219   9.717  17.606  0.00  0.00    +0.000 A 
ATOM     35  C   UNL     1      -4.046  10.769  17.981  0.00  0.00    +0.000 A 
ATOM     36  C   UNL     1      -3.463  11.881  18.561  0.00  0.00    +0.000 A 
ATOM     37  N   UNL     1      -2.136  12.002  18.795  0.00  0.00    +0.000 NA
ENDBRANCH   1  32
TORSDOF 7
ENDMDL
MODEL 7
REMARK VINA RESULT:      -7.5      2.190      7.475
REMARK  Name = 
REMARK  7 active torsions:
REMARK  status: ('A' for Active; 'I' for Inactive)
REMARK    1  A    between atoms: C_3  and  C_4
REMARK    2  A    between atoms: C_4  and  C_5
REMARK    3  A    between atoms: C_4  and  C_11
REMARK    4  A    between atoms: C_12  and  O_13
REMARK    5  A    between atoms: C_17  and  O_18
REMARK    6  A    between atoms: C_24  and  O_25
REMARK    7  A    between atoms: C_29  and  O_30
REMARK                            x       y       z     vdW  Elec       q    Type
REMARK                         _______ _______ _______ _____ _____    ______ ____
ROOT
ATOM      1  C   UNL     1      -0.646  10.347  19.619  0.00  0.00    +0.000 C 
ENDROOT
BRANCH   1   4
ATOM      2  O   UNL     1      -1.298  11.080  22.220  0.00  0.00    +0.000 OA
ATOM      3  C   UNL     1      -0.794  11.981  21.559  0.00  0.00    +0.000 A 
ATOM      4  C   UNL     1      -0.293  11.729  20.186  0.00  0.00    +0.000 A 
ATOM      5  C   UNL     1       0.456  12.699  19.616  0.00  0.00    +0.000 A 
ATOM      6  O   UNL     1       0.743  13.916  20.215  0.00  0.00    +0.000 OA
ATOM      7  C   UNL     1       0.180  14.220  21.423  0.00  0.00    +0.000 A 
ATOM      8  C   UNL     1       0.437  15.485  21.955  0.00  0.00    +0.000 A 
ATOM      9  C   UNL     1      -0.089  15.817  23.201  0.00  0.00    +0.000 A 
ATOM     10  C   UNL     1      -0.873  14.914  23.914  0.00  0.00    +0.000 A 
ATOM     11  C   UNL     1      -1.133  13.653  23.377  0.00  0.00    +0.000 A 
ATOM     12  C   UNL     1      -0.596  13.314  22.131  0.00  0.00    +0.000 A 
BRANCH   5  13
ATOM     13  O   UNL     1       1.023  12.538  18.366  0.00  0.00    +0.000 OA
ATOM     14  H   UNL     1       1.240  11.586  18.243  0.00  0.00    +0.000 HD
ENDBRANCH   5  13
BRANCH   9  15
ATOM     15  O   UNL     1       0.152  17.031  23.774  0.00  0.00    +0.000 OA
ATOM     16  H   UNL     1      -0.672  17.364  24.168  0.00  0.00    +0.000 HD
ENDBRANCH   9  15
ENDBRANCH   1   4
BRANCH   1  17
ATOM     17  C   UNL     1       0.587   9.459  19.476  0.00  0.00    +0.000 A 
ATOM     18  C   UNL     1       1.447   9.474  18.427  0.00  0.00    +0.000 A 
ATOM     19  O   UNL     1       2.498   8.573  18.276  0.00  0.00    +0.000 OA
ATOM     20  C   UNL     1       2.490   7.433  19.033  0.00  0.00    +0.000 A 
ATOM     21  C   UNL     1       3.307   6.370  18.650  0.00  0.00    +0.000 A 
ATOM     22  C   UNL     1       3.304   5.206  19.420  0.00  0.00    +0.000 A 
ATOM     23  C   UNL     1       2.507   5.094  20.557  0.00  0.00    +0.000 A 
ATOM     24  C   UNL     1       1.715   6.171  20.951  0.00  0.00    +0.000 A 
ATOM     25  C   UNL     1       1.716   7.333  20.178  0.00  0.00    +0.000 A 
ATOM     26  C   UNL     1       0.944   8.510  20.565  0.00  0.00    +0.000 A 
ATOM     27  O   UNL     1       0.689   8.695  21.746  0.00  0.00    +0.000 OA
BRANCH  18  28
ATOM     28  O   UNL     1       1.357  10.393  17.397  0.00  0.00    +0.000 OA
ATOM     29  H   UNL     1       2.188  10.890  17.267  0.00  0.00    +0.000 HD
ENDBRANCH  18  28
BRANCH  22  30
ATOM     30  O   UNL     1       4.085   4.137  19.095  0.00  0.00    +0.000 OA
ATOM     31  H   UNL     1       5.009   4.342  19.317  0.00  0.00    +0.000 HD
ENDBRANCH  22  30
ENDBRANCH   1  17
BRANCH   1  32
ATOM     32  C   UNL     1      -1.569  10.493  18.402  0.00  0.00    +0.000 A 
ATOM     33  C   UNL     1      -2.593  11.442  18.405  0.00  0.00    +0.000 A 
ATOM     34  C   UNL     1      -3.434  11.528  17.301  0.00  0.00    +0.000 A 
ATOM     35  C   UNL     1      -3.248  10.666  16.228  0.00  0.00    +0.000 A 
ATOM     36  C   UNL     1      -2.205   9.760  16.293  0.00  0.00    +0.000 A 
ATOM     37  N   UNL     1      -1.348   9.670  17.335  0.00  0.00    +0.000 NA
ENDBRANCH   1  32
TORSDOF 7
ENDMDL
MODEL 8
REMARK VINA RESULT:      -7.4      2.401      5.555
REMARK  Name = 
REMARK  7 active torsions:
REMARK  status: ('A' for Active; 'I' for Inactive)
REMARK    1  A    between atoms: C_3  and  C_4
REMARK    2  A    between atoms: C_4  and  C_5
REMARK    3  A    between atoms: C_4  and  C_11
REMARK    4  A    between atoms: C_12  and  O_13
REMARK    5  A    between atoms: C_17  and  O_18
REMARK    6  A    between atoms: C_24  and  O_25
REMARK    7  A    between atoms: C_29  and  O_30
REMARK                            x       y       z     vdW  Elec       q    Type
REMARK                         _______ _______ _______ _____ _____    ______ ____
ROOT
ATOM      1  C   UNL     1       0.499  11.935  20.529  0.00  0.00    +0.000 C 
ENDROOT
BRANCH   1   4
ATOM      2  O   UNL     1       0.287   9.369  21.577  0.00  0.00    +0.000 OA
ATOM      3  C   UNL     1       0.957   9.435  20.552  0.00  0.00    +0.000 A 
ATOM      4  C   UNL     1       1.084  10.712  19.808  0.00  0.00    +0.000 A 
ATOM      5  C   UNL     1       1.634  10.654  18.575  0.00  0.00    +0.000 A 
ATOM      6  O   UNL     1       2.120   9.493  17.992  0.00  0.00    +0.000 OA
ATOM      7  C   UNL     1       2.134   8.333  18.714  0.00  0.00    +0.000 A 
ATOM      8  C   UNL     1       2.699   7.206  18.114  0.00  0.00    +0.000 A 
ATOM      9  C   UNL     1       2.698   5.996  18.805  0.00  0.00    +0.000 A 
ATOM     10  C   UNL     1       2.155   5.900  20.083  0.00  0.00    +0.000 A 
ATOM     11  C   UNL     1       1.596   7.029  20.682  0.00  0.00    +0.000 A 
ATOM     12  C   UNL     1       1.586   8.241  19.985  0.00  0.00    +0.000 A 
BRANCH   5  13
ATOM     13  O   UNL     1       1.741  11.775  17.775  0.00  0.00    +0.000 OA
ATOM     14  H   UNL     1       0.900  11.882  17.275  0.00  0.00    +0.000 HD
ENDBRANCH   5  13
BRANCH   9  15
ATOM     15  O   UNL     1       3.217   4.863  18.254  0.00  0.00    +0.000 OA
ATOM     16  H   UNL     1       3.962   5.102  17.679  0.00  0.00    +0.000 HD
ENDBRANCH   9  15
ENDBRANCH   1   4
BRANCH   1  17
ATOM     17  C   UNL     1      -1.020  11.997  20.400  0.00  0.00    +0.000 A 
ATOM     18  C   UNL     1      -1.711  11.978  19.233  0.00  0.00    +0.000 A 
ATOM     19  O   UNL     1      -3.090  12.150  19.147  0.00  0.00    +0.000 OA
ATOM     20  C   UNL     1      -3.748  12.671  20.228  0.00  0.00    +0.000 A 
ATOM     21  C   UNL     1      -5.032  13.184  20.046  0.00  0.00    +0.000 A 
ATOM     22  C   UNL     1      -5.708  13.714  21.145  0.00  0.00    +0.000 A 
ATOM     23  C   UNL     1      -5.125  13.734  22.411  0.00  0.00    +0.000 A 
ATOM     24  C   UNL     1      -3.853  13.193  22.592  0.00  0.00    +0.000 A 
ATOM     25  C   UNL     1      -3.177  12.666  21.490  0.00  0.00    +0.000 A 
ATOM     26  C   UNL     1      -1.864  12.044  21.625  0.00  0.00    +0.000 A 
ATOM     27  O   UNL     1      -1.549  11.540  22.694  0.00  0.00    +0.000 OA
BRANCH  18  28
ATOM     28  O   UNL     1      -1.102  11.787  18.005  0.00  0.00    +0.000 OA
ATOM     29  H   UNL     1      -0.232  11.352  18.085  0.00  0.00    +0.000 HD
ENDBRANCH  18  28
BRANCH  22  30
ATOM     30  O   UNL     1      -6.966  14.226  21.027  0.00  0.00    +0.000 OA
ATOM     31  H   UNL     1      -7.315  14.004  20.148  0.00  0.00    +0.000 HD
ENDBRANCH  22  30
ENDBRANCH   1  17
BRANCH   1  32
ATOM     32  C   UNL     1       1.300  13.193  20.174  0.00  0.00    +0.000 A 
ATOM     33  C   UNL     1       2.537  13.433  20.776  0.00  0.00    +0.000 A 
ATOM     34  C   UNL     1       3.226  14.600  20.458  0.00  0.00    +0.000 A 
ATOM     35  C   UNL     1       2.667  15.503  19.563  0.00  0.00    +0.000 A 
ATOM     36  C   UNL     1       1.444  15.191  18.999  0.00  0.00    +0.000 A 
ATOM     37  N   UNL     1       0.762  14.052  19.259  0.00  0.00    +0.000 NA
ENDBRANCH   1  32
TORSDOF 7
ENDMDL
MODEL 9
REMARK VINA RESULT:      -7.4      2.422      7.164
REMARK  Name = 
REMARK  7 active torsions:
REMARK  status: ('A' for Active; 'I' for Inactive)
REMARK    1  A    between atoms: C_3  and  C_4
REMARK    2  A    between atoms: C_4  and  C_5
REMARK    3  A    between atoms: C_4  and  C_11
REMARK    4  A    between atoms: C_12  and  O_13
REMARK    5  A    between atoms: C_17  and  O_18
REMARK    6  A    between atoms: C_24  and  O_25
REMARK    7  A    between atoms: C_29  and  O_30
REMARK                            x       y       z     vdW  Elec       q    Type
REMARK                         _______ _______ _______ _____ _____    ______ ____
ROOT
ATOM      1  C   UNL     1      -0.116  12.532  21.937  0.00  0.00    +0.000 C 
ENDROOT
BRANCH   1   4
ATOM      2  O   UNL     1       2.473  13.296  21.273  0.00  0.00    +0.000 OA
ATOM      3  C   UNL     1       1.601  13.915  20.672  0.00  0.00    +0.000 A 
ATOM      4  C   UNL     1       0.170  13.559  20.833  0.00  0.00    +0.000 A 
ATOM      5  C   UNL     1      -0.704  14.121  19.968  0.00  0.00    +0.000 A 
ATOM      6  O   UNL     1      -0.351  15.029  18.982  0.00  0.00    +0.000 OA
ATOM      7  C   UNL     1       0.941  15.470  18.905  0.00  0.00    +0.000 A 
ATOM      8  C   UNL     1       1.236  16.439  17.945  0.00  0.00    +0.000 A 
ATOM      9  C   UNL     1       2.549  16.886  17.812  0.00  0.00    +0.000 A 
ATOM     10  C   UNL     1       3.562  16.390  18.628  0.00  0.00    +0.000 A 
ATOM     11  C   UNL     1       3.263  15.426  19.590  0.00  0.00    +0.000 A 
ATOM     12  C   UNL     1       1.947  14.968  19.717  0.00  0.00    +0.000 A 
BRANCH   5  13
ATOM     13  O   UNL     1      -2.050  13.808  19.991  0.00  0.00    +0.000 OA
ATOM     14  H   UNL     1      -2.560  14.638  20.132  0.00  0.00    +0.000 HD
ENDBRANCH   5  13
BRANCH   9  15
ATOM     15  O   UNL     1       2.893  17.814  16.875  0.00  0.00    +0.000 OA
ATOM     16  H   UNL     1       2.157  18.439  16.763  0.00  0.00    +0.000 HD
ENDBRANCH   9  15
ENDBRANCH   1   4
BRANCH   1  17
ATOM     17  C   UNL     1       0.142  11.104  21.465  0.00  0.00    +0.000 A 
ATOM     18  C   UNL     1       0.354  10.036  22.275  0.00  0.00    +0.000 A 
ATOM     19  O   UNL     1       0.698   8.769  21.809  0.00  0.00    +0.000 OA
ATOM     20  C   UNL     1       1.151   8.650  20.524  0.00  0.00    +0.000 A 
ATOM     21  C   UNL     1       1.831   7.489  20.159  0.00  0.00    +0.000 A 
ATOM     22  C   UNL     1       2.292   7.362  18.848  0.00  0.00    +0.000 A 
ATOM     23  C   UNL     1       2.081   8.368  17.907  0.00  0.00    +0.000 A 
ATOM     24  C   UNL     1       1.374   9.513  18.270  0.00  0.00    +0.000 A 
ATOM     25  C   UNL     1       0.916   9.640  19.582  0.00  0.00    +0.000 A 
ATOM     26  C   UNL     1       0.131  10.794  20.010  0.00  0.00    +0.000 A 
ATOM     27  O   UNL     1      -0.539  11.398  19.185  0.00  0.00    +0.000 OA
BRANCH  18  28
ATOM     28  O   UNL     1       0.252  10.109  23.652  0.00  0.00    +0.000 OA
ATOM     29  H   UNL     1       0.073  11.016  23.966  0.00  0.00    +0.000 HD
ENDBRANCH  18  28
BRANCH  22  30
ATOM     30  O   UNL     1       2.960   6.248  18.435  0.00  0.00    +0.000 OA
ATOM     31  H   UNL     1       3.044   6.271  17.467  0.00  0.00    +0.000 HD
ENDBRANCH  22  30
ENDBRANCH   1  17
BRANCH   1  32
ATOM     32  C   UNL     1      -1.463  12.833  22.606  0.00  0.00    +0.000 A 
ATOM     33  C   UNL     1      -1.552  13.810  23.600  0.00  0.00    +0.000 A 
ATOM     34  C   UNL     1      -2.781  14.038  24.211  0.00  0.00    +0.000 A 
ATOM     35  C   UNL     1      -3.886  13.285  23.832  0.00  0.00    +0.000 A 
ATOM     36  C   UNL     1      -3.721  12.344  22.833  0.00  0.00    +0.000 A 
ATOM     37  N   UNL     1      -2.550  12.118  22.194  0.00  0.00    +0.000 NA
ENDBRANCH   1  32
TORSDOF 7
ENDMDL
