MODEL 1
REMARK VINA RESULT:      -7.2      0.000      0.000
REMARK  Name = 
REMARK  6 active torsions:
REMARK  status: ('A' for Active; 'I' for Inactive)
REMARK    1  A    between atoms: C_2  and  C_3
REMARK    2  A    between atoms: C_3  and  O_4
REMARK    3  A    between atoms: O_4  and  C_5
REMARK    4  A    between atoms: C_5  and  C_7
REMARK    5  A    between atoms: C_12  and  O_13
REMARK    6  A    between atoms: N_14  and  C_15
REMARK                            x       y       z     vdW  Elec       q    Type
REMARK                         _______ _______ _______ _____ _____    ______ ____
ROOT
ATOM      1  C   UNL     1       5.611   4.369  17.915  0.00  0.00    +0.000 C 
ATOM      2  O   UNL     1       6.444   4.539  18.797  0.00  0.00    +0.000 OA
ENDROOT
BRANCH   1   3
ATOM      3  C   UNL     1       4.263   3.855  18.193  0.00  0.00    +0.000 A 
ATOM      4  C   UNL     1       3.175   4.470  17.564  0.00  0.00    +0.000 A 
ATOM      5  C   UNL     1       1.886   4.004  17.808  0.00  0.00    +0.000 A 
ATOM      6  C   UNL     1       1.732   2.939  18.682  0.00  0.00    +0.000 A 
ATOM      7  N   UNL     1       2.758   2.330  19.316  0.00  0.00    +0.000 NA
ATOM      8  C   UNL     1       3.992   2.809  19.054  0.00  0.00    +0.000 A 
BRANCH   8   9
ATOM      9  O   UNL     1       4.946   2.175  19.777  0.00  0.00    +0.000 OA
ATOM     10  H   UNL     1       4.685   1.247  19.635  0.00  0.00    +0.000 HD
ENDBRANCH   8   9
ENDBRANCH   1   3
BRANCH   1  11
ATOM     11  O   UNL     1       5.735   4.778  16.633  0.00  0.00    +0.000 OA
BRANCH  11  12
ATOM     12  C   UNL     1       6.925   4.355  15.961  0.00  0.00    +0.000 C 
BRANCH  12  14
ATOM     13  O   UNL     1       7.346   5.541  13.892  0.00  0.00    +0.000 OA
ATOM     14  C   UNL     1       6.874   4.549  14.441  0.00  0.00    +0.000 C 
ATOM     15  N   UNL     1       6.228   3.530  13.766  0.00  0.00    +0.000 N 
ATOM     16  H   UNL     1       5.789   2.798  14.323  0.00  0.00    +0.000 HD
BRANCH  15  17
ATOM     17  C   UNL     1       6.099   3.477  12.349  0.00  0.00    +0.000 C 
ATOM     18  C   UNL     1       5.750   2.184  11.664  0.00  0.00    +0.000 C 
ATOM     19  C   UNL     1       4.742   3.294  11.725  0.00  0.00    +0.000 C 
ENDBRANCH  15  17
ENDBRANCH  12  14
ENDBRANCH  11  12
ENDBRANCH   1  11
TORSDOF 6
ENDMDL
MODEL 2
REMARK VINA RESULT:      -6.9      0.898      1.138
REMARK  Name = 
REMARK  6 active torsions:
REMARK  status: ('A' for Active; 'I' for Inactive)
REMARK    1  A    between atoms: C_2  and  C_3
REMARK    2  A    between atoms: C_3  and  O_4
REMARK    3  A    between atoms: O_4  and  C_5
REMARK    4  A    between atoms: C_5  and  C_7
REMARK    5  A    between atoms: C_12  and  O_13
REMARK    6  A    between atoms: N_14  and  C_15
REMARK                            x       y       z     vdW  Elec       q    Type
REMARK                         _______ _______ _______ _____ _____    ______ ____
ROOT
ATOM      1  C   UNL     1       4.757   5.033  16.876  0.00  0.00    +0.000 C 
ATOM      2  O   UNL     1       4.664   6.191  16.488  0.00  0.00    +0.000 OA
ENDROOT
BRANCH   1   3
ATOM      3  C   UNL     1       3.845   4.461  17.876  0.00  0.00    +0.000 A 
ATOM      4  C   UNL     1       2.494   4.821  17.827  0.00  0.00    +0.000 A 
ATOM      5  C   UNL     1       1.608   4.294  18.762  0.00  0.00    +0.000 A 
ATOM      6  C   UNL     1       2.109   3.427  19.721  0.00  0.00    +0.000 A 
ATOM      7  N   UNL     1       3.409   3.069  19.805  0.00  0.00    +0.000 NA
ATOM      8  C   UNL     1       4.238   3.599  18.882  0.00  0.00    +0.000 A 
BRANCH   8   9
ATOM      9  O   UNL     1       5.525   3.228  19.082  0.00  0.00    +0.000 OA
ATOM     10  H   UNL     1       5.926   4.092  19.286  0.00  0.00    +0.000 HD
ENDBRANCH   8   9
ENDBRANCH   1   3
BRANCH   1  11
ATOM     11  O   UNL     1       5.561   4.090  16.336  0.00  0.00    +0.000 OA
BRANCH  11  12
ATOM     12  C   UNL     1       6.814   4.561  15.830  0.00  0.00    +0.000 C 
BRANCH  12  14
ATOM     13  O   UNL     1       7.495   5.491  13.701  0.00  0.00    +0.000 OA
ATOM     14  C   UNL     1       6.877   4.615  14.300  0.00  0.00    +0.000 C 
ATOM     15  N   UNL     1       6.157   3.616  13.672  0.00  0.00    +0.000 N 
ATOM     16  H   UNL     1       5.602   2.993  14.258  0.00  0.00    +0.000 HD
BRANCH  15  17
ATOM     17  C   UNL     1       6.108   3.443  12.259  0.00  0.00    +0.000 C 
ATOM     18  C   UNL     1       5.903   2.077  11.665  0.00  0.00    +0.000 C 
ATOM     19  C   UNL     1       4.805   3.096  11.590  0.00  0.00    +0.000 C 
ENDBRANCH  15  17
ENDBRANCH  12  14
ENDBRANCH  11  12
ENDBRANCH   1  11
TORSDOF 6
ENDMDL
MODEL 3
REMARK VINA RESULT:      -6.6      3.399      6.855
REMARK  Name = 
REMARK  6 active torsions:
REMARK  status: ('A' for Active; 'I' for Inactive)
REMARK    1  A    between atoms: C_2  and  C_3
REMARK    2  A    between atoms: C_3  and  O_4
REMARK    3  A    between atoms: O_4  and  C_5
REMARK    4  A    between atoms: C_5  and  C_7
REMARK    5  A    between atoms: C_12  and  O_13
REMARK    6  A    between atoms: N_14  and  C_15
REMARK                            x       y       z     vdW  Elec       q    Type
REMARK                         _______ _______ _______ _____ _____    ______ ____
ROOT
ATOM      1  C   UNL     1       4.940   4.101  18.598  0.00  0.00    +0.000 C 
ATOM      2  O   UNL     1       5.404   3.438  19.517  0.00  0.00    +0.000 OA
ENDROOT
BRANCH   1   3
ATOM      3  C   UNL     1       5.662   4.312  17.335  0.00  0.00    +0.000 A 
ATOM      4  C   UNL     1       4.924   4.354  16.148  0.00  0.00    +0.000 A 
ATOM      5  C   UNL     1       5.581   4.553  14.937  0.00  0.00    +0.000 A 
ATOM      6  C   UNL     1       6.960   4.696  14.958  0.00  0.00    +0.000 A 
ATOM      7  N   UNL     1       7.705   4.648  16.085  0.00  0.00    +0.000 NA
ATOM      8  C   UNL     1       7.033   4.454  17.239  0.00  0.00    +0.000 A 
BRANCH   8   9
ATOM      9  O   UNL     1       7.866   4.362  18.302  0.00  0.00    +0.000 OA
ATOM     10  H   UNL     1       7.219   4.247  19.021  0.00  0.00    +0.000 HD
ENDBRANCH   8   9
ENDBRANCH   1   3
BRANCH   1  11
ATOM     11  O   UNL     1       3.674   4.569  18.533  0.00  0.00    +0.000 OA
BRANCH  11  12
ATOM     12  C   UNL     1       3.160   5.133  19.743  0.00  0.00    +0.000 C 
BRANCH  12  14
ATOM     13  O   UNL     1       2.405   7.036  18.448  0.00  0.00    +0.000 OA
ATOM     14  C   UNL     1       2.505   6.506  19.552  0.00  0.00    +0.000 C 
ATOM     15  N   UNL     1       2.072   7.090  20.727  0.00  0.00    +0.000 N 
ATOM     16  H   UNL     1       2.286   6.610  21.602  0.00  0.00    +0.000 HD
BRANCH  15  17
ATOM     17  C   UNL     1       1.396   8.343  20.787  0.00  0.00    +0.000 C 
ATOM     18  C   UNL     1       0.055   8.453  21.460  0.00  0.00    +0.000 C 
ATOM     19  C   UNL     1       1.266   9.063  22.102  0.00  0.00    +0.000 C 
ENDBRANCH  15  17
ENDBRANCH  12  14
ENDBRANCH  11  12
ENDBRANCH   1  11
TORSDOF 6
ENDMDL
MODEL 4
REMARK VINA RESULT:      -6.6      2.902      6.024
REMARK  Name = 
REMARK  6 active torsions:
REMARK  status: ('A' for Active; 'I' for Inactive)
REMARK    1  A    between atoms: C_2  and  C_3
REMARK    2  A    between atoms: C_3  and  O_4
REMARK    3  A    between atoms: O_4  and  C_5
REMARK    4  A    between atoms: C_5  and  C_7
REMARK    5  A    between atoms: C_12  and  O_13
REMARK    6  A    between atoms: N_14  and  C_15
REMARK                            x       y       z     vdW  Elec       q    Type
REMARK                         _______ _______ _______ _____ _____    ______ ____
ROOT
ATOM      1  C   UNL     1       5.383   4.180  16.376  0.00  0.00    +0.000 C 
ATOM      2  O   UNL     1       5.880   3.552  15.449  0.00  0.00    +0.000 OA
ENDROOT
BRANCH   1   3
ATOM      3  C   UNL     1       6.195   4.909  17.361  0.00  0.00    +0.000 A 
ATOM      4  C   UNL     1       6.965   5.989  16.917  0.00  0.00    +0.000 A 
ATOM      5  C   UNL     1       7.744   6.698  17.828  0.00  0.00    +0.000 A 
ATOM      6  C   UNL     1       7.729   6.293  19.154  0.00  0.00    +0.000 A 
ATOM      7  N   UNL     1       7.007   5.247  19.613  0.00  0.00    +0.000 NA
ATOM      8  C   UNL     1       6.265   4.585  18.702  0.00  0.00    +0.000 A 
BRANCH   8   9
ATOM      9  O   UNL     1       5.625   3.522  19.244  0.00  0.00    +0.000 OA
ATOM     10  H   UNL     1       5.033   3.976  19.871  0.00  0.00    +0.000 HD
ENDBRANCH   8   9
ENDBRANCH   1   3
BRANCH   1  11
ATOM     11  O   UNL     1       4.065   4.438  16.527  0.00  0.00    +0.000 OA
BRANCH  11  12
ATOM     12  C   UNL     1       3.253   3.319  16.894  0.00  0.00    +0.000 C 
BRANCH  12  14
ATOM     13  O   UNL     1       1.009   3.898  17.596  0.00  0.00    +0.000 OA
ATOM     14  C   UNL     1       2.168   3.657  17.923  0.00  0.00    +0.000 C 
ATOM     15  N   UNL     1       2.623   3.694  19.227  0.00  0.00    +0.000 N 
ATOM     16  H   UNL     1       3.623   3.571  19.384  0.00  0.00    +0.000 HD
BRANCH  15  17
ATOM     17  C   UNL     1       1.785   3.945  20.352  0.00  0.00    +0.000 C 
ATOM     18  C   UNL     1       1.159   2.802  21.104  0.00  0.00    +0.000 C 
ATOM     19  C   UNL     1       2.262   3.599  21.736  0.00  0.00    +0.000 C 
ENDBRANCH  15  17
ENDBRANCH  12  14
ENDBRANCH  11  12
ENDBRANCH   1  11
TORSDOF 6
ENDMDL
MODEL 5
REMARK VINA RESULT:      -6.5      1.992      2.344
REMARK  Name = 
REMARK  6 active torsions:
REMARK  status: ('A' for Active; 'I' for Inactive)
REMARK    1  A    between atoms: C_2  and  C_3
REMARK    2  A    between atoms: C_3  and  O_4
REMARK    3  A    between atoms: O_4  and  C_5
REMARK    4  A    between atoms: C_5  and  C_7
REMARK    5  A    between atoms: C_12  and  O_13
REMARK    6  A    between atoms: N_14  and  C_15
REMARK                            x       y       z     vdW  Elec       q    Type
REMARK                         _______ _______ _______ _____ _____    ______ ____
ROOT
ATOM      1  C   UNL     1       6.889   6.505  17.246  0.00  0.00    +0.000 C 
ATOM      2  O   UNL     1       7.196   7.610  16.817  0.00  0.00    +0.000 OA
ENDROOT
BRANCH   1   3
ATOM      3  C   UNL     1       5.605   6.246  17.912  0.00  0.00    +0.000 A 
ATOM      4  C   UNL     1       4.444   6.786  17.350  0.00  0.00    +0.000 A 
ATOM      5  C   UNL     1       3.214   6.556  17.959  0.00  0.00    +0.000 A 
ATOM      6  C   UNL     1       3.192   5.797  19.119  0.00  0.00    +0.000 A 
ATOM      7  N   UNL     1       4.295   5.272  19.697  0.00  0.00    +0.000 NA
ATOM      8  C   UNL     1       5.468   5.515  19.077  0.00  0.00    +0.000 A 
BRANCH   8   9
ATOM      9  O   UNL     1       6.518   4.999  19.759  0.00  0.00    +0.000 OA
ATOM     10  H   UNL     1       6.824   4.326  19.124  0.00  0.00    +0.000 HD
ENDBRANCH   8   9
ENDBRANCH   1   3
BRANCH   1  11
ATOM     11  O   UNL     1       7.576   5.362  17.025  0.00  0.00    +0.000 OA
BRANCH  11  12
ATOM     12  C   UNL     1       6.892   4.368  16.257  0.00  0.00    +0.000 C 
BRANCH  12  14
ATOM     13  O   UNL     1       7.750   5.404  14.243  0.00  0.00    +0.000 OA
ATOM     14  C   UNL     1       6.967   4.601  14.743  0.00  0.00    +0.000 C 
ATOM     15  N   UNL     1       6.060   3.855  14.015  0.00  0.00    +0.000 N 
ATOM     16  H   UNL     1       5.389   3.287  14.532  0.00  0.00    +0.000 HD
BRANCH  15  17
ATOM     17  C   UNL     1       5.978   3.876  12.592  0.00  0.00    +0.000 C 
ATOM     18  C   UNL     1       6.979   3.122  11.761  0.00  0.00    +0.000 C 
ATOM     19  C   UNL     1       5.562   2.637  11.846  0.00  0.00    +0.000 C 
ENDBRANCH  15  17
ENDBRANCH  12  14
ENDBRANCH  11  12
ENDBRANCH   1  11
TORSDOF 6
ENDMDL
MODEL 6
REMARK VINA RESULT:      -6.5      1.499      1.757
REMARK  Name = 
REMARK  6 active torsions:
REMARK  status: ('A' for Active; 'I' for Inactive)
REMARK    1  A    between atoms: C_2  and  C_3
REMARK    2  A    between atoms: C_3  and  O_4
REMARK    3  A    between atoms: O_4  and  C_5
REMARK    4  A    between atoms: C_5  and  C_7
REMARK    5  A    between atoms: C_12  and  O_13
REMARK    6  A    between atoms: N_14  and  C_15
REMARK                            x       y       z     vdW  Elec       q    Type
REMARK                         _______ _______ _______ _____ _____    ______ ____
ROOT
ATOM      1  C   UNL     1       4.628   4.970  16.892  0.00  0.00    +0.000 C 
ATOM      2  O   UNL     1       4.672   6.155  16.586  0.00  0.00    +0.000 OA
ENDROOT
BRANCH   1   3
ATOM      3  C   UNL     1       3.498   4.386  17.628  0.00  0.00    +0.000 A 
ATOM      4  C   UNL     1       3.054   3.112  17.260  0.00  0.00    +0.000 A 
ATOM      5  C   UNL     1       1.985   2.534  17.940  0.00  0.00    +0.000 A 
ATOM      6  C   UNL     1       1.392   3.259  18.962  0.00  0.00    +0.000 A 
ATOM      7  N   UNL     1       1.787   4.497  19.333  0.00  0.00    +0.000 NA
ATOM      8  C   UNL     1       2.826   5.024  18.653  0.00  0.00    +0.000 A 
BRANCH   8   9
ATOM      9  O   UNL     1       3.110   6.285  19.057  0.00  0.00    +0.000 OA
ATOM     10  H   UNL     1       3.690   6.574  18.329  0.00  0.00    +0.000 HD
ENDBRANCH   8   9
ENDBRANCH   1   3
BRANCH   1  11
ATOM     11  O   UNL     1       5.489   4.020  16.464  0.00  0.00    +0.000 OA
BRANCH  11  12
ATOM     12  C   UNL     1       6.770   4.493  16.037  0.00  0.00    +0.000 C 
BRANCH  12  14
ATOM     13  O   UNL     1       7.678   5.372  13.971  0.00  0.00    +0.000 OA
ATOM     14  C   UNL     1       6.919   4.574  14.513  0.00  0.00    +0.000 C 
ATOM     15  N   UNL     1       6.105   3.695  13.823  0.00  0.00    +0.000 N 
ATOM     16  H   UNL     1       5.442   3.139  14.363  0.00  0.00    +0.000 HD
BRANCH  15  17
ATOM     17  C   UNL     1       6.105   3.564  12.404  0.00  0.00    +0.000 C 
ATOM     18  C   UNL     1       5.960   2.210  11.765  0.00  0.00    +0.000 C 
ATOM     19  C   UNL     1       4.835   3.200  11.684  0.00  0.00    +0.000 C 
ENDBRANCH  15  17
ENDBRANCH  12  14
ENDBRANCH  11  12
ENDBRANCH   1  11
TORSDOF 6
ENDMDL
MODEL 7
REMARK VINA RESULT:      -6.5      0.948      1.093
REMARK  Name = 
REMARK  6 active torsions:
REMARK  status: ('A' for Active; 'I' for Inactive)
REMARK    1  A    between atoms: C_2  and  C_3
REMARK    2  A    between atoms: C_3  and  O_4
REMARK    3  A    between atoms: O_4  and  C_5
REMARK    4  A    between atoms: C_5  and  C_7
REMARK    5  A    between atoms: C_12  and  O_13
REMARK    6  A    between atoms: N_14  and  C_15
REMARK                            x       y       z     vdW  Elec       q    Type
REMARK                         _______ _______ _______ _____ _____    ______ ____
ROOT
ATOM      1  C   UNL     1       4.811   4.567  17.771  0.00  0.00    +0.000 C 
ATOM      2  O   UNL     1       5.827   4.702  18.440  0.00  0.00    +0.000 OA
ENDROOT
BRANCH   1   3
ATOM      3  C   UNL     1       3.655   3.789  18.238  0.00  0.00    +0.000 A 
ATOM      4  C   UNL     1       2.381   4.164  17.800  0.00  0.00    +0.000 A 
ATOM      5  C   UNL     1       1.268   3.445  18.227  0.00  0.00    +0.000 A 
ATOM      6  C   UNL     1       1.472   2.377  19.087  0.00  0.00    +0.000 A 
ATOM      7  N   UNL     1       2.687   1.996  19.540  0.00  0.00    +0.000 NA
ATOM      8  C   UNL     1       3.741   2.716  19.104  0.00  0.00    +0.000 A 
BRANCH   8   9
ATOM      9  O   UNL     1       4.904   2.296  19.655  0.00  0.00    +0.000 OA
ATOM     10  H   UNL     1       4.569   1.631  20.284  0.00  0.00    +0.000 HD
ENDBRANCH   8   9
ENDBRANCH   1   3
BRANCH   1  11
ATOM     11  O   UNL     1       4.535   5.232  16.627  0.00  0.00    +0.000 OA
BRANCH  11  12
ATOM     12  C   UNL     1       5.622   5.972  16.063  0.00  0.00    +0.000 C 
BRANCH  12  14
ATOM     13  O   UNL     1       7.698   5.253  15.045  0.00  0.00    +0.000 OA
ATOM     14  C   UNL     1       6.474   5.161  15.081  0.00  0.00    +0.000 C 
ATOM     15  N   UNL     1       5.739   4.354  14.233  0.00  0.00    +0.000 N 
ATOM     16  H   UNL     1       4.722   4.420  14.280  0.00  0.00    +0.000 HD
BRANCH  15  17
ATOM     17  C   UNL     1       6.320   3.481  13.269  0.00  0.00    +0.000 C 
ATOM     18  C   UNL     1       5.572   3.131  12.011  0.00  0.00    +0.000 C 
ATOM     19  C   UNL     1       6.775   4.025  11.942  0.00  0.00    +0.000 C 
ENDBRANCH  15  17
ENDBRANCH  12  14
ENDBRANCH  11  12
ENDBRANCH   1  11
TORSDOF 6
ENDMDL
MODEL 8
REMARK VINA RESULT:      -6.4      2.053      2.802
REMARK  Name = 
REMARK  6 active torsions:
REMARK  status: ('A' for Active; 'I' for Inactive)
REMARK    1  A    between atoms: C_2  and  C_3
REMARK    2  A    between atoms: C_3  and  O_4
REMARK    3  A    between atoms: O_4  and  C_5
REMARK    4  A    between atoms: C_5  and  C_7
REMARK    5  A    between atoms: C_12  and  O_13
REMARK    6  A    between atoms: N_14  and  C_15
REMARK                            x       y       z     vdW  Elec       q    Type
REMARK                         _______ _______ _______ _____ _____    ______ ____
ROOT
ATOM      1  C   UNL     1       3.745   5.491  19.129  0.00  0.00    +0.000 C 
ATOM      2  O   UNL     1       3.456   6.677  19.035  0.00  0.00    +0.000 OA
ENDROOT
BRANCH   1   3
ATOM      3  C   UNL     1       2.743   4.422  19.011  0.00  0.00    +0.000 A 
ATOM      4  C   UNL     1       1.792   4.288  20.027  0.00  0.00    +0.000 A 
ATOM      5  C   UNL     1       0.831   3.284  19.941  0.00  0.00    +0.000 A 
ATOM      6  C   UNL     1       0.862   2.443  18.839  0.00  0.00    +0.000 A 
ATOM      7  N   UNL     1       1.774   2.537  17.846  0.00  0.00    +0.000 NA
ATOM      8  C   UNL     1       2.689   3.521  17.964  0.00  0.00    +0.000 A 
BRANCH   8   9
ATOM      9  O   UNL     1       3.591   3.499  16.955  0.00  0.00    +0.000 OA
ATOM     10  H   UNL     1       3.000   3.343  16.196  0.00  0.00    +0.000 HD
ENDBRANCH   8   9
ENDBRANCH   1   3
BRANCH   1  11
ATOM     11  O   UNL     1       5.001   4.994  19.175  0.00  0.00    +0.000 OA
BRANCH  11  12
ATOM     12  C   UNL     1       5.994   5.756  18.483  0.00  0.00    +0.000 C 
BRANCH  12  14
ATOM     13  O   UNL     1       7.891   4.527  17.614  0.00  0.00    +0.000 OA
ATOM     14  C   UNL     1       6.756   4.955  17.422  0.00  0.00    +0.000 C 
ATOM     15  N   UNL     1       6.062   4.792  16.237  0.00  0.00    +0.000 N 
ATOM     16  H   UNL     1       5.164   5.266  16.144  0.00  0.00    +0.000 HD
BRANCH  15  17
ATOM     17  C   UNL     1       6.555   4.047  15.127  0.00  0.00    +0.000 C 
ATOM     18  C   UNL     1       5.795   4.021  13.830  0.00  0.00    +0.000 C 
ATOM     19  C   UNL     1       7.094   4.766  13.920  0.00  0.00    +0.000 C 
ENDBRANCH  15  17
ENDBRANCH  12  14
ENDBRANCH  11  12
ENDBRANCH   1  11
TORSDOF 6
ENDMDL
MODEL 9
REMARK VINA RESULT:      -6.4      2.247      3.803
REMARK  Name = 
REMARK  6 active torsions:
REMARK  status: ('A' for Active; 'I' for Inactive)
REMARK    1  A    between atoms: C_2  and  C_3
REMARK    2  A    between atoms: C_3  and  O_4
REMARK    3  A    between atoms: O_4  and  C_5
REMARK    4  A    between atoms: C_5  and  C_7
REMARK    5  A    between atoms: C_12  and  O_13
REMARK    6  A    between atoms: N_14  and  C_15
REMARK                            x       y       z     vdW  Elec       q    Type
REMARK                         _______ _______ _______ _____ _____    ______ ____
ROOT
ATOM      1  C   UNL     1       3.964   4.493  17.343  0.00  0.00    +0.000 C 
ATOM      2  O   UNL     1       3.877   5.677  17.042  0.00  0.00    +0.000 OA
ENDROOT
BRANCH   1   3
ATOM      3  C   UNL     1       3.246   3.915  18.487  0.00  0.00    +0.000 A 
ATOM      4  C   UNL     1       1.887   4.210  18.637  0.00  0.00    +0.000 A 
ATOM      5  C   UNL     1       1.182   3.676  19.712  0.00  0.00    +0.000 A 
ATOM      6  C   UNL     1       1.868   2.868  20.606  0.00  0.00    +0.000 A 
ATOM      7  N   UNL     1       3.183   2.574  20.499  0.00  0.00    +0.000 NA
ATOM      8  C   UNL     1       3.832   3.109  19.444  0.00  0.00    +0.000 A 
BRANCH   8   9
ATOM      9  O   UNL     1       5.152   2.806  19.454  0.00  0.00    +0.000 OA
ATOM     10  H   UNL     1       5.107   1.832  19.455  0.00  0.00    +0.000 HD
ENDBRANCH   8   9
ENDBRANCH   1   3
BRANCH   1  11
ATOM     11  O   UNL     1       4.564   3.539  16.596  0.00  0.00    +0.000 OA
BRANCH  11  12
ATOM     12  C   UNL     1       5.485   4.014  15.609  0.00  0.00    +0.000 C 
BRANCH  12  14
ATOM     13  O   UNL     1       7.423   5.463  15.519  0.00  0.00    +0.000 OA
ATOM     14  C   UNL     1       6.697   4.743  16.199  0.00  0.00    +0.000 C 
ATOM     15  N   UNL     1       6.906   4.489  17.542  0.00  0.00    +0.000 N 
ATOM     16  H   UNL     1       6.302   3.803  17.994  0.00  0.00    +0.000 HD
BRANCH  15  17
ATOM     17  C   UNL     1       7.945   5.091  18.309  0.00  0.00    +0.000 C 
ATOM     18  C   UNL     1       7.928   6.569  18.587  0.00  0.00    +0.000 C 
ATOM     19  C   UNL     1       7.657   5.596  19.697  0.00  0.00    +0.000 C 
ENDBRANCH  15  17
ENDBRANCH  12  14
ENDBRANCH  11  12
ENDBRANCH   1  11
TORSDOF 6
ENDMDL
