MODEL 1
REMARK VINA RESULT:      -8.4      0.000      0.000
REMARK  Name = 
REMARK  3 active torsions:
REMARK  status: ('A' for Active; 'I' for Inactive)
REMARK    1  A    between atoms: C_2  and  C_3
REMARK    2  A    between atoms: C_3  and  N_4
REMARK    3  A    between atoms: N_21  and  O_22
REMARK                            x       y       z     vdW  Elec       q    Type
REMARK                         _______ _______ _______ _____ _____    ______ ____
ROOT
ATOM      1  N   UNL     1       5.210   5.064  18.205  0.00  0.00    +0.000 N 
ATOM      2  C   UNL     1       4.878   4.070  19.153  0.00  0.00    +0.000 C 
ATOM      3  O   UNL     1       5.623   3.183  19.571  0.00  0.00    +0.000 OA
ATOM      4  C   UNL     1       3.333   4.345  19.536  0.00  0.00    +0.000 C 
ATOM      5  O   UNL     1       2.701   3.620  18.451  0.00  0.00    +0.000 OA
ATOM      6  C   UNL     1       1.380   3.994  18.100  0.00  0.00    +0.000 C 
ATOM      7  C   UNL     1       0.442   3.052  18.808  0.00  0.00    +0.000 C 
ATOM      8  C   UNL     1       0.454   3.334  20.307  0.00  0.00    +0.000 C 
ATOM      9  C   UNL     1       1.821   3.099  20.971  0.00  0.00    +0.000 C 
ATOM     10  O   UNL     1       2.776   4.148  20.807  0.00  0.00    +0.000 OA
ATOM     11  C   UNL     1       3.292   5.823  19.194  0.00  0.00    +0.000 A 
ATOM     12  C   UNL     1       2.330   6.754  19.555  0.00  0.00    +0.000 A 
ATOM     13  C   UNL     1       2.194   7.870  18.742  0.00  0.00    +0.000 A 
ATOM     14 CL   UNL     1       0.851   8.917  18.982  0.00  0.00    +0.000 Cl
ATOM     15  C   UNL     1       3.069   8.082  17.662  0.00  0.00    +0.000 A 
ATOM     16  C   UNL     1       4.151   7.220  17.430  0.00  0.00    +0.000 A 
ATOM     17  C   UNL     1       4.255   6.095  18.222  0.00  0.00    +0.000 A 
ENDROOT
BRANCH   1  18
ATOM     18  C   UNL     1       6.419   5.099  17.404  0.00  0.00    +0.000 C 
BRANCH  18  20
ATOM     19  O   UNL     1       8.564   4.075  17.825  0.00  0.00    +0.000 OA
ATOM     20  C   UNL     1       7.706   4.863  18.199  0.00  0.00    +0.000 C 
ATOM     21  N   UNL     1       7.755   5.554  19.403  0.00  0.00    +0.000 N 
ATOM     22  H   UNL     1       6.890   5.818  19.858  0.00  0.00    +0.000 HD
BRANCH  21  23
ATOM     23  O   UNL     1       8.804   5.165  20.265  0.00  0.00    +0.000 OA
ATOM     24  H   UNL     1       9.507   4.907  19.634  0.00  0.00    +0.000 HD
ENDBRANCH  21  23
ENDBRANCH  18  20
ENDBRANCH   1  18
TORSDOF 3
ENDMDL
MODEL 2
REMARK VINA RESULT:      -8.3      1.426      1.828
REMARK  Name = 
REMARK  3 active torsions:
REMARK  status: ('A' for Active; 'I' for Inactive)
REMARK    1  A    between atoms: C_2  and  C_3
REMARK    2  A    between atoms: C_3  and  N_4
REMARK    3  A    between atoms: N_21  and  O_22
REMARK                            x       y       z     vdW  Elec       q    Type
REMARK                         _______ _______ _______ _____ _____    ______ ____
ROOT
ATOM      1  N   UNL     1       5.492   4.740  18.385  0.00  0.00    +0.000 N 
ATOM      2  C   UNL     1       5.013   3.842  19.365  0.00  0.00    +0.000 C 
ATOM      3  O   UNL     1       5.666   2.966  19.932  0.00  0.00    +0.000 OA
ATOM      4  C   UNL     1       3.450   4.206  19.550  0.00  0.00    +0.000 C 
ATOM      5  O   UNL     1       2.906   3.418  18.462  0.00  0.00    +0.000 OA
ATOM      6  C   UNL     1       1.650   3.811  17.937  0.00  0.00    +0.000 C 
ATOM      7  C   UNL     1       0.597   2.967  18.607  0.00  0.00    +0.000 C 
ATOM      8  C   UNL     1       0.461   3.372  20.072  0.00  0.00    +0.000 C 
ATOM      9  C   UNL     1       1.735   3.142  20.901  0.00  0.00    +0.000 C 
ATOM     10  O   UNL     1       2.750   4.137  20.763  0.00  0.00    +0.000 OA
ATOM     11  C   UNL     1       3.516   5.651  19.091  0.00  0.00    +0.000 A 
ATOM     12  C   UNL     1       2.565   6.645  19.268  0.00  0.00    +0.000 A 
ATOM     13  C   UNL     1       2.569   7.693  18.360  0.00  0.00    +0.000 A 
ATOM     14 CL   UNL     1       1.259   8.806  18.366  0.00  0.00    +0.000 Cl
ATOM     15  C   UNL     1       3.566   7.782  17.372  0.00  0.00    +0.000 A 
ATOM     16  C   UNL     1       4.625   6.863  17.330  0.00  0.00    +0.000 A 
ATOM     17  C   UNL     1       4.590   5.805  18.214  0.00  0.00    +0.000 A 
ENDROOT
BRANCH   1  18
ATOM     18  C   UNL     1       6.781   4.663  17.724  0.00  0.00    +0.000 C 
BRANCH  18  20
ATOM     19  O   UNL     1       6.083   3.677  15.634  0.00  0.00    +0.000 OA
ATOM     20  C   UNL     1       6.699   4.572  16.198  0.00  0.00    +0.000 C 
ATOM     21  N   UNL     1       7.452   5.534  15.538  0.00  0.00    +0.000 N 
ATOM     22  H   UNL     1       8.254   5.941  16.004  0.00  0.00    +0.000 HD
BRANCH  21  23
ATOM     23  O   UNL     1       7.597   5.322  14.149  0.00  0.00    +0.000 OA
ATOM     24  H   UNL     1       7.537   4.347  14.080  0.00  0.00    +0.000 HD
ENDBRANCH  21  23
ENDBRANCH  18  20
ENDBRANCH   1  18
TORSDOF 3
ENDMDL
MODEL 3
REMARK VINA RESULT:      -8.2      1.406      1.433
REMARK  Name = 
REMARK  3 active torsions:
REMARK  status: ('A' for Active; 'I' for Inactive)
REMARK    1  A    between atoms: C_2  and  C_3
REMARK    2  A    between atoms: C_3  and  N_4
REMARK    3  A    between atoms: N_21  and  O_22
REMARK                            x       y       z     vdW  Elec       q    Type
REMARK                         _______ _______ _______ _____ _____    ______ ____
ROOT
ATOM      1  N   UNL     1       5.125   5.643  18.042  0.00  0.00    +0.000 N 
ATOM      2  C   UNL     1       4.989   4.580  18.963  0.00  0.00    +0.000 C 
ATOM      3  O   UNL     1       5.859   3.766  19.271  0.00  0.00    +0.000 OA
ATOM      4  C   UNL     1       3.464   4.665  19.489  0.00  0.00    +0.000 C 
ATOM      5  O   UNL     1       2.819   3.919  18.428  0.00  0.00    +0.000 OA
ATOM      6  C   UNL     1       1.439   4.156  18.209  0.00  0.00    +0.000 C 
ATOM      7  C   UNL     1       0.675   3.087  18.945  0.00  0.00    +0.000 C 
ATOM      8  C   UNL     1       0.793   3.307  20.451  0.00  0.00    +0.000 C 
ATOM      9  C   UNL     1       2.231   3.200  20.984  0.00  0.00    +0.000 C 
ATOM     10  O   UNL     1       3.048   4.355  20.792  0.00  0.00    +0.000 OA
ATOM     11  C   UNL     1       3.234   6.142  19.228  0.00  0.00    +0.000 A 
ATOM     12  C   UNL     1       2.214   6.944  19.716  0.00  0.00    +0.000 A 
ATOM     13  C   UNL     1       1.885   8.069  18.976  0.00  0.00    +0.000 A 
ATOM     14 CL   UNL     1       0.464   8.949  19.382  0.00  0.00    +0.000 Cl
ATOM     15  C   UNL     1       2.631   8.423  17.838  0.00  0.00    +0.000 A 
ATOM     16  C   UNL     1       3.775   7.697  17.471  0.00  0.00    +0.000 A 
ATOM     17  C   UNL     1       4.070   6.560  18.192  0.00  0.00    +0.000 A 
ENDROOT
BRANCH   1  18
ATOM     18  C   UNL     1       6.246   5.846  17.144  0.00  0.00    +0.000 C 
BRANCH  18  20
ATOM     19  O   UNL     1       8.064   6.343  18.653  0.00  0.00    +0.000 OA
ATOM     20  C   UNL     1       7.364   6.719  17.722  0.00  0.00    +0.000 C 
ATOM     21  N   UNL     1       7.438   7.983  17.154  0.00  0.00    +0.000 N 
ATOM     22  H   UNL     1       6.608   8.388  16.737  0.00  0.00    +0.000 HD
BRANCH  21  23
ATOM     23  O   UNL     1       8.284   8.888  17.832  0.00  0.00    +0.000 OA
ATOM     24  H   UNL     1       9.060   8.328  18.042  0.00  0.00    +0.000 HD
ENDBRANCH  21  23
ENDBRANCH  18  20
ENDBRANCH   1  18
TORSDOF 3
ENDMDL
MODEL 4
REMARK VINA RESULT:      -8.1      1.932      2.520
REMARK  Name = 
REMARK  3 active torsions:
REMARK  status: ('A' for Active; 'I' for Inactive)
REMARK    1  A    between atoms: C_2  and  C_3
REMARK    2  A    between atoms: C_3  and  N_4
REMARK    3  A    between atoms: N_21  and  O_22
REMARK                            x       y       z     vdW  Elec       q    Type
REMARK                         _______ _______ _______ _____ _____    ______ ____
ROOT
ATOM      1  N   UNL     1       4.595   5.799  17.012  0.00  0.00    +0.000 N 
ATOM      2  C   UNL     1       4.848   4.548  17.617  0.00  0.00    +0.000 C 
ATOM      3  O   UNL     1       5.769   3.778  17.341  0.00  0.00    +0.000 OA
ATOM      4  C   UNL     1       3.674   4.356  18.709  0.00  0.00    +0.000 C 
ATOM      5  O   UNL     1       2.650   3.808  17.842  0.00  0.00    +0.000 OA
ATOM      6  C   UNL     1       1.302   3.947  18.257  0.00  0.00    +0.000 C 
ATOM      7  C   UNL     1       0.907   2.667  18.946  0.00  0.00    +0.000 C 
ATOM      8  C   UNL     1       1.632   2.552  20.284  0.00  0.00    +0.000 C 
ATOM      9  C   UNL     1       3.162   2.473  20.156  0.00  0.00    +0.000 C 
ATOM     10  O   UNL     1       3.829   3.718  19.948  0.00  0.00    +0.000 OA
ATOM     11  C   UNL     1       3.357   5.822  18.935  0.00  0.00    +0.000 A 
ATOM     12  C   UNL     1       2.627   6.385  19.971  0.00  0.00    +0.000 A 
ATOM     13  C   UNL     1       2.023   7.610  19.727  0.00  0.00    +0.000 A 
ATOM     14 CL   UNL     1       0.895   8.226  20.869  0.00  0.00    +0.000 Cl
ATOM     15  C   UNL     1       2.237   8.285  18.513  0.00  0.00    +0.000 A 
ATOM     16  C   UNL     1       3.129   7.781  17.554  0.00  0.00    +0.000 A 
ATOM     17  C   UNL     1       3.695   6.547  17.792  0.00  0.00    +0.000 A 
ENDROOT
BRANCH   1  18
ATOM     18  C   UNL     1       5.248   6.314  15.823  0.00  0.00    +0.000 C 
BRANCH  18  20
ATOM     19  O   UNL     1       7.402   5.447  15.160  0.00  0.00    +0.000 OA
ATOM     20  C   UNL     1       6.185   5.314  15.140  0.00  0.00    +0.000 C 
ATOM     21  N   UNL     1       5.522   4.316  14.437  0.00  0.00    +0.000 N 
ATOM     22  H   UNL     1       4.587   4.492  14.090  0.00  0.00    +0.000 HD
BRANCH  21  23
ATOM     23  O   UNL     1       6.348   3.535  13.598  0.00  0.00    +0.000 OA
ATOM     24  H   UNL     1       7.243   3.862  13.826  0.00  0.00    +0.000 HD
ENDBRANCH  21  23
ENDBRANCH  18  20
ENDBRANCH   1  18
TORSDOF 3
ENDMDL
MODEL 5
REMARK VINA RESULT:      -8.1      1.338      1.937
REMARK  Name = 
REMARK  3 active torsions:
REMARK  status: ('A' for Active; 'I' for Inactive)
REMARK    1  A    between atoms: C_2  and  C_3
REMARK    2  A    between atoms: C_3  and  N_4
REMARK    3  A    between atoms: N_21  and  O_22
REMARK                            x       y       z     vdW  Elec       q    Type
REMARK                         _______ _______ _______ _____ _____    ______ ____
ROOT
ATOM      1  N   UNL     1       5.169   5.833  17.912  0.00  0.00    +0.000 N 
ATOM      2  C   UNL     1       5.103   4.766  18.836  0.00  0.00    +0.000 C 
ATOM      3  O   UNL     1       6.013   3.984  19.114  0.00  0.00    +0.000 OA
ATOM      4  C   UNL     1       3.595   4.795  19.414  0.00  0.00    +0.000 C 
ATOM      5  O   UNL     1       2.942   4.025  18.374  0.00  0.00    +0.000 OA
ATOM      6  C   UNL     1       1.548   4.212  18.203  0.00  0.00    +0.000 C 
ATOM      7  C   UNL     1       0.849   3.115  18.964  0.00  0.00    +0.000 C 
ATOM      8  C   UNL     1       1.010   3.340  20.465  0.00  0.00    +0.000 C 
ATOM      9  C   UNL     1       2.469   3.286  20.948  0.00  0.00    +0.000 C 
ATOM     10  O   UNL     1       3.236   4.470  20.730  0.00  0.00    +0.000 OA
ATOM     11  C   UNL     1       3.302   6.262  19.162  0.00  0.00    +0.000 A 
ATOM     12  C   UNL     1       2.270   7.026  19.686  0.00  0.00    +0.000 A 
ATOM     13  C   UNL     1       1.875   8.139  18.958  0.00  0.00    +0.000 A 
ATOM     14 CL   UNL     1       0.438   8.966  19.414  0.00  0.00    +0.000 Cl
ATOM     15  C   UNL     1       2.569   8.519  17.796  0.00  0.00    +0.000 A 
ATOM     16  C   UNL     1       3.725   7.836  17.389  0.00  0.00    +0.000 A 
ATOM     17  C   UNL     1       4.087   6.710  18.099  0.00  0.00    +0.000 A 
ENDROOT
BRANCH   1  18
ATOM     18  C   UNL     1       6.251   6.077  16.976  0.00  0.00    +0.000 C 
BRANCH  18  20
ATOM     19  O   UNL     1       7.805   4.344  16.337  0.00  0.00    +0.000 OA
ATOM     20  C   UNL     1       6.695   4.839  16.193  0.00  0.00    +0.000 C 
ATOM     21  N   UNL     1       5.763   4.401  15.262  0.00  0.00    +0.000 N 
ATOM     22  H   UNL     1       5.097   5.061  14.880  0.00  0.00    +0.000 HD
BRANCH  21  23
ATOM     23  O   UNL     1       6.241   3.426  14.360  0.00  0.00    +0.000 OA
ATOM     24  H   UNL     1       7.203   3.428  14.542  0.00  0.00    +0.000 HD
ENDBRANCH  21  23
ENDBRANCH  18  20
ENDBRANCH   1  18
TORSDOF 3
ENDMDL
MODEL 6
REMARK VINA RESULT:      -7.8      1.817      2.235
REMARK  Name = 
REMARK  3 active torsions:
REMARK  status: ('A' for Active; 'I' for Inactive)
REMARK    1  A    between atoms: C_2  and  C_3
REMARK    2  A    between atoms: C_3  and  N_4
REMARK    3  A    between atoms: N_21  and  O_22
REMARK                            x       y       z     vdW  Elec       q    Type
REMARK                         _______ _______ _______ _____ _____    ______ ____
ROOT
ATOM      1  N   UNL     1       4.390   6.174  17.477  0.00  0.00    +0.000 N 
ATOM      2  C   UNL     1       4.711   4.942  18.090  0.00  0.00    +0.000 C 
ATOM      3  O   UNL     1       5.697   4.245  17.853  0.00  0.00    +0.000 OA
ATOM      4  C   UNL     1       3.508   4.657  19.130  0.00  0.00    +0.000 C 
ATOM      5  O   UNL     1       2.567   4.038  18.219  0.00  0.00    +0.000 OA
ATOM      6  C   UNL     1       1.196   4.074  18.575  0.00  0.00    +0.000 C 
ATOM      7  C   UNL     1       0.869   2.765  19.245  0.00  0.00    +0.000 C 
ATOM      8  C   UNL     1       1.542   2.698  20.613  0.00  0.00    +0.000 C 
ATOM      9  C   UNL     1       3.078   2.735  20.551  0.00  0.00    +0.000 C 
ATOM     10  O   UNL     1       3.658   4.028  20.374  0.00  0.00    +0.000 OA
ATOM     11  C   UNL     1       3.072   6.095  19.345  0.00  0.00    +0.000 A 
ATOM     12  C   UNL     1       2.259   6.596  20.349  0.00  0.00    +0.000 A 
ATOM     13  C   UNL     1       1.576   7.773  20.081  0.00  0.00    +0.000 A 
ATOM     14 CL   UNL     1       0.356   8.297  21.174  0.00  0.00    +0.000 Cl
ATOM     15  C   UNL     1       1.790   8.469  18.878  0.00  0.00    +0.000 A 
ATOM     16  C   UNL     1       2.758   8.038  17.958  0.00  0.00    +0.000 A 
ATOM     17  C   UNL     1       3.404   6.848  18.218  0.00  0.00    +0.000 A 
ENDROOT
BRANCH   1  18
ATOM     18  C   UNL     1       5.054   6.741  16.318  0.00  0.00    +0.000 C 
BRANCH  18  20
ATOM     19  O   UNL     1       5.263   4.951  14.712  0.00  0.00    +0.000 OA
ATOM     20  C   UNL     1       5.827   5.723  15.477  0.00  0.00    +0.000 C 
ATOM     21  N   UNL     1       7.192   5.707  15.732  0.00  0.00    +0.000 N 
ATOM     22  H   UNL     1       7.531   6.018  16.634  0.00  0.00    +0.000 HD
BRANCH  21  23
ATOM     23  O   UNL     1       7.888   4.618  15.161  0.00  0.00    +0.000 OA
ATOM     24  H   UNL     1       7.165   4.106  14.744  0.00  0.00    +0.000 HD
ENDBRANCH  21  23
ENDBRANCH  18  20
ENDBRANCH   1  18
TORSDOF 3
ENDMDL
MODEL 7
REMARK VINA RESULT:      -7.6      3.177      5.948
REMARK  Name = 
REMARK  3 active torsions:
REMARK  status: ('A' for Active; 'I' for Inactive)
REMARK    1  A    between atoms: C_2  and  C_3
REMARK    2  A    between atoms: C_3  and  N_4
REMARK    3  A    between atoms: N_21  and  O_22
REMARK                            x       y       z     vdW  Elec       q    Type
REMARK                         _______ _______ _______ _____ _____    ______ ____
ROOT
ATOM      1  N   UNL     1       4.421   3.484  17.361  0.00  0.00    +0.000 N 
ATOM      2  C   UNL     1       5.209   3.845  18.477  0.00  0.00    +0.000 C 
ATOM      3  O   UNL     1       5.053   3.459  19.635  0.00  0.00    +0.000 OA
ATOM      4  C   UNL     1       6.320   4.868  17.902  0.00  0.00    +0.000 C 
ATOM      5  O   UNL     1       5.548   6.093  17.963  0.00  0.00    +0.000 OA
ATOM      6  C   UNL     1       5.938   7.152  17.107  0.00  0.00    +0.000 C 
ATOM      7  C   UNL     1       6.815   8.080  17.907  0.00  0.00    +0.000 C 
ATOM      8  C   UNL     1       8.154   7.408  18.198  0.00  0.00    +0.000 C 
ATOM      9  C   UNL     1       8.037   6.138  19.057  0.00  0.00    +0.000 C 
ATOM     10  O   UNL     1       7.641   4.956  18.362  0.00  0.00    +0.000 OA
ATOM     11  C   UNL     1       6.320   4.389  16.462  0.00  0.00    +0.000 A 
ATOM     12  C   UNL     1       7.259   4.655  15.477  0.00  0.00    +0.000 A 
ATOM     13  C   UNL     1       6.832   4.581  14.160  0.00  0.00    +0.000 A 
ATOM     14 CL   UNL     1       7.868   5.156  12.914  0.00  0.00    +0.000 Cl
ATOM     15  C   UNL     1       5.528   4.154  13.851  0.00  0.00    +0.000 A 
ATOM     16  C   UNL     1       4.656   3.712  14.858  0.00  0.00    +0.000 A 
ATOM     17  C   UNL     1       5.079   3.825  16.166  0.00  0.00    +0.000 A 
ENDROOT
BRANCH   1  18
ATOM     18  C   UNL     1       3.167   2.756  17.410  0.00  0.00    +0.000 C 
BRANCH  18  20
ATOM     19  O   UNL     1       1.311   4.299  17.381  0.00  0.00    +0.000 OA
ATOM     20  C   UNL     1       2.011   3.539  18.037  0.00  0.00    +0.000 C 
ATOM     21  N   UNL     1       1.900   3.369  19.410  0.00  0.00    +0.000 N 
ATOM     22  H   UNL     1       2.720   3.112  19.946  0.00  0.00    +0.000 HD
BRANCH  21  23
ATOM     23  O   UNL     1       1.012   4.264  20.047  0.00  0.00    +0.000 OA
ATOM     24  H   UNL     1       0.821   4.909  19.336  0.00  0.00    +0.000 HD
ENDBRANCH  21  23
ENDBRANCH  18  20
ENDBRANCH   1  18
TORSDOF 3
ENDMDL
MODEL 8
REMARK VINA RESULT:      -7.5      2.159      4.628
REMARK  Name = 
REMARK  3 active torsions:
REMARK  status: ('A' for Active; 'I' for Inactive)
REMARK    1  A    between atoms: C_2  and  C_3
REMARK    2  A    between atoms: C_3  and  N_4
REMARK    3  A    between atoms: N_21  and  O_22
REMARK                            x       y       z     vdW  Elec       q    Type
REMARK                         _______ _______ _______ _____ _____    ______ ____
ROOT
ATOM      1  N   UNL     1       3.049   3.583  18.953  0.00  0.00    +0.000 N 
ATOM      2  C   UNL     1       3.874   3.176  17.880  0.00  0.00    +0.000 C 
ATOM      3  O   UNL     1       4.029   2.024  17.475  0.00  0.00    +0.000 OA
ATOM      4  C   UNL     1       4.563   4.532  17.335  0.00  0.00    +0.000 C 
ATOM      5  O   UNL     1       5.678   4.603  18.257  0.00  0.00    +0.000 OA
ATOM      6  C   UNL     1       6.265   5.874  18.475  0.00  0.00    +0.000 C 
ATOM      7  C   UNL     1       7.463   5.979  17.568  0.00  0.00    +0.000 C 
ATOM      8  C   UNL     1       7.009   6.093  16.116  0.00  0.00    +0.000 C 
ATOM      9  C   UNL     1       6.239   4.862  15.609  0.00  0.00    +0.000 C 
ATOM     10  O   UNL     1       4.865   4.792  15.991  0.00  0.00    +0.000 OA
ATOM     11  C   UNL     1       3.504   5.510  17.809  0.00  0.00    +0.000 A 
ATOM     12  C   UNL     1       3.330   6.830  17.421  0.00  0.00    +0.000 A 
ATOM     13  C   UNL     1       2.681   7.671  18.313  0.00  0.00    +0.000 A 
ATOM     14 CL   UNL     1       2.673   9.363  18.008  0.00  0.00    +0.000 Cl
ATOM     15  C   UNL     1       2.140   7.168  19.509  0.00  0.00    +0.000 A 
ATOM     16  C   UNL     1       2.167   5.794  19.792  0.00  0.00    +0.000 A 
ATOM     17  C   UNL     1       2.845   4.973  18.916  0.00  0.00    +0.000 A 
ENDROOT
BRANCH   1  18
ATOM     18  C   UNL     1       2.394   2.699  19.899  0.00  0.00    +0.000 C 
BRANCH  18  20
ATOM     19  O   UNL     1       2.974   2.243  22.197  0.00  0.00    +0.000 OA
ATOM     20  C   UNL     1       3.305   2.192  21.020  0.00  0.00    +0.000 C 
ATOM     21  N   UNL     1       4.550   1.764  20.579  0.00  0.00    +0.000 N 
ATOM     22  H   UNL     1       4.926   2.139  19.717  0.00  0.00    +0.000 HD
BRANCH  21  23
ATOM     23  O   UNL     1       5.492   1.531  21.605  0.00  0.00    +0.000 OA
ATOM     24  H   UNL     1       4.918   1.340  22.375  0.00  0.00    +0.000 HD
ENDBRANCH  21  23
ENDBRANCH  18  20
ENDBRANCH   1  18
TORSDOF 3
ENDMDL
MODEL 9
REMARK VINA RESULT:      -7.2      2.067      2.781
REMARK  Name = 
REMARK  3 active torsions:
REMARK  status: ('A' for Active; 'I' for Inactive)
REMARK    1  A    between atoms: C_2  and  C_3
REMARK    2  A    between atoms: C_3  and  N_4
REMARK    3  A    between atoms: N_21  and  O_22
REMARK                            x       y       z     vdW  Elec       q    Type
REMARK                         _______ _______ _______ _____ _____    ______ ____
ROOT
ATOM      1  N   UNL     1       6.000   5.621  17.061  0.00  0.00    +0.000 N 
ATOM      2  C   UNL     1       6.302   4.445  17.785  0.00  0.00    +0.000 C 
ATOM      3  O   UNL     1       7.361   3.819  17.749  0.00  0.00    +0.000 OA
ATOM      4  C   UNL     1       4.967   4.110  18.630  0.00  0.00    +0.000 C 
ATOM      5  O   UNL     1       4.235   3.380  17.614  0.00  0.00    +0.000 OA
ATOM      6  C   UNL     1       2.825   3.322  17.740  0.00  0.00    +0.000 C 
ATOM      7  C   UNL     1       2.487   2.021  18.419  0.00  0.00    +0.000 C 
ATOM      8  C   UNL     1       2.927   2.065  19.879  0.00  0.00    +0.000 C 
ATOM      9  C   UNL     1       4.445   2.221  20.065  0.00  0.00    +0.000 C 
ATOM     10  O   UNL     1       4.952   3.547  19.914  0.00  0.00    +0.000 OA
ATOM     11  C   UNL     1       4.400   5.516  18.692  0.00  0.00    +0.000 A 
ATOM     12  C   UNL     1       3.397   5.994  19.523  0.00  0.00    +0.000 A 
ATOM     13  C   UNL     1       2.686   7.100  19.084  0.00  0.00    +0.000 A 
ATOM     14 CL   UNL     1       1.268   7.572  19.934  0.00  0.00    +0.000 Cl
ATOM     15  C   UNL     1       3.046   7.759  17.895  0.00  0.00    +0.000 A 
ATOM     16  C   UNL     1       4.182   7.368  17.169  0.00  0.00    +0.000 A 
ATOM     17  C   UNL     1       4.859   6.245  17.595  0.00  0.00    +0.000 A 
ENDROOT
BRANCH   1  18
ATOM     18  C   UNL     1       6.804   6.190  15.996  0.00  0.00    +0.000 C 
BRANCH  18  20
ATOM     19  O   UNL     1       7.919   5.468  13.980  0.00  0.00    +0.000 OA
ATOM     20  C   UNL     1       7.070   5.233  14.831  0.00  0.00    +0.000 C 
ATOM     21  N   UNL     1       6.208   4.145  14.792  0.00  0.00    +0.000 N 
ATOM     22  H   UNL     1       5.293   4.223  15.218  0.00  0.00    +0.000 HD
BRANCH  21  23
ATOM     23  O   UNL     1       6.265   3.389  13.600  0.00  0.00    +0.000 OA
ATOM     24  H   UNL     1       5.809   2.562  13.858  0.00  0.00    +0.000 HD
ENDBRANCH  21  23
ENDBRANCH  18  20
ENDBRANCH   1  18
TORSDOF 3
ENDMDL
