MODEL 1
REMARK VINA RESULT:      -7.3      0.000      0.000
REMARK  Name = 
REMARK  2 active torsions:
REMARK  status: ('A' for Active; 'I' for Inactive)
REMARK    1  A    between atoms: N_1  and  C_2
REMARK    2  A    between atoms: C_7  and  C_8
REMARK                            x       y       z     vdW  Elec       q    Type
REMARK                         _______ _______ _______ _____ _____    ______ ____
ROOT
ATOM      1  C   UNL     1       3.611   2.636  20.297  0.00  0.00    +0.000 A 
ATOM      2  C   UNL     1       2.737   2.466  21.377  0.00  0.00    +0.000 A 
ATOM      3  C   UNL     1       1.596   3.254  21.518  0.00  0.00    +0.000 A 
ATOM      4  C   UNL     1       1.327   4.251  20.590  0.00  0.00    +0.000 A 
ATOM      5  C   UNL     1       2.201   4.458  19.522  0.00  0.00    +0.000 A 
ATOM      6  C   UNL     1       3.358   3.670  19.357  0.00  0.00    +0.000 A 
ENDROOT
BRANCH   6   7
ATOM      7  C   UNL     1       4.246   3.968  18.210  0.00  0.00    +0.000 A 
ATOM      8  C   UNL     1       4.096   3.600  16.885  0.00  0.00    +0.000 A 
ATOM      9  C   UNL     1       5.147   4.072  16.031  0.00  0.00    +0.000 A 
ATOM     10  C   UNL     1       5.341   3.922  14.638  0.00  0.00    +0.000 A 
ATOM     11  C   UNL     1       6.453   4.496  14.016  0.00  0.00    +0.000 A 
ATOM     12  C   UNL     1       7.372   5.229  14.756  0.00  0.00    +0.000 A 
ATOM     13  C   UNL     1       7.211   5.388  16.133  0.00  0.00    +0.000 A 
ATOM     14  C   UNL     1       6.097   4.791  16.754  0.00  0.00    +0.000 A 
ATOM     15  S   UNL     1       5.724   4.811  18.424  0.00  0.00    +0.000 S 
ENDBRANCH   6   7
BRANCH   1  16
ATOM     16  N   UNL     1       4.832   1.926  20.334  0.00  0.00    +0.000 N 
ATOM     17  H   UNL     1       4.749   0.957  20.047  0.00  0.00    +0.000 HD
ATOM     18  H   UNL     1       5.570   2.408  19.823  0.00  0.00    +0.000 HD
ENDBRANCH   1  16
TORSDOF 2
ENDMDL
MODEL 2
REMARK VINA RESULT:      -6.9      1.459      5.988
REMARK  Name = 
REMARK  2 active torsions:
REMARK  status: ('A' for Active; 'I' for Inactive)
REMARK    1  A    between atoms: N_1  and  C_2
REMARK    2  A    between atoms: C_7  and  C_8
REMARK                            x       y       z     vdW  Elec       q    Type
REMARK                         _______ _______ _______ _____ _____    ______ ____
ROOT
ATOM      1  C   UNL     1       6.801   4.584  16.741  0.00  0.00    +0.000 A 
ATOM      2  C   UNL     1       7.629   4.771  15.628  0.00  0.00    +0.000 A 
ATOM      3  C   UNL     1       7.110   4.807  14.335  0.00  0.00    +0.000 A 
ATOM      4  C   UNL     1       5.750   4.624  14.133  0.00  0.00    +0.000 A 
ATOM      5  C   UNL     1       4.909   4.405  15.224  0.00  0.00    +0.000 A 
ATOM      6  C   UNL     1       5.411   4.370  16.542  0.00  0.00    +0.000 A 
ENDROOT
BRANCH   6   7
ATOM      7  C   UNL     1       4.457   4.109  17.644  0.00  0.00    +0.000 A 
ATOM      8  C   UNL     1       3.664   2.995  17.852  0.00  0.00    +0.000 A 
ATOM      9  C   UNL     1       2.858   3.072  19.036  0.00  0.00    +0.000 A 
ATOM     10  C   UNL     1       1.947   2.145  19.593  0.00  0.00    +0.000 A 
ATOM     11  C   UNL     1       1.282   2.441  20.786  0.00  0.00    +0.000 A 
ATOM     12  C   UNL     1       1.517   3.643  21.442  0.00  0.00    +0.000 A 
ATOM     13  C   UNL     1       2.406   4.579  20.913  0.00  0.00    +0.000 A 
ATOM     14  C   UNL     1       3.058   4.280  19.702  0.00  0.00    +0.000 A 
ATOM     15  S   UNL     1       4.144   5.289  18.847  0.00  0.00    +0.000 S 
ENDBRANCH   6   7
BRANCH   1  16
ATOM     16  N   UNL     1       7.429   4.374  17.989  0.00  0.00    +0.000 N 
ATOM     17  H   UNL     1       7.069   3.574  18.496  0.00  0.00    +0.000 HD
ATOM     18  H   UNL     1       8.443   4.342  17.906  0.00  0.00    +0.000 HD
ENDBRANCH   1  16
TORSDOF 2
ENDMDL
MODEL 3
REMARK VINA RESULT:      -6.9      1.460      6.119
REMARK  Name = 
REMARK  2 active torsions:
REMARK  status: ('A' for Active; 'I' for Inactive)
REMARK    1  A    between atoms: N_1  and  C_2
REMARK    2  A    between atoms: C_7  and  C_8
REMARK                            x       y       z     vdW  Elec       q    Type
REMARK                         _______ _______ _______ _____ _____    ______ ____
ROOT
ATOM      1  C   UNL     1       6.701   4.576  16.909  0.00  0.00    +0.000 A 
ATOM      2  C   UNL     1       7.527   4.797  15.801  0.00  0.00    +0.000 A 
ATOM      3  C   UNL     1       7.024   4.758  14.501  0.00  0.00    +0.000 A 
ATOM      4  C   UNL     1       5.685   4.464  14.288  0.00  0.00    +0.000 A 
ATOM      5  C   UNL     1       4.849   4.210  15.376  0.00  0.00    +0.000 A 
ATOM      6  C   UNL     1       5.334   4.249  16.700  0.00  0.00    +0.000 A 
ENDROOT
BRANCH   6   7
ATOM      7  C   UNL     1       4.388   3.945  17.798  0.00  0.00    +0.000 A 
ATOM      8  C   UNL     1       4.607   3.199  18.942  0.00  0.00    +0.000 A 
ATOM      9  C   UNL     1       3.464   3.116  19.805  0.00  0.00    +0.000 A 
ATOM     10  C   UNL     1       3.297   2.471  21.052  0.00  0.00    +0.000 A 
ATOM     11  C   UNL     1       2.073   2.547  21.725  0.00  0.00    +0.000 A 
ATOM     12  C   UNL     1       1.015   3.264  21.181  0.00  0.00    +0.000 A 
ATOM     13  C   UNL     1       1.150   3.904  19.949  0.00  0.00    +0.000 A 
ATOM     14  C   UNL     1       2.379   3.808  19.270  0.00  0.00    +0.000 A 
ATOM     15  S   UNL     1       2.756   4.465  17.735  0.00  0.00    +0.000 S 
ENDBRANCH   6   7
BRANCH   1  16
ATOM     16  N   UNL     1       7.326   4.450  18.169  0.00  0.00    +0.000 N 
ATOM     17  H   UNL     1       7.135   3.569  18.632  0.00  0.00    +0.000 HD
ATOM     18  H   UNL     1       8.325   4.641  18.121  0.00  0.00    +0.000 HD
ENDBRANCH   1  16
TORSDOF 2
ENDMDL
MODEL 4
REMARK VINA RESULT:      -6.8      1.050      1.053
REMARK  Name = 
REMARK  2 active torsions:
REMARK  status: ('A' for Active; 'I' for Inactive)
REMARK    1  A    between atoms: N_1  and  C_2
REMARK    2  A    between atoms: C_7  and  C_8
REMARK                            x       y       z     vdW  Elec       q    Type
REMARK                         _______ _______ _______ _____ _____    ______ ____
ROOT
ATOM      1  C   UNL     1       2.335   2.555  19.245  0.00  0.00    +0.000 A 
ATOM      2  C   UNL     1       1.482   2.367  20.339  0.00  0.00    +0.000 A 
ATOM      3  C   UNL     1       1.361   3.331  21.339  0.00  0.00    +0.000 A 
ATOM      4  C   UNL     1       2.120   4.491  21.274  0.00  0.00    +0.000 A 
ATOM      5  C   UNL     1       3.000   4.686  20.209  0.00  0.00    +0.000 A 
ATOM      6  C   UNL     1       3.135   3.728  19.184  0.00  0.00    +0.000 A 
ENDROOT
BRANCH   6   7
ATOM      7  C   UNL     1       4.106   3.999  18.100  0.00  0.00    +0.000 A 
ATOM      8  C   UNL     1       3.948   3.826  16.737  0.00  0.00    +0.000 A 
ATOM      9  C   UNL     1       5.099   4.202  15.968  0.00  0.00    +0.000 A 
ATOM     10  C   UNL     1       5.319   4.189  14.571  0.00  0.00    +0.000 A 
ATOM     11  C   UNL     1       6.538   4.628  14.047  0.00  0.00    +0.000 A 
ATOM     12  C   UNL     1       7.540   5.091  14.890  0.00  0.00    +0.000 A 
ATOM     13  C   UNL     1       7.353   5.109  16.272  0.00  0.00    +0.000 A 
ATOM     14  C   UNL     1       6.130   4.649  16.793  0.00  0.00    +0.000 A 
ATOM     15  S   UNL     1       5.698   4.534  18.446  0.00  0.00    +0.000 S 
ENDBRANCH   6   7
BRANCH   1  16
ATOM     16  N   UNL     1       2.536   1.454  18.382  0.00  0.00    +0.000 N 
ATOM     17  H   UNL     1       2.538   1.703  17.400  0.00  0.00    +0.000 HD
ATOM     18  H   UNL     1       3.361   0.915  18.637  0.00  0.00    +0.000 HD
ENDBRANCH   1  16
TORSDOF 2
ENDMDL
MODEL 5
REMARK VINA RESULT:      -6.8      0.871      1.532
REMARK  Name = 
REMARK  2 active torsions:
REMARK  status: ('A' for Active; 'I' for Inactive)
REMARK    1  A    between atoms: N_1  and  C_2
REMARK    2  A    between atoms: C_7  and  C_8
REMARK                            x       y       z     vdW  Elec       q    Type
REMARK                         _______ _______ _______ _____ _____    ______ ____
ROOT
ATOM      1  C   UNL     1       3.545   2.589  20.460  0.00  0.00    +0.000 A 
ATOM      2  C   UNL     1       2.675   2.398  21.540  0.00  0.00    +0.000 A 
ATOM      3  C   UNL     1       1.487   3.119  21.651  0.00  0.00    +0.000 A 
ATOM      4  C   UNL     1       1.165   4.071  20.694  0.00  0.00    +0.000 A 
ATOM      5  C   UNL     1       2.032   4.300  19.625  0.00  0.00    +0.000 A 
ATOM      6  C   UNL     1       3.236   3.579  19.488  0.00  0.00    +0.000 A 
ENDROOT
BRANCH   6   7
ATOM      7  C   UNL     1       4.112   3.897  18.338  0.00  0.00    +0.000 A 
ATOM      8  C   UNL     1       5.359   4.496  18.344  0.00  0.00    +0.000 A 
ATOM      9  C   UNL     1       5.936   4.645  17.039  0.00  0.00    +0.000 A 
ATOM     10  C   UNL     1       7.180   5.183  16.637  0.00  0.00    +0.000 A 
ATOM     11  C   UNL     1       7.534   5.204  15.285  0.00  0.00    +0.000 A 
ATOM     12  C   UNL     1       6.673   4.687  14.325  0.00  0.00    +0.000 A 
ATOM     13  C   UNL     1       5.437   4.155  14.692  0.00  0.00    +0.000 A 
ATOM     14  C   UNL     1       5.081   4.154  16.053  0.00  0.00    +0.000 A 
ATOM     15  S   UNL     1       3.607   3.603  16.727  0.00  0.00    +0.000 S 
ENDBRANCH   6   7
BRANCH   1  16
ATOM     16  N   UNL     1       4.806   1.957  20.524  0.00  0.00    +0.000 N 
ATOM     17  H   UNL     1       5.525   2.525  20.957  0.00  0.00    +0.000 HD
ATOM     18  H   UNL     1       4.750   1.033  20.949  0.00  0.00    +0.000 HD
ENDBRANCH   1  16
TORSDOF 2
ENDMDL
MODEL 6
REMARK VINA RESULT:      -6.8      2.773      6.021
REMARK  Name = 
REMARK  2 active torsions:
REMARK  status: ('A' for Active; 'I' for Inactive)
REMARK    1  A    between atoms: N_1  and  C_2
REMARK    2  A    between atoms: C_7  and  C_8
REMARK                            x       y       z     vdW  Elec       q    Type
REMARK                         _______ _______ _______ _____ _____    ______ ____
ROOT
ATOM      1  C   UNL     1       5.940   6.722  17.338  0.00  0.00    +0.000 A 
ATOM      2  C   UNL     1       7.119   7.469  17.232  0.00  0.00    +0.000 A 
ATOM      3  C   UNL     1       8.185   7.270  18.107  0.00  0.00    +0.000 A 
ATOM      4  C   UNL     1       8.076   6.336  19.127  0.00  0.00    +0.000 A 
ATOM      5  C   UNL     1       6.898   5.601  19.271  0.00  0.00    +0.000 A 
ATOM      6  C   UNL     1       5.808   5.782  18.395  0.00  0.00    +0.000 A 
ENDROOT
BRANCH   6   7
ATOM      7  C   UNL     1       4.586   4.979  18.629  0.00  0.00    +0.000 A 
ATOM      8  C   UNL     1       3.634   5.129  19.621  0.00  0.00    +0.000 A 
ATOM      9  C   UNL     1       2.565   4.175  19.545  0.00  0.00    +0.000 A 
ATOM     10  C   UNL     1       1.415   4.014  20.351  0.00  0.00    +0.000 A 
ATOM     11  C   UNL     1       0.490   3.006  20.064  0.00  0.00    +0.000 A 
ATOM     12  C   UNL     1       0.685   2.160  18.979  0.00  0.00    +0.000 A 
ATOM     13  C   UNL     1       1.814   2.292  18.170  0.00  0.00    +0.000 A 
ATOM     14  C   UNL     1       2.749   3.299  18.477  0.00  0.00    +0.000 A 
ATOM     15  S   UNL     1       4.220   3.613  17.660  0.00  0.00    +0.000 S 
ENDBRANCH   6   7
BRANCH   1  16
ATOM     16  N   UNL     1       4.847   7.117  16.534  0.00  0.00    +0.000 N 
ATOM     17  H   UNL     1       4.646   6.473  15.777  0.00  0.00    +0.000 HD
ATOM     18  H   UNL     1       4.017   7.317  17.089  0.00  0.00    +0.000 HD
ENDBRANCH   1  16
TORSDOF 2
ENDMDL
MODEL 7
REMARK VINA RESULT:      -6.7      1.594      6.121
REMARK  Name = 
REMARK  2 active torsions:
REMARK  status: ('A' for Active; 'I' for Inactive)
REMARK    1  A    between atoms: N_1  and  C_2
REMARK    2  A    between atoms: C_7  and  C_8
REMARK                            x       y       z     vdW  Elec       q    Type
REMARK                         _______ _______ _______ _____ _____    ______ ____
ROOT
ATOM      1  C   UNL     1       6.713   4.590  16.640  0.00  0.00    +0.000 A 
ATOM      2  C   UNL     1       7.615   4.758  15.582  0.00  0.00    +0.000 A 
ATOM      3  C   UNL     1       7.185   4.763  14.256  0.00  0.00    +0.000 A 
ATOM      4  C   UNL     1       5.842   4.568  13.965  0.00  0.00    +0.000 A 
ATOM      5  C   UNL     1       4.930   4.368  15.002  0.00  0.00    +0.000 A 
ATOM      6  C   UNL     1       5.340   4.364  16.351  0.00  0.00    +0.000 A 
ENDROOT
BRANCH   6   7
ATOM      7  C   UNL     1       4.315   4.123  17.391  0.00  0.00    +0.000 A 
ATOM      8  C   UNL     1       3.665   5.045  18.192  0.00  0.00    +0.000 A 
ATOM      9  C   UNL     1       2.714   4.461  19.093  0.00  0.00    +0.000 A 
ATOM     10  C   UNL     1       1.855   5.061  20.041  0.00  0.00    +0.000 A 
ATOM     11  C   UNL     1       0.988   4.272  20.804  0.00  0.00    +0.000 A 
ATOM     12  C   UNL     1       0.955   2.894  20.630  0.00  0.00    +0.000 A 
ATOM     13  C   UNL     1       1.797   2.275  19.706  0.00  0.00    +0.000 A 
ATOM     14  C   UNL     1       2.678   3.074  18.955  0.00  0.00    +0.000 A 
ATOM     15  S   UNL     1       3.828   2.533  17.808  0.00  0.00    +0.000 S 
ENDBRANCH   6   7
BRANCH   1  16
ATOM     16  N   UNL     1       7.256   4.411  17.932  0.00  0.00    +0.000 N 
ATOM     17  H   UNL     1       8.237   4.656  17.999  0.00  0.00    +0.000 HD
ATOM     18  H   UNL     1       6.701   4.879  18.647  0.00  0.00    +0.000 HD
ENDBRANCH   1  16
TORSDOF 2
ENDMDL
MODEL 8
REMARK VINA RESULT:      -6.7      1.321      1.751
REMARK  Name = 
REMARK  2 active torsions:
REMARK  status: ('A' for Active; 'I' for Inactive)
REMARK    1  A    between atoms: N_1  and  C_2
REMARK    2  A    between atoms: C_7  and  C_8
REMARK                            x       y       z     vdW  Elec       q    Type
REMARK                         _______ _______ _______ _____ _____    ______ ____
ROOT
ATOM      1  C   UNL     1       1.709   3.848  19.217  0.00  0.00    +0.000 A 
ATOM      2  C   UNL     1       0.839   3.451  20.239  0.00  0.00    +0.000 A 
ATOM      3  C   UNL     1       1.309   2.810  21.384  0.00  0.00    +0.000 A 
ATOM      4  C   UNL     1       2.662   2.527  21.510  0.00  0.00    +0.000 A 
ATOM      5  C   UNL     1       3.544   2.885  20.489  0.00  0.00    +0.000 A 
ATOM      6  C   UNL     1       3.092   3.539  19.325  0.00  0.00    +0.000 A 
ENDROOT
BRANCH   6   7
ATOM      7  C   UNL     1       4.087   3.866  18.279  0.00  0.00    +0.000 A 
ATOM      8  C   UNL     1       4.098   3.482  16.949  0.00  0.00    +0.000 A 
ATOM      9  C   UNL     1       5.217   3.990  16.210  0.00  0.00    +0.000 A 
ATOM     10  C   UNL     1       5.568   3.838  14.848  0.00  0.00    +0.000 A 
ATOM     11  C   UNL     1       6.717   4.454  14.345  0.00  0.00    +0.000 A 
ATOM     12  C   UNL     1       7.519   5.230  15.172  0.00  0.00    +0.000 A 
ATOM     13  C   UNL     1       7.201   5.392  16.521  0.00  0.00    +0.000 A 
ATOM     14  C   UNL     1       6.052   4.754  17.024  0.00  0.00    +0.000 A 
ATOM     15  S   UNL     1       5.497   4.771  18.643  0.00  0.00    +0.000 S 
ENDBRANCH   6   7
BRANCH   1  16
ATOM     16  N   UNL     1       1.129   4.319  18.018  0.00  0.00    +0.000 N 
ATOM     17  H   UNL     1       1.309   3.724  17.217  0.00  0.00    +0.000 HD
ATOM     18  H   UNL     1       0.135   4.515  18.125  0.00  0.00    +0.000 HD
ENDBRANCH   1  16
TORSDOF 2
ENDMDL
MODEL 9
REMARK VINA RESULT:      -6.7      2.678      3.236
REMARK  Name = 
REMARK  2 active torsions:
REMARK  status: ('A' for Active; 'I' for Inactive)
REMARK    1  A    between atoms: N_1  and  C_2
REMARK    2  A    between atoms: C_7  and  C_8
REMARK                            x       y       z     vdW  Elec       q    Type
REMARK                         _______ _______ _______ _____ _____    ______ ____
ROOT
ATOM      1  C   UNL     1       1.937   4.278  19.951  0.00  0.00    +0.000 A 
ATOM      2  C   UNL     1       0.806   3.461  20.060  0.00  0.00    +0.000 A 
ATOM      3  C   UNL     1       0.616   2.369  19.215  0.00  0.00    +0.000 A 
ATOM      4  C   UNL     1       1.545   2.096  18.221  0.00  0.00    +0.000 A 
ATOM      5  C   UNL     1       2.664   2.915  18.074  0.00  0.00    +0.000 A 
ATOM      6  C   UNL     1       2.880   4.022  18.920  0.00  0.00    +0.000 A 
ENDROOT
BRANCH   6   7
ATOM      7  C   UNL     1       4.081   4.856  18.684  0.00  0.00    +0.000 A 
ATOM      8  C   UNL     1       5.322   4.771  19.290  0.00  0.00    +0.000 A 
ATOM      9  C   UNL     1       6.266   5.738  18.810  0.00  0.00    +0.000 A 
ATOM     10  C   UNL     1       7.618   5.958  19.160  0.00  0.00    +0.000 A 
ATOM     11  C   UNL     1       8.353   6.967  18.531  0.00  0.00    +0.000 A 
ATOM     12  C   UNL     1       7.767   7.755  17.549  0.00  0.00    +0.000 A 
ATOM     13  C   UNL     1       6.433   7.565  17.188  0.00  0.00    +0.000 A 
ATOM     14  C   UNL     1       5.696   6.559  17.838  0.00  0.00    +0.000 A 
ATOM     15  S   UNL     1       4.044   6.180  17.595  0.00  0.00    +0.000 S 
ENDBRANCH   6   7
BRANCH   1  16
ATOM     16  N   UNL     1       1.956   5.464  20.719  0.00  0.00    +0.000 N 
ATOM     17  H   UNL     1       2.885   5.742  21.014  0.00  0.00    +0.000 HD
ATOM     18  H   UNL     1       1.464   6.226  20.258  0.00  0.00    +0.000 HD
ENDBRANCH   1  16
TORSDOF 2
ENDMDL
