MODEL 1
REMARK VINA RESULT:      -1.4      0.000      0.000
REMARK  Name = 
REMARK  0 active torsions:
REMARK  status: ('A' for Active; 'I' for Inactive)
REMARK                            x       y       z     vdW  Elec       q    Type
REMARK                         _______ _______ _______ _____ _____    ______ ____
ROOT
ATOM      1  N   UNL     1       7.609   3.854  26.811  0.00  0.00    +0.000 NA
ATOM      2  H   UNL     1       6.784   3.441  26.375  0.00  0.00    +0.000 HD
ATOM      3  H   UNL     1       8.363   3.754  26.134  0.00  0.00    +0.000 HD
ATOM      4  H   UNL     1       7.849   3.242  27.591  0.00  0.00    +0.000 HD
ENDROOT
TORSDOF 0
ENDMDL
MODEL 2
REMARK VINA RESULT:      -1.4     19.338     19.338
REMARK  Name = 
REMARK  0 active torsions:
REMARK  status: ('A' for Active; 'I' for Inactive)
REMARK                            x       y       z     vdW  Elec       q    Type
REMARK                         _______ _______ _______ _____ _____    ______ ____
ROOT
ATOM      1  N   UNL     1       1.769   5.506   8.450  0.00  0.00    +0.000 NA
ATOM      2  H   UNL     1       1.248   4.742   8.021  0.00  0.00    +0.000 HD
ATOM      3  H   UNL     1       2.553   5.694   7.828  0.00  0.00    +0.000 HD
ATOM      4  H   UNL     1       2.174   5.124   9.304  0.00  0.00    +0.000 HD
ENDROOT
TORSDOF 0
ENDMDL
MODEL 3
REMARK VINA RESULT:      -1.4     19.035     19.035
REMARK  Name = 
REMARK  0 active torsions:
REMARK  status: ('A' for Active; 'I' for Inactive)
REMARK                            x       y       z     vdW  Elec       q    Type
REMARK                         _______ _______ _______ _____ _____    ______ ____
ROOT
ATOM      1  N   UNL     1      -3.782   1.787  11.700  0.00  0.00    +0.000 NA
ATOM      2  H   UNL     1      -4.676   1.617  11.241  0.00  0.00    +0.000 HD
ATOM      3  H   UNL     1      -3.069   1.638  10.988  0.00  0.00    +0.000 HD
ATOM      4  H   UNL     1      -3.666   1.032  12.375  0.00  0.00    +0.000 HD
ENDROOT
TORSDOF 0
ENDMDL
MODEL 4
REMARK VINA RESULT:      -1.3     18.434     18.434
REMARK  Name = 
REMARK  0 active torsions:
REMARK  status: ('A' for Active; 'I' for Inactive)
REMARK                            x       y       z     vdW  Elec       q    Type
REMARK                         _______ _______ _______ _____ _____    ______ ____
ROOT
ATOM      1  N   UNL     1      -2.124   9.506  12.212  0.00  0.00    +0.000 NA
ATOM      2  H   UNL     1      -1.485   9.900  11.521  0.00  0.00    +0.000 HD
ATOM      3  H   UNL     1      -1.543   9.206  12.992  0.00  0.00    +0.000 HD
ATOM      4  H   UNL     1      -2.496   8.653  11.794  0.00  0.00    +0.000 HD
ENDROOT
TORSDOF 0
ENDMDL
MODEL 5
REMARK VINA RESULT:      -1.3     16.189     16.189
REMARK  Name = 
REMARK  0 active torsions:
REMARK  status: ('A' for Active; 'I' for Inactive)
REMARK                            x       y       z     vdW  Elec       q    Type
REMARK                         _______ _______ _______ _____ _____    ______ ____
ROOT
ATOM      1  N   UNL     1       6.047  -1.134  11.488  0.00  0.00    +0.000 NA
ATOM      2  H   UNL     1       5.362  -1.143  12.243  0.00  0.00    +0.000 HD
ATOM      3  H   UNL     1       6.925  -1.441  11.903  0.00  0.00    +0.000 HD
ATOM      4  H   UNL     1       6.181  -0.153  11.243  0.00  0.00    +0.000 HD
ENDROOT
TORSDOF 0
ENDMDL
MODEL 6
REMARK VINA RESULT:      -1.3      4.736      4.736
REMARK  Name = 
REMARK  0 active torsions:
REMARK  status: ('A' for Active; 'I' for Inactive)
REMARK                            x       y       z     vdW  Elec       q    Type
REMARK                         _______ _______ _______ _____ _____    ______ ____
ROOT
ATOM      1  N   UNL     1       2.964   4.361  27.585  0.00  0.00    +0.000 NA
ATOM      2  H   UNL     1       3.822   4.444  28.130  0.00  0.00    +0.000 HD
ATOM      3  H   UNL     1       2.232   4.791  28.147  0.00  0.00    +0.000 HD
ATOM      4  H   UNL     1       2.746   3.366  27.554  0.00  0.00    +0.000 HD
ENDROOT
TORSDOF 0
ENDMDL
MODEL 7
REMARK VINA RESULT:      -1.3     20.167     20.167
REMARK  Name = 
REMARK  0 active torsions:
REMARK  status: ('A' for Active; 'I' for Inactive)
REMARK                            x       y       z     vdW  Elec       q    Type
REMARK                         _______ _______ _______ _____ _____    ______ ____
ROOT
ATOM      1  N   UNL     1      -3.795   9.753  11.259  0.00  0.00    +0.000 NA
ATOM      2  H   UNL     1      -3.517   8.772  11.276  0.00  0.00    +0.000 HD
ATOM      3  H   UNL     1      -3.726  10.048  10.287  0.00  0.00    +0.000 HD
ATOM      4  H   UNL     1      -3.064  10.259  11.759  0.00  0.00    +0.000 HD
ENDROOT
TORSDOF 0
ENDMDL
MODEL 8
REMARK VINA RESULT:      -1.2      1.411      1.411
REMARK  Name = 
REMARK  0 active torsions:
REMARK  status: ('A' for Active; 'I' for Inactive)
REMARK                            x       y       z     vdW  Elec       q    Type
REMARK                         _______ _______ _______ _____ _____    ______ ____
ROOT
ATOM      1  N   UNL     1       6.453   3.758  27.614  0.00  0.00    +0.000 NA
ATOM      2  H   UNL     1       6.146   3.288  26.762  0.00  0.00    +0.000 HD
ATOM      3  H   UNL     1       7.468   3.806  27.557  0.00  0.00    +0.000 HD
ATOM      4  H   UNL     1       6.245   3.116  28.378  0.00  0.00    +0.000 HD
ENDROOT
TORSDOF 0
ENDMDL
MODEL 9
REMARK VINA RESULT:      -1.2      3.095      3.095
REMARK  Name = 
REMARK  0 active torsions:
REMARK  status: ('A' for Active; 'I' for Inactive)
REMARK                            x       y       z     vdW  Elec       q    Type
REMARK                         _______ _______ _______ _____ _____    ______ ____
ROOT
ATOM      1  N   UNL     1       4.903   4.244  28.260  0.00  0.00    +0.000 NA
ATOM      2  H   UNL     1       4.139   3.569  28.284  0.00  0.00    +0.000 HD
ATOM      3  H   UNL     1       5.761   3.698  28.296  0.00  0.00    +0.000 HD
ATOM      4  H   UNL     1       4.855   4.752  29.143  0.00  0.00    +0.000 HD
ENDROOT
TORSDOF 0
ENDMDL
