MODEL 1
REMARK VINA RESULT:      -7.2      0.000      0.000
REMARK  Name = 
REMARK  4 active torsions:
REMARK  status: ('A' for Active; 'I' for Inactive)
REMARK    1  A    between atoms: C_1  and  C_2
REMARK    2  A    between atoms: C_2  and  C_3
REMARK    3  A    between atoms: C_21  and  O_22
REMARK    4  A    between atoms: O_22  and  C_23
REMARK                            x       y       z     vdW  Elec       q    Type
REMARK                         _______ _______ _______ _____ _____    ______ ____
ROOT
ATOM      1  C   UNL     1      -1.595  10.652  18.272  0.00  0.00    +0.000 C 
ATOM      2  C   UNL     1      -0.428  10.161  18.699  0.00  0.00    +0.000 C 
ATOM      3  C   UNL     1       0.506  10.938  19.518  0.00  0.00    +0.000 C 
ATOM      4  C   UNL     1      -0.094  12.093  20.387  0.00  0.00    +0.000 C 
ATOM      5  C   UNL     1      -0.315  11.509  21.806  0.00  0.00    +0.000 C 
ATOM      6  O   UNL     1       0.465  10.716  22.336  0.00  0.00    +0.000 OA
ATOM      7  C   UNL     1      -1.511  11.849  22.622  0.00  0.00    +0.000 C 
ATOM      8  C   UNL     1      -2.607  12.408  22.147  0.00  0.00    +0.000 C 
ATOM      9  C   UNL     1      -2.688  12.787  20.752  0.00  0.00    +0.000 C 
ATOM     10  O   UNL     1      -3.753  13.270  20.353  0.00  0.00    +0.000 OA
ATOM     11  C   UNL     1      -1.415  12.785  19.880  0.00  0.00    +0.000 C 
ATOM     12  C   UNL     1      -2.028  12.080  18.590  0.00  0.00    +0.000 C 
ATOM     13  C   UNL     1      -1.104  14.319  19.984  0.00  0.00    +0.000 C 
ATOM     14  O   UNL     1      -1.566  15.049  20.865  0.00  0.00    +0.000 OA
ATOM     15  C   UNL     1       0.053  14.895  19.326  0.00  0.00    +0.000 A 
ATOM     16  C   UNL     1       0.077  16.265  19.024  0.00  0.00    +0.000 A 
ATOM     17  C   UNL     1       1.250  16.849  18.564  0.00  0.00    +0.000 A 
ATOM     18  C   UNL     1       2.371  16.046  18.376  0.00  0.00    +0.000 A 
ATOM     19  C   UNL     1       2.361  14.691  18.760  0.00  0.00    +0.000 A 
ATOM     20  C   UNL     1       1.210  14.139  19.344  0.00  0.00    +0.000 A 
ATOM     21  C   UNL     1       1.169  13.010  20.340  0.00  0.00    +0.000 C 
ATOM     22  O   UNL     1       2.148  12.835  21.047  0.00  0.00    +0.000 OA
ENDROOT
BRANCH   1  24
ATOM     23  C   UNL     1      -2.868   9.995  16.126  0.00  0.00    +0.000 C 
ATOM     24  C   UNL     1      -2.546   9.686  17.576  0.00  0.00    +0.000 C 
ENDBRANCH   1  24
BRANCH  19  25
ATOM     25  O   UNL     1       3.553  14.059  18.542  0.00  0.00    +0.000 OA
ATOM     26  C   UNL     1       4.555  14.877  17.950  0.00  0.00    +0.000 C 
ENDBRANCH  19  25
TORSDOF 2
ENDMDL
MODEL 2
REMARK VINA RESULT:      -6.4      2.280      4.975
REMARK  Name = 
REMARK  4 active torsions:
REMARK  status: ('A' for Active; 'I' for Inactive)
REMARK    1  A    between atoms: C_1  and  C_2
REMARK    2  A    between atoms: C_2  and  C_3
REMARK    3  A    between atoms: C_21  and  O_22
REMARK    4  A    between atoms: O_22  and  C_23
REMARK                            x       y       z     vdW  Elec       q    Type
REMARK                         _______ _______ _______ _____ _____    ______ ____
ROOT
ATOM      1  C   UNL     1       0.482   9.421  20.729  0.00  0.00    +0.000 C 
ATOM      2  C   UNL     1       1.075   9.756  19.579  0.00  0.00    +0.000 C 
ATOM      3  C   UNL     1       0.595  10.848  18.728  0.00  0.00    +0.000 C 
ATOM      4  C   UNL     1      -0.216  11.992  19.421  0.00  0.00    +0.000 C 
ATOM      5  C   UNL     1       0.794  13.129  19.722  0.00  0.00    +0.000 C 
ATOM      6  O   UNL     1       1.709  13.436  18.957  0.00  0.00    +0.000 OA
ATOM      7  C   UNL     1       0.741  13.919  20.981  0.00  0.00    +0.000 C 
ATOM      8  C   UNL     1       0.067  13.566  22.058  0.00  0.00    +0.000 C 
ATOM      9  C   UNL     1      -0.738  12.363  22.055  0.00  0.00    +0.000 C 
ATOM     10  O   UNL     1      -1.316  12.060  23.104  0.00  0.00    +0.000 OA
ATOM     11  C   UNL     1      -1.025  11.634  20.725  0.00  0.00    +0.000 C 
ATOM     12  C   UNL     1      -0.766  10.145  21.226  0.00  0.00    +0.000 C 
ATOM     13  C   UNL     1      -2.447  12.244  20.469  0.00  0.00    +0.000 C 
ATOM     14  O   UNL     1      -2.853  13.276  21.013  0.00  0.00    +0.000 OA
ATOM     15  C   UNL     1      -3.211  11.894  19.288  0.00  0.00    +0.000 A 
ATOM     16  C   UNL     1      -4.606  12.046  19.285  0.00  0.00    +0.000 A 
ATOM     17  C   UNL     1      -5.315  11.886  18.102  0.00  0.00    +0.000 A 
ATOM     18  C   UNL     1      -4.622  11.536  16.946  0.00  0.00    +0.000 A 
ATOM     19  C   UNL     1      -3.216  11.467  16.941  0.00  0.00    +0.000 A 
ATOM     20  C   UNL     1      -2.497  11.757  18.113  0.00  0.00    +0.000 A 
ATOM     21  C   UNL     1      -1.109  12.334  18.187  0.00  0.00    +0.000 C 
ATOM     22  O   UNL     1      -0.723  13.020  17.254  0.00  0.00    +0.000 OA
ENDROOT
BRANCH   1  24
ATOM     23  C   UNL     1       1.695   7.149  20.883  0.00  0.00    +0.000 C 
ATOM     24  C   UNL     1       1.181   8.384  21.599  0.00  0.00    +0.000 C 
ENDBRANCH   1  24
BRANCH  19  25
ATOM     25  O   UNL     1      -2.694  11.149  15.719  0.00  0.00    +0.000 OA
ATOM     26  C   UNL     1      -3.499  10.264  14.947  0.00  0.00    +0.000 C 
ENDBRANCH  19  25
TORSDOF 2
ENDMDL
MODEL 3
REMARK VINA RESULT:      -6.3      2.330      5.186
REMARK  Name = 
REMARK  4 active torsions:
REMARK  status: ('A' for Active; 'I' for Inactive)
REMARK    1  A    between atoms: C_1  and  C_2
REMARK    2  A    between atoms: C_2  and  C_3
REMARK    3  A    between atoms: C_21  and  O_22
REMARK    4  A    between atoms: O_22  and  C_23
REMARK                            x       y       z     vdW  Elec       q    Type
REMARK                         _______ _______ _______ _____ _____    ______ ____
ROOT
ATOM      1  C   UNL     1       0.211  14.653  19.880  0.00  0.00    +0.000 C 
ATOM      2  C   UNL     1      -0.213  14.168  18.709  0.00  0.00    +0.000 C 
ATOM      3  C   UNL     1      -0.730  12.806  18.557  0.00  0.00    +0.000 C 
ATOM      4  C   UNL     1      -1.346  12.128  19.825  0.00  0.00    +0.000 C 
ATOM      5  C   UNL     1      -2.878  12.350  19.744  0.00  0.00    +0.000 C 
ATOM      6  O   UNL     1      -3.509  12.308  18.688  0.00  0.00    +0.000 OA
ATOM      7  C   UNL     1      -3.694  12.661  20.948  0.00  0.00    +0.000 C 
ATOM      8  C   UNL     1      -3.201  13.061  22.104  0.00  0.00    +0.000 C 
ATOM      9  C   UNL     1      -1.770  13.176  22.288  0.00  0.00    +0.000 C 
ATOM     10  O   UNL     1      -1.366  13.595  23.378  0.00  0.00    +0.000 OA
ATOM     11  C   UNL     1      -0.810  12.582  21.235  0.00  0.00    +0.000 C 
ATOM     12  C   UNL     1       0.208  13.803  21.147  0.00  0.00    +0.000 C 
ATOM     13  C   UNL     1      -0.511  11.234  21.980  0.00  0.00    +0.000 C 
ATOM     14  O   UNL     1      -1.229  10.776  22.873  0.00  0.00    +0.000 OA
ATOM     15  C   UNL     1       0.370  10.238  21.401  0.00  0.00    +0.000 A 
ATOM     16  C   UNL     1       0.995   9.292  22.228  0.00  0.00    +0.000 A 
ATOM     17  C   UNL     1       1.689   8.232  21.660  0.00  0.00    +0.000 A 
ATOM     18  C   UNL     1       1.780   8.156  20.272  0.00  0.00    +0.000 A 
ATOM     19  C   UNL     1       1.080   9.061  19.452  0.00  0.00    +0.000 A 
ATOM     20  C   UNL     1       0.276  10.055  20.035  0.00  0.00    +0.000 A 
ATOM     21  C   UNL     1      -0.961  10.666  19.435  0.00  0.00    +0.000 C 
ATOM     22  O   UNL     1      -1.597  10.000  18.632  0.00  0.00    +0.000 OA
ENDROOT
BRANCH   1  24
ATOM     23  C   UNL     1       0.118  16.971  18.752  0.00  0.00    +0.000 C 
ATOM     24  C   UNL     1       0.562  16.135  19.937  0.00  0.00    +0.000 C 
ENDBRANCH   1  24
BRANCH  19  25
ATOM     25  O   UNL     1       1.248   8.823  18.117  0.00  0.00    +0.000 OA
ATOM     26  C   UNL     1       2.475   8.184  17.782  0.00  0.00    +0.000 C 
ENDBRANCH  19  25
TORSDOF 2
ENDMDL
MODEL 4
REMARK VINA RESULT:      -6.3      1.883      5.940
REMARK  Name = 
REMARK  4 active torsions:
REMARK  status: ('A' for Active; 'I' for Inactive)
REMARK    1  A    between atoms: C_1  and  C_2
REMARK    2  A    between atoms: C_2  and  C_3
REMARK    3  A    between atoms: C_21  and  O_22
REMARK    4  A    between atoms: O_22  and  C_23
REMARK                            x       y       z     vdW  Elec       q    Type
REMARK                         _______ _______ _______ _____ _____    ______ ____
ROOT
ATOM      1  C   UNL     1      -0.675  15.028  20.371  0.00  0.00    +0.000 C 
ATOM      2  C   UNL     1      -1.950  15.298  20.666  0.00  0.00    +0.000 C 
ATOM      3  C   UNL     1      -3.006  14.282  20.622  0.00  0.00    +0.000 C 
ATOM      4  C   UNL     1      -2.573  12.792  20.818  0.00  0.00    +0.000 C 
ATOM      5  C   UNL     1      -2.794  12.462  22.317  0.00  0.00    +0.000 C 
ATOM      6  O   UNL     1      -3.750  12.889  22.966  0.00  0.00    +0.000 OA
ATOM      7  C   UNL     1      -1.842  11.620  23.089  0.00  0.00    +0.000 C 
ATOM      8  C   UNL     1      -0.617  11.327  22.698  0.00  0.00    +0.000 C 
ATOM      9  C   UNL     1      -0.128  11.786  21.415  0.00  0.00    +0.000 C 
ATOM     10  O   UNL     1       1.040  11.516  21.119  0.00  0.00    +0.000 OA
ATOM     11  C   UNL     1      -1.113  12.387  20.389  0.00  0.00    +0.000 C 
ATOM     12  C   UNL     1      -0.231  13.634  19.938  0.00  0.00    +0.000 C 
ATOM     13  C   UNL     1      -1.315  11.091  19.528  0.00  0.00    +0.000 C 
ATOM     14  O   UNL     1      -1.053   9.956  19.935  0.00  0.00    +0.000 OA
ATOM     15  C   UNL     1      -2.199  11.086  18.379  0.00  0.00    +0.000 A 
ATOM     16  C   UNL     1      -2.029  10.127  17.369  0.00  0.00    +0.000 A 
ATOM     17  C   UNL     1      -2.981  10.006  16.366  0.00  0.00    +0.000 A 
ATOM     18  C   UNL     1      -4.071  10.873  16.366  0.00  0.00    +0.000 A 
ATOM     19  C   UNL     1      -4.275  11.775  17.428  0.00  0.00    +0.000 A 
ATOM     20  C   UNL     1      -3.374  11.802  18.505  0.00  0.00    +0.000 A 
ATOM     21  C   UNL     1      -3.697  12.174  19.928  0.00  0.00    +0.000 C 
ATOM     22  O   UNL     1      -4.843  12.010  20.317  0.00  0.00    +0.000 OA
ENDROOT
BRANCH   1  24
ATOM     23  C   UNL     1       0.866  16.851  19.393  0.00  0.00    +0.000 C 
ATOM     24  C   UNL     1       0.348  16.129  20.622  0.00  0.00    +0.000 C 
ENDBRANCH   1  24
BRANCH  19  25
ATOM     25  O   UNL     1      -5.410  12.524  17.290  0.00  0.00    +0.000 OA
ATOM     26  C   UNL     1      -6.615  11.830  17.593  0.00  0.00    +0.000 C 
ENDBRANCH  19  25
TORSDOF 2
ENDMDL
MODEL 5
REMARK VINA RESULT:      -6.2      2.367      5.889
REMARK  Name = 
REMARK  4 active torsions:
REMARK  status: ('A' for Active; 'I' for Inactive)
REMARK    1  A    between atoms: C_1  and  C_2
REMARK    2  A    between atoms: C_2  and  C_3
REMARK    3  A    between atoms: C_21  and  O_22
REMARK    4  A    between atoms: O_22  and  C_23
REMARK                            x       y       z     vdW  Elec       q    Type
REMARK                         _______ _______ _______ _____ _____    ______ ____
ROOT
ATOM      1  C   UNL     1       0.171  14.774  20.920  0.00  0.00    +0.000 C 
ATOM      2  C   UNL     1       0.095  14.475  22.220  0.00  0.00    +0.000 C 
ATOM      3  C   UNL     1      -0.933  13.588  22.771  0.00  0.00    +0.000 C 
ATOM      4  C   UNL     1      -1.558  12.530  21.803  0.00  0.00    +0.000 C 
ATOM      5  C   UNL     1      -0.782  11.208  22.032  0.00  0.00    +0.000 C 
ATOM      6  O   UNL     1      -0.399  10.837  23.143  0.00  0.00    +0.000 OA
ATOM      7  C   UNL     1      -0.420  10.300  20.911  0.00  0.00    +0.000 C 
ATOM      8  C   UNL     1      -0.444  10.639  19.637  0.00  0.00    +0.000 C 
ATOM      9  C   UNL     1      -0.895  11.956  19.239  0.00  0.00    +0.000 C 
ATOM     10  O   UNL     1      -0.857  12.232  18.035  0.00  0.00    +0.000 OA
ATOM     11  C   UNL     1      -1.595  12.871  20.265  0.00  0.00    +0.000 C 
ATOM     12  C   UNL     1      -0.836  14.225  19.912  0.00  0.00    +0.000 C 
ATOM     13  C   UNL     1      -3.071  12.549  19.840  0.00  0.00    +0.000 C 
ATOM     14  O   UNL     1      -3.389  11.549  19.191  0.00  0.00    +0.000 OA
ATOM     15  C   UNL     1      -4.196  13.160  20.520  0.00  0.00    +0.000 A 
ATOM     16  C   UNL     1      -5.438  13.253  19.874  0.00  0.00    +0.000 A 
ATOM     17  C   UNL     1      -6.556  13.668  20.586  0.00  0.00    +0.000 A 
ATOM     18  C   UNL     1      -6.407  14.022  21.924  0.00  0.00    +0.000 A 
ATOM     19  C   UNL     1      -5.175  13.847  22.584  0.00  0.00    +0.000 A 
ATOM     20  C   UNL     1      -4.081  13.305  21.890  0.00  0.00    +0.000 A 
ATOM     21  C   UNL     1      -2.963  12.491  22.484  0.00  0.00    +0.000 C 
ATOM     22  O   UNL     1      -3.193  11.860  23.504  0.00  0.00    +0.000 OA
ENDROOT
BRANCH   1  24
ATOM     23  C   UNL     1       1.809  15.356  19.014  0.00  0.00    +0.000 C 
ATOM     24  C   UNL     1       1.385  15.568  20.455  0.00  0.00    +0.000 C 
ENDBRANCH   1  24
BRANCH  19  25
ATOM     25  O   UNL     1      -5.212  14.208  23.901  0.00  0.00    +0.000 OA
ATOM     26  C   UNL     1      -4.610  15.466  24.185  0.00  0.00    +0.000 C 
ENDBRANCH  19  25
TORSDOF 2
ENDMDL
MODEL 6
REMARK VINA RESULT:      -6.1      6.540     10.189
REMARK  Name = 
REMARK  4 active torsions:
REMARK  status: ('A' for Active; 'I' for Inactive)
REMARK    1  A    between atoms: C_1  and  C_2
REMARK    2  A    between atoms: C_2  and  C_3
REMARK    3  A    between atoms: C_21  and  O_22
REMARK    4  A    between atoms: O_22  and  C_23
REMARK                            x       y       z     vdW  Elec       q    Type
REMARK                         _______ _______ _______ _____ _____    ______ ____
ROOT
ATOM      1  C   UNL     1       8.665  10.501  18.662  0.00  0.00    +0.000 C 
ATOM      2  C   UNL     1       8.283  11.151  17.559  0.00  0.00    +0.000 C 
ATOM      3  C   UNL     1       8.350  12.609  17.434  0.00  0.00    +0.000 C 
ATOM      4  C   UNL     1       9.400  13.356  18.321  0.00  0.00    +0.000 C 
ATOM      5  C   UNL     1      10.655  13.567  17.437  0.00  0.00    +0.000 C 
ATOM      6  O   UNL     1      10.594  13.843  16.237  0.00  0.00    +0.000 OA
ATOM      7  C   UNL     1      12.034  13.424  17.976  0.00  0.00    +0.000 C 
ATOM      8  C   UNL     1      12.333  12.837  19.118  0.00  0.00    +0.000 C 
ATOM      9  C   UNL     1      11.284  12.324  19.974  0.00  0.00    +0.000 C 
ATOM     10  O   UNL     1      11.625  11.748  21.012  0.00  0.00    +0.000 OA
ATOM     11  C   UNL     1       9.813  12.691  19.689  0.00  0.00    +0.000 C 
ATOM     12  C   UNL     1       9.178  11.245  19.892  0.00  0.00    +0.000 C 
ATOM     13  C   UNL     1       9.697  13.860  20.729  0.00  0.00    +0.000 C 
ATOM     14  O   UNL     1      10.674  14.445  21.207  0.00  0.00    +0.000 OA
ATOM     15  C   UNL     1       8.465  14.608  20.882  0.00  0.00    +0.000 A 
ATOM     16  C   UNL     1       8.207  15.296  22.078  0.00  0.00    +0.000 A 
ATOM     17  C   UNL     1       7.120  16.157  22.157  0.00  0.00    +0.000 A 
ATOM     18  C   UNL     1       6.283  16.285  21.052  0.00  0.00    +0.000 A 
ATOM     19  C   UNL     1       6.597  15.655  19.832  0.00  0.00    +0.000 A 
ATOM     20  C   UNL     1       7.768  14.889  19.722  0.00  0.00    +0.000 A 
ATOM     21  C   UNL     1       8.581  14.677  18.473  0.00  0.00    +0.000 C 
ATOM     22  O   UNL     1       8.534  15.536  17.607  0.00  0.00    +0.000 OA
ENDROOT
BRANCH   1  24
ATOM     23  C   UNL     1       7.802   8.331  17.568  0.00  0.00    +0.000 C 
ATOM     24  C   UNL     1       8.706   8.980  18.598  0.00  0.00    +0.000 C 
ENDBRANCH   1  24
BRANCH  19  25
ATOM     25  O   UNL     1       5.692  15.915  18.841  0.00  0.00    +0.000 OA
ATOM     26  C   UNL     1       4.836  14.824  18.523  0.00  0.00    +0.000 C 
ENDBRANCH  19  25
TORSDOF 2
ENDMDL
MODEL 7
REMARK VINA RESULT:      -6.1      2.795      6.259
REMARK  Name = 
REMARK  4 active torsions:
REMARK  status: ('A' for Active; 'I' for Inactive)
REMARK    1  A    between atoms: C_1  and  C_2
REMARK    2  A    between atoms: C_2  and  C_3
REMARK    3  A    between atoms: C_21  and  O_22
REMARK    4  A    between atoms: O_22  and  C_23
REMARK                            x       y       z     vdW  Elec       q    Type
REMARK                         _______ _______ _______ _____ _____    ______ ____
ROOT
ATOM      1  C   UNL     1      -2.576  15.802  20.948  0.00  0.00    +0.000 C 
ATOM      2  C   UNL     1      -3.867  15.617  21.240  0.00  0.00    +0.000 C 
ATOM      3  C   UNL     1      -4.536  14.323  21.086  0.00  0.00    +0.000 C 
ATOM      4  C   UNL     1      -3.643  13.041  21.159  0.00  0.00    +0.000 C 
ATOM      5  C   UNL     1      -3.730  12.525  22.618  0.00  0.00    +0.000 C 
ATOM      6  O   UNL     1      -4.767  12.560  23.283  0.00  0.00    +0.000 OA
ATOM      7  C   UNL     1      -2.549  11.971  23.332  0.00  0.00    +0.000 C 
ATOM      8  C   UNL     1      -1.299  12.126  22.942  0.00  0.00    +0.000 C 
ATOM      9  C   UNL     1      -0.998  12.832  21.714  0.00  0.00    +0.000 C 
ATOM     10  O   UNL     1       0.192  12.982  21.419  0.00  0.00    +0.000 OA
ATOM     11  C   UNL     1      -2.133  13.171  20.726  0.00  0.00    +0.000 C 
ATOM     12  C   UNL     1      -1.708  14.671  20.404  0.00  0.00    +0.000 C 
ATOM     13  C   UNL     1      -1.913  11.962  19.751  0.00  0.00    +0.000 C 
ATOM     14  O   UNL     1      -1.293  10.941  20.062  0.00  0.00    +0.000 OA
ATOM     15  C   UNL     1      -2.758  11.774  18.588  0.00  0.00    +0.000 A 
ATOM     16  C   UNL     1      -2.296  11.016  17.501  0.00  0.00    +0.000 A 
ATOM     17  C   UNL     1      -3.167  10.683  16.472  0.00  0.00    +0.000 A 
ATOM     18  C   UNL     1      -4.479  11.148  16.526  0.00  0.00    +0.000 A 
ATOM     19  C   UNL     1      -4.954  11.836  17.659  0.00  0.00    +0.000 A 
ATOM     20  C   UNL     1      -4.101  12.057  18.752  0.00  0.00    +0.000 A 
ATOM     21  C   UNL     1      -4.513  12.175  20.195  0.00  0.00    +0.000 C 
ATOM     22  O   UNL     1      -5.541  11.615  20.545  0.00  0.00    +0.000 OA
ENDROOT
BRANCH   1  24
ATOM     23  C   UNL     1      -2.650  17.911  22.432  0.00  0.00    +0.000 C 
ATOM     24  C   UNL     1      -1.963  17.148  21.315  0.00  0.00    +0.000 C 
ENDBRANCH   1  24
BRANCH  19  25
ATOM     25  O   UNL     1      -6.272  12.187  17.565  0.00  0.00    +0.000 OA
ATOM     26  C   UNL     1      -6.495  13.544  17.198  0.00  0.00    +0.000 C 
ENDBRANCH  19  25
TORSDOF 2
ENDMDL
MODEL 8
REMARK VINA RESULT:      -6.1      2.041      5.569
REMARK  Name = 
REMARK  4 active torsions:
REMARK  status: ('A' for Active; 'I' for Inactive)
REMARK    1  A    between atoms: C_1  and  C_2
REMARK    2  A    between atoms: C_2  and  C_3
REMARK    3  A    between atoms: C_21  and  O_22
REMARK    4  A    between atoms: O_22  and  C_23
REMARK                            x       y       z     vdW  Elec       q    Type
REMARK                         _______ _______ _______ _____ _____    ______ ____
ROOT
ATOM      1  C   UNL     1       1.387  13.556  19.955  0.00  0.00    +0.000 C 
ATOM      2  C   UNL     1       0.989  13.785  21.210  0.00  0.00    +0.000 C 
ATOM      3  C   UNL     1      -0.212  13.173  21.784  0.00  0.00    +0.000 C 
ATOM      4  C   UNL     1      -0.690  11.818  21.166  0.00  0.00    +0.000 C 
ATOM      5  C   UNL     1      -0.107  10.695  22.062  0.00  0.00    +0.000 C 
ATOM      6  O   UNL     1      -0.024  10.787  23.288  0.00  0.00    +0.000 OA
ATOM      7  C   UNL     1       0.421   9.425  21.493  0.00  0.00    +0.000 C 
ATOM      8  C   UNL     1       0.720   9.243  20.222  0.00  0.00    +0.000 C 
ATOM      9  C   UNL     1       0.492  10.299  19.258  0.00  0.00    +0.000 C 
ATOM     10  O   UNL     1       0.828  10.086  18.088  0.00  0.00    +0.000 OA
ATOM     11  C   UNL     1      -0.342  11.535  19.656  0.00  0.00    +0.000 C 
ATOM     12  C   UNL     1       0.595  12.652  19.016  0.00  0.00    +0.000 C 
ATOM     13  C   UNL     1      -1.703  11.062  19.035  0.00  0.00    +0.000 C 
ATOM     14  O   UNL     1      -1.952   9.885  18.756  0.00  0.00    +0.000 OA
ATOM     15  C   UNL     1      -2.896  11.880  19.135  0.00  0.00    +0.000 A 
ATOM     16  C   UNL     1      -3.944  11.705  18.217  0.00  0.00    +0.000 A 
ATOM     17  C   UNL     1      -5.154  12.355  18.421  0.00  0.00    +0.000 A 
ATOM     18  C   UNL     1      -5.285  13.202  19.518  0.00  0.00    +0.000 A 
ATOM     19  C   UNL     1      -4.258  13.306  20.476  0.00  0.00    +0.000 A 
ATOM     20  C   UNL     1      -3.087  12.546  20.330  0.00  0.00    +0.000 A 
ATOM     21  C   UNL     1      -2.211  12.035  21.443  0.00  0.00    +0.000 C 
ATOM     22  O   UNL     1      -2.724  11.848  22.535  0.00  0.00    +0.000 OA
ENDROOT
BRANCH   1  24
ATOM     23  C   UNL     1       2.795  14.794  18.183  0.00  0.00    +0.000 C 
ATOM     24  C   UNL     1       2.742  14.117  19.539  0.00  0.00    +0.000 C 
ENDBRANCH   1  24
BRANCH  19  25
ATOM     25  O   UNL     1      -4.564  14.150  21.506  0.00  0.00    +0.000 OA
ATOM     26  C   UNL     1      -5.839  13.921  22.097  0.00  0.00    +0.000 C 
ENDBRANCH  19  25
TORSDOF 2
ENDMDL
MODEL 9
REMARK VINA RESULT:      -6.1      6.884     10.011
REMARK  Name = 
REMARK  4 active torsions:
REMARK  status: ('A' for Active; 'I' for Inactive)
REMARK    1  A    between atoms: C_1  and  C_2
REMARK    2  A    between atoms: C_2  and  C_3
REMARK    3  A    between atoms: C_21  and  O_22
REMARK    4  A    between atoms: O_22  and  C_23
REMARK                            x       y       z     vdW  Elec       q    Type
REMARK                         _______ _______ _______ _____ _____    ______ ____
ROOT
ATOM      1  C   UNL     1       5.714  15.958  19.136  0.00  0.00    +0.000 C 
ATOM      2  C   UNL     1       5.757  15.200  20.237  0.00  0.00    +0.000 C 
ATOM      3  C   UNL     1       7.007  14.664  20.781  0.00  0.00    +0.000 C 
ATOM      4  C   UNL     1       8.323  15.444  20.453  0.00  0.00    +0.000 C 
ATOM      5  C   UNL     1       8.598  16.376  21.661  0.00  0.00    +0.000 C 
ATOM      6  O   UNL     1       8.385  16.045  22.828  0.00  0.00    +0.000 OA
ATOM      7  C   UNL     1       9.118  17.759  21.489  0.00  0.00    +0.000 C 
ATOM      8  C   UNL     1       9.117  18.422  20.349  0.00  0.00    +0.000 C 
ATOM      9  C   UNL     1       8.636  17.793  19.137  0.00  0.00    +0.000 C 
ATOM     10  O   UNL     1       8.620  18.475  18.107  0.00  0.00    +0.000 OA
ATOM     11  C   UNL     1       8.373  16.272  19.114  0.00  0.00    +0.000 C 
ATOM     12  C   UNL     1       6.976  16.299  18.349  0.00  0.00    +0.000 C 
ATOM     13  C   UNL     1       9.732  15.848  18.455  0.00  0.00    +0.000 C 
ATOM     14  O   UNL     1      10.735  16.568  18.438  0.00  0.00    +0.000 OA
ATOM     15  C   UNL     1      10.038  14.454  18.198  0.00  0.00    +0.000 A 
ATOM     16  C   UNL     1      10.987  14.113  17.223  0.00  0.00    +0.000 A 
ATOM     17  C   UNL     1      11.412  12.796  17.105  0.00  0.00    +0.000 A 
ATOM     18  C   UNL     1      10.851  11.832  17.939  0.00  0.00    +0.000 A 
ATOM     19  C   UNL     1       9.962  12.198  18.968  0.00  0.00    +0.000 A 
ATOM     20  C   UNL     1       9.636  13.550  19.163  0.00  0.00    +0.000 A 
ATOM     21  C   UNL     1       9.264  14.197  20.470  0.00  0.00    +0.000 C 
ATOM     22  O   UNL     1       9.686  13.694  21.499  0.00  0.00    +0.000 OA
ENDROOT
BRANCH   1  24
ATOM     23  C   UNL     1       3.597  15.915  17.663  0.00  0.00    +0.000 C 
ATOM     24  C   UNL     1       4.376  16.591  18.776  0.00  0.00    +0.000 C 
ENDBRANCH   1  24
BRANCH  19  25
ATOM     25  O   UNL     1       9.535  11.136  19.715  0.00  0.00    +0.000 OA
ATOM     26  C   UNL     1       9.073  10.026  18.953  0.00  0.00    +0.000 C 
ENDBRANCH  19  25
TORSDOF 2
ENDMDL
