MODEL 1
REMARK VINA RESULT:      -7.5      0.000      0.000
REMARK  Name = 
REMARK  4 active torsions:
REMARK  status: ('A' for Active; 'I' for Inactive)
REMARK    1  A    between atoms: C_2  and  C_3
REMARK    2  A    between atoms: C_12  and  O_13
REMARK    3  A    between atoms: O_13  and  C_14
REMARK    4  A    between atoms: C_14  and  C_15
REMARK                            x       y       z     vdW  Elec       q    Type
REMARK                         _______ _______ _______ _____ _____    ______ ____
ROOT
ATOM      1  C   UNL     1       7.553   4.510  16.994  0.00  0.00    +0.000 C 
ATOM      2  C   UNL     1       6.678   5.024  16.101  0.00  0.00    +0.000 C 
ATOM      3  C   UNL     1       5.569   5.861  16.675  0.00  0.00    +0.000 A 
ATOM      4  C   UNL     1       4.859   6.744  15.844  0.00  0.00    +0.000 A 
ATOM      5  C   UNL     1       3.829   7.535  16.336  0.00  0.00    +0.000 A 
ATOM      6  C   UNL     1       3.463   7.431  17.671  0.00  0.00    +0.000 A 
ATOM      7  C   UNL     1       4.100   6.518  18.519  0.00  0.00    +0.000 A 
ATOM      8  C   UNL     1       5.209   5.784  18.046  0.00  0.00    +0.000 A 
ATOM      9  C   UNL     1       5.986   4.852  18.944  0.00  0.00    +0.000 C 
ATOM     10  C   UNL     1       7.435   4.677  18.478  0.00  0.00    +0.000 C 
ENDROOT
BRANCH   2  11
ATOM     11  C   UNL     1       6.855   4.781  14.688  0.00  0.00    +0.000 A 
ATOM     12  C   UNL     1       6.217   3.847  13.902  0.00  0.00    +0.000 A 
ATOM     13  N   UNL     1       6.752   4.010  12.654  0.00  0.00    +0.000 N 
ATOM     14  C   UNL     1       7.673   5.014  12.724  0.00  0.00    +0.000 A 
ATOM     15  N   UNL     1       7.750   5.506  13.938  0.00  0.00    +0.000 NA
ATOM     16  H   UNL     1       6.519   3.475  11.825  0.00  0.00    +0.000 HD
ENDBRANCH   2  11
BRANCH   7  17
ATOM     17  O   UNL     1       3.671   6.286  19.810  0.00  0.00    +0.000 OA
BRANCH  17  18
ATOM     18  C   UNL     1       2.245   6.165  19.932  0.00  0.00    +0.000 C 
BRANCH  18  19
ATOM     19  C   UNL     1       1.798   4.728  19.871  0.00  0.00    +0.000 A 
ATOM     20  C   UNL     1       1.507   4.120  18.645  0.00  0.00    +0.000 A 
ATOM     21  C   UNL     1       1.123   2.779  18.598  0.00  0.00    +0.000 A 
ATOM     22  C   UNL     1       1.029   2.036  19.776  0.00  0.00    +0.000 A 
ATOM     23  C   UNL     1       1.328   2.629  21.000  0.00  0.00    +0.000 A 
ATOM     24  C   UNL     1       1.712   3.969  21.048  0.00  0.00    +0.000 A 
ENDBRANCH  18  19
ENDBRANCH  17  18
ENDBRANCH   7  17
TORSDOF 4
ENDMDL
MODEL 2
REMARK VINA RESULT:      -7.4      5.759      8.223
REMARK  Name = 
REMARK  4 active torsions:
REMARK  status: ('A' for Active; 'I' for Inactive)
REMARK    1  A    between atoms: C_2  and  C_3
REMARK    2  A    between atoms: C_12  and  O_13
REMARK    3  A    between atoms: O_13  and  C_14
REMARK    4  A    between atoms: C_14  and  C_15
REMARK                            x       y       z     vdW  Elec       q    Type
REMARK                         _______ _______ _______ _____ _____    ______ ____
ROOT
ATOM      1  C   UNL     1      -0.710  10.681  22.274  0.00  0.00    +0.000 C 
ATOM      2  C   UNL     1      -0.451  11.192  21.049  0.00  0.00    +0.000 C 
ATOM      3  C   UNL     1       0.258  10.274  20.091  0.00  0.00    +0.000 A 
ATOM      4  C   UNL     1       0.225  10.544  18.713  0.00  0.00    +0.000 A 
ATOM      5  C   UNL     1       0.866   9.721  17.796  0.00  0.00    +0.000 A 
ATOM      6  C   UNL     1       1.587   8.624  18.247  0.00  0.00    +0.000 A 
ATOM      7  C   UNL     1       1.699   8.354  19.616  0.00  0.00    +0.000 A 
ATOM      8  C   UNL     1       0.972   9.133  20.541  0.00  0.00    +0.000 A 
ATOM      9  C   UNL     1       0.989   8.830  22.020  0.00  0.00    +0.000 C 
ATOM     10  C   UNL     1      -0.281   9.318  22.724  0.00  0.00    +0.000 C 
ENDROOT
BRANCH   2  11
ATOM     11  C   UNL     1      -0.873  12.532  20.716  0.00  0.00    +0.000 A 
ATOM     12  C   UNL     1      -2.119  12.951  20.305  0.00  0.00    +0.000 A 
ATOM     13  N   UNL     1      -1.990  14.297  20.100  0.00  0.00    +0.000 N 
ATOM     14  C   UNL     1      -0.701  14.640  20.387  0.00  0.00    +0.000 A 
ATOM     15  N   UNL     1      -0.004  13.597  20.772  0.00  0.00    +0.000 NA
ATOM     16  H   UNL     1      -2.715  14.929  19.779  0.00  0.00    +0.000 HD
ENDBRANCH   2  11
BRANCH   7  17
ATOM     17  O   UNL     1       2.521   7.360  20.107  0.00  0.00    +0.000 OA
BRANCH  17  18
ATOM     18  C   UNL     1       2.911   6.392  19.121  0.00  0.00    +0.000 C 
BRANCH  18  19
ATOM     19  C   UNL     1       2.147   5.102  19.270  0.00  0.00    +0.000 A 
ATOM     20  C   UNL     1       1.852   4.312  18.153  0.00  0.00    +0.000 A 
ATOM     21  C   UNL     1       1.171   3.104  18.306  0.00  0.00    +0.000 A 
ATOM     22  C   UNL     1       0.780   2.677  19.576  0.00  0.00    +0.000 A 
ATOM     23  C   UNL     1       1.080   3.450  20.696  0.00  0.00    +0.000 A 
ATOM     24  C   UNL     1       1.761   4.657  20.543  0.00  0.00    +0.000 A 
ENDBRANCH  18  19
ENDBRANCH  17  18
ENDBRANCH   7  17
TORSDOF 4
ENDMDL
MODEL 3
REMARK VINA RESULT:      -7.4      0.099      1.012
REMARK  Name = 
REMARK  4 active torsions:
REMARK  status: ('A' for Active; 'I' for Inactive)
REMARK    1  A    between atoms: C_2  and  C_3
REMARK    2  A    between atoms: C_12  and  O_13
REMARK    3  A    between atoms: O_13  and  C_14
REMARK    4  A    between atoms: C_14  and  C_15
REMARK                            x       y       z     vdW  Elec       q    Type
REMARK                         _______ _______ _______ _____ _____    ______ ____
ROOT
ATOM      1  C   UNL     1       7.590   4.576  17.095  0.00  0.00    +0.000 C 
ATOM      2  C   UNL     1       6.711   5.064  16.190  0.00  0.00    +0.000 C 
ATOM      3  C   UNL     1       5.579   5.881  16.749  0.00  0.00    +0.000 A 
ATOM      4  C   UNL     1       4.858   6.742  15.906  0.00  0.00    +0.000 A 
ATOM      5  C   UNL     1       3.807   7.514  16.383  0.00  0.00    +0.000 A 
ATOM      6  C   UNL     1       3.432   7.412  17.716  0.00  0.00    +0.000 A 
ATOM      7  C   UNL     1       4.082   6.520  18.577  0.00  0.00    +0.000 A 
ATOM      8  C   UNL     1       5.210   5.806  18.118  0.00  0.00    +0.000 A 
ATOM      9  C   UNL     1       6.000   4.898  19.030  0.00  0.00    +0.000 C 
ATOM     10  C   UNL     1       7.455   4.751  18.576  0.00  0.00    +0.000 C 
ENDROOT
BRANCH   2  11
ATOM     11  C   UNL     1       6.905   4.815  14.781  0.00  0.00    +0.000 A 
ATOM     12  C   UNL     1       6.254   3.898  13.985  0.00  0.00    +0.000 A 
ATOM     13  N   UNL     1       6.814   4.044  12.746  0.00  0.00    +0.000 N 
ATOM     14  C   UNL     1       7.762   5.023  12.831  0.00  0.00    +0.000 A 
ATOM     15  N   UNL     1       7.833   5.514  14.045  0.00  0.00    +0.000 NA
ATOM     16  H   UNL     1       6.581   3.516  11.914  0.00  0.00    +0.000 HD
ENDBRANCH   2  11
BRANCH   7  17
ATOM     17  O   UNL     1       3.647   6.288  19.866  0.00  0.00    +0.000 OA
BRANCH  17  18
ATOM     18  C   UNL     1       2.226   6.111  19.974  0.00  0.00    +0.000 C 
BRANCH  18  19
ATOM     19  C   UNL     1       1.832   4.660  19.868  0.00  0.00    +0.000 A 
ATOM     20  C   UNL     1       1.709   3.867  21.014  0.00  0.00    +0.000 A 
ATOM     21  C   UNL     1       1.314   2.533  20.906  0.00  0.00    +0.000 A 
ATOM     22  C   UNL     1       1.038   1.983  19.654  0.00  0.00    +0.000 A 
ATOM     23  C   UNL     1       1.145   2.768  18.508  0.00  0.00    +0.000 A 
ATOM     24  C   UNL     1       1.540   4.102  18.615  0.00  0.00    +0.000 A 
ENDBRANCH  18  19
ENDBRANCH  17  18
ENDBRANCH   7  17
TORSDOF 4
ENDMDL
MODEL 4
REMARK VINA RESULT:      -7.4      4.092      7.462
REMARK  Name = 
REMARK  4 active torsions:
REMARK  status: ('A' for Active; 'I' for Inactive)
REMARK    1  A    between atoms: C_2  and  C_3
REMARK    2  A    between atoms: C_12  and  O_13
REMARK    3  A    between atoms: O_13  and  C_14
REMARK    4  A    between atoms: C_14  and  C_15
REMARK                            x       y       z     vdW  Elec       q    Type
REMARK                         _______ _______ _______ _____ _____    ______ ____
ROOT
ATOM      1  C   UNL     1       1.943   8.872  19.236  0.00  0.00    +0.000 C 
ATOM      2  C   UNL     1       1.554   8.024  20.215  0.00  0.00    +0.000 C 
ATOM      3  C   UNL     1       1.960   6.587  20.039  0.00  0.00    +0.000 A 
ATOM      4  C   UNL     1       1.958   5.721  21.146  0.00  0.00    +0.000 A 
ATOM      5  C   UNL     1       2.328   4.388  21.026  0.00  0.00    +0.000 A 
ATOM      6  C   UNL     1       2.676   3.883  19.780  0.00  0.00    +0.000 A 
ATOM      7  C   UNL     1       2.630   4.694  18.640  0.00  0.00    +0.000 A 
ATOM      8  C   UNL     1       2.347   6.070  18.776  0.00  0.00    +0.000 A 
ATOM      9  C   UNL     1       2.372   7.005  17.590  0.00  0.00    +0.000 C 
ATOM     10  C   UNL     1       2.678   8.449  18.001  0.00  0.00    +0.000 C 
ENDROOT
BRANCH   2  11
ATOM     11  C   UNL     1       0.818   8.519  21.355  0.00  0.00    +0.000 A 
ATOM     12  C   UNL     1      -0.530   8.397  21.612  0.00  0.00    +0.000 A 
ATOM     13  N   UNL     1      -0.725   9.050  22.797  0.00  0.00    +0.000 N 
ATOM     14  C   UNL     1       0.483   9.535  23.209  0.00  0.00    +0.000 A 
ATOM     15  N   UNL     1       1.436   9.221  22.363  0.00  0.00    +0.000 NA
ATOM     16  H   UNL     1      -1.607   9.168  23.282  0.00  0.00    +0.000 HD
ENDBRANCH   2  11
BRANCH   7  17
ATOM     17  O   UNL     1       2.830   4.193  17.370  0.00  0.00    +0.000 OA
BRANCH  17  18
ATOM     18  C   UNL     1       4.135   3.627  17.170  0.00  0.00    +0.000 C 
BRANCH  18  19
ATOM     19  C   UNL     1       5.223   4.656  17.332  0.00  0.00    +0.000 A 
ATOM     20  C   UNL     1       6.112   4.594  18.411  0.00  0.00    +0.000 A 
ATOM     21  C   UNL     1       7.135   5.535  18.534  0.00  0.00    +0.000 A 
ATOM     22  C   UNL     1       7.277   6.544  17.580  0.00  0.00    +0.000 A 
ATOM     23  C   UNL     1       6.405   6.607  16.495  0.00  0.00    +0.000 A 
ATOM     24  C   UNL     1       5.382   5.667  16.372  0.00  0.00    +0.000 A 
ENDBRANCH  18  19
ENDBRANCH  17  18
ENDBRANCH   7  17
TORSDOF 4
ENDMDL
MODEL 5
REMARK VINA RESULT:      -7.3      4.032      7.301
REMARK  Name = 
REMARK  4 active torsions:
REMARK  status: ('A' for Active; 'I' for Inactive)
REMARK    1  A    between atoms: C_2  and  C_3
REMARK    2  A    between atoms: C_12  and  O_13
REMARK    3  A    between atoms: O_13  and  C_14
REMARK    4  A    between atoms: C_14  and  C_15
REMARK                            x       y       z     vdW  Elec       q    Type
REMARK                         _______ _______ _______ _____ _____    ______ ____
ROOT
ATOM      1  C   UNL     1       2.180   8.440  19.100  0.00  0.00    +0.000 C 
ATOM      2  C   UNL     1       1.711   7.712  20.137  0.00  0.00    +0.000 C 
ATOM      3  C   UNL     1       1.982   6.234  20.080  0.00  0.00    +0.000 A 
ATOM      4  C   UNL     1       1.897   5.462  21.251  0.00  0.00    +0.000 A 
ATOM      5  C   UNL     1       2.141   4.095  21.239  0.00  0.00    +0.000 A 
ATOM      6  C   UNL     1       2.444   3.463  20.041  0.00  0.00    +0.000 A 
ATOM      7  C   UNL     1       2.477   4.182  18.840  0.00  0.00    +0.000 A 
ATOM      8  C   UNL     1       2.323   5.585  18.864  0.00  0.00    +0.000 A 
ATOM      9  C   UNL     1       2.438   6.417  17.609  0.00  0.00    +0.000 C 
ATOM     10  C   UNL     1       2.876   7.854  17.909  0.00  0.00    +0.000 C 
ENDROOT
BRANCH   2  11
ATOM     11  C   UNL     1       1.020   8.361  21.228  0.00  0.00    +0.000 A 
ATOM     12  C   UNL     1       1.565   9.084  22.266  0.00  0.00    +0.000 A 
ATOM     13  N   UNL     1       0.497   9.462  23.032  0.00  0.00    +0.000 N 
ATOM     14  C   UNL     1      -0.632   8.968  22.445  0.00  0.00    +0.000 A 
ATOM     15  N   UNL     1      -0.348   8.307  21.348  0.00  0.00    +0.000 NA
ATOM     16  H   UNL     1       0.533  10.002  23.889  0.00  0.00    +0.000 HD
ENDBRANCH   2  11
BRANCH   7  17
ATOM     17  O   UNL     1       2.633   3.566  17.615  0.00  0.00    +0.000 OA
BRANCH  17  18
ATOM     18  C   UNL     1       3.914   2.940  17.441  0.00  0.00    +0.000 C 
BRANCH  18  19
ATOM     19  C   UNL     1       4.993   3.947  17.137  0.00  0.00    +0.000 A 
ATOM     20  C   UNL     1       5.132   4.480  15.850  0.00  0.00    +0.000 A 
ATOM     21  C   UNL     1       6.115   5.434  15.587  0.00  0.00    +0.000 A 
ATOM     22  C   UNL     1       6.965   5.864  16.607  0.00  0.00    +0.000 A 
ATOM     23  C   UNL     1       6.827   5.348  17.894  0.00  0.00    +0.000 A 
ATOM     24  C   UNL     1       5.845   4.394  18.158  0.00  0.00    +0.000 A 
ENDBRANCH  18  19
ENDBRANCH  17  18
ENDBRANCH   7  17
TORSDOF 4
ENDMDL
MODEL 6
REMARK VINA RESULT:      -7.3      4.724      7.129
REMARK  Name = 
REMARK  4 active torsions:
REMARK  status: ('A' for Active; 'I' for Inactive)
REMARK    1  A    between atoms: C_2  and  C_3
REMARK    2  A    between atoms: C_12  and  O_13
REMARK    3  A    between atoms: O_13  and  C_14
REMARK    4  A    between atoms: C_14  and  C_15
REMARK                            x       y       z     vdW  Elec       q    Type
REMARK                         _______ _______ _______ _____ _____    ______ ____
ROOT
ATOM      1  C   UNL     1      -0.540  10.063  20.883  0.00  0.00    +0.000 C 
ATOM      2  C   UNL     1       0.134  10.375  19.753  0.00  0.00    +0.000 C 
ATOM      3  C   UNL     1       1.056   9.312  19.223  0.00  0.00    +0.000 A 
ATOM      4  C   UNL     1       1.488   9.366  17.887  0.00  0.00    +0.000 A 
ATOM      5  C   UNL     1       2.339   8.403  17.361  0.00  0.00    +0.000 A 
ATOM      6  C   UNL     1       2.805   7.379  18.175  0.00  0.00    +0.000 A 
ATOM      7  C   UNL     1       2.450   7.324  19.528  0.00  0.00    +0.000 A 
ATOM      8  C   UNL     1       1.512   8.245  20.041  0.00  0.00    +0.000 A 
ATOM      9  C   UNL     1       1.029   8.174  21.470  0.00  0.00    +0.000 C 
ATOM     10  C   UNL     1      -0.367   8.781  21.638  0.00  0.00    +0.000 C 
ENDROOT
BRANCH   2  11
ATOM     11  C   UNL     1      -0.073  11.653  19.112  0.00  0.00    +0.000 A 
ATOM     12  C   UNL     1      -1.107  12.029  18.283  0.00  0.00    +0.000 A 
ATOM     13  N   UNL     1      -0.826  13.320  17.930  0.00  0.00    +0.000 N 
ATOM     14  C   UNL     1       0.341  13.674  18.543  0.00  0.00    +0.000 A 
ATOM     15  N   UNL     1       0.814  12.692  19.272  0.00  0.00    +0.000 NA
ATOM     16  H   UNL     1      -1.375  13.908  17.314  0.00  0.00    +0.000 HD
ENDBRANCH   2  11
BRANCH   7  17
ATOM     17  O   UNL     1       3.004   6.408  20.399  0.00  0.00    +0.000 OA
BRANCH  17  18
ATOM     18  C   UNL     1       3.706   5.339  19.745  0.00  0.00    +0.000 C 
BRANCH  18  19
ATOM     19  C   UNL     1       2.788   4.196  19.396  0.00  0.00    +0.000 A 
ATOM     20  C   UNL     1       1.781   3.792  20.280  0.00  0.00    +0.000 A 
ATOM     21  C   UNL     1       0.917   2.753  19.933  0.00  0.00    +0.000 A 
ATOM     22  C   UNL     1       1.052   2.112  18.701  0.00  0.00    +0.000 A 
ATOM     23  C   UNL     1       2.044   2.515  17.809  0.00  0.00    +0.000 A 
ATOM     24  C   UNL     1       2.908   3.554  18.155  0.00  0.00    +0.000 A 
ENDBRANCH  18  19
ENDBRANCH  17  18
ENDBRANCH   7  17
TORSDOF 4
ENDMDL
MODEL 7
REMARK VINA RESULT:      -7.2      5.592      8.106
REMARK  Name = 
REMARK  4 active torsions:
REMARK  status: ('A' for Active; 'I' for Inactive)
REMARK    1  A    between atoms: C_2  and  C_3
REMARK    2  A    between atoms: C_12  and  O_13
REMARK    3  A    between atoms: O_13  and  C_14
REMARK    4  A    between atoms: C_14  and  C_15
REMARK                            x       y       z     vdW  Elec       q    Type
REMARK                         _______ _______ _______ _____ _____    ______ ____
ROOT
ATOM      1  C   UNL     1      -0.417  10.731  22.276  0.00  0.00    +0.000 C 
ATOM      2  C   UNL     1       0.185  11.301  21.208  0.00  0.00    +0.000 C 
ATOM      3  C   UNL     1       0.805  10.351  20.220  0.00  0.00    +0.000 A 
ATOM      4  C   UNL     1       1.098  10.792  18.918  0.00  0.00    +0.000 A 
ATOM      5  C   UNL     1       1.669   9.946  17.977  0.00  0.00    +0.000 A 
ATOM      6  C   UNL     1       1.992   8.644  18.332  0.00  0.00    +0.000 A 
ATOM      7  C   UNL     1       1.777   8.182  19.636  0.00  0.00    +0.000 A 
ATOM      8  C   UNL     1       1.110   9.009  20.565  0.00  0.00    +0.000 A 
ATOM      9  C   UNL     1       0.775   8.528  21.957  0.00  0.00    +0.000 C 
ATOM     10  C   UNL     1      -0.439   9.257  22.542  0.00  0.00    +0.000 C 
ENDROOT
BRANCH   2  11
ATOM     11  C   UNL     1       0.185  12.737  21.053  0.00  0.00    +0.000 A 
ATOM     12  C   UNL     1      -0.802  13.531  20.513  0.00  0.00    +0.000 A 
ATOM     13  N   UNL     1      -0.307  14.804  20.579  0.00  0.00    +0.000 N 
ATOM     14  C   UNL     1       0.934  14.740  21.143  0.00  0.00    +0.000 A 
ATOM     15  N   UNL     1       1.254  13.505  21.449  0.00  0.00    +0.000 NA
ATOM     16  H   UNL     1      -0.769  15.647  20.256  0.00  0.00    +0.000 HD
ENDBRANCH   2  11
BRANCH   7  17
ATOM     17  O   UNL     1       2.214   6.945  20.063  0.00  0.00    +0.000 OA
BRANCH  17  18
ATOM     18  C   UNL     1       2.857   6.173  19.036  0.00  0.00    +0.000 C 
BRANCH  18  19
ATOM     19  C   UNL     1       2.307   4.772  18.962  0.00  0.00    +0.000 A 
ATOM     20  C   UNL     1       1.419   4.299  19.935  0.00  0.00    +0.000 A 
ATOM     21  C   UNL     1       0.892   3.011  19.839  0.00  0.00    +0.000 A 
ATOM     22  C   UNL     1       1.247   2.187  18.771  0.00  0.00    +0.000 A 
ATOM     23  C   UNL     1       2.121   2.652  17.791  0.00  0.00    +0.000 A 
ATOM     24  C   UNL     1       2.648   3.940  17.886  0.00  0.00    +0.000 A 
ENDBRANCH  18  19
ENDBRANCH  17  18
ENDBRANCH   7  17
TORSDOF 4
ENDMDL
MODEL 8
REMARK VINA RESULT:      -7.2      5.106      7.497
REMARK  Name = 
REMARK  4 active torsions:
REMARK  status: ('A' for Active; 'I' for Inactive)
REMARK    1  A    between atoms: C_2  and  C_3
REMARK    2  A    between atoms: C_12  and  O_13
REMARK    3  A    between atoms: O_13  and  C_14
REMARK    4  A    between atoms: C_14  and  C_15
REMARK                            x       y       z     vdW  Elec       q    Type
REMARK                         _______ _______ _______ _____ _____    ______ ____
ROOT
ATOM      1  C   UNL     1      -0.490  10.387  21.465  0.00  0.00    +0.000 C 
ATOM      2  C   UNL     1       0.069  10.780  20.299  0.00  0.00    +0.000 C 
ATOM      3  C   UNL     1       0.858   9.733  19.563  0.00  0.00    +0.000 A 
ATOM      4  C   UNL     1       1.139   9.903  18.197  0.00  0.00    +0.000 A 
ATOM      5  C   UNL     1       1.863   8.958  17.481  0.00  0.00    +0.000 A 
ATOM      6  C   UNL     1       2.353   7.834  18.131  0.00  0.00    +0.000 A 
ATOM      7  C   UNL     1       2.151   7.656  19.505  0.00  0.00    +0.000 A 
ATOM      8  C   UNL     1       1.336   8.565  20.212  0.00  0.00    +0.000 A 
ATOM      9  C   UNL     1       1.015   8.371  21.675  0.00  0.00    +0.000 C 
ATOM     10  C   UNL     1      -0.313   9.026  22.066  0.00  0.00    +0.000 C 
ENDROOT
BRANCH   2  11
ATOM     11  C   UNL     1      -0.129  12.127  19.815  0.00  0.00    +0.000 A 
ATOM     12  C   UNL     1      -1.232  12.643  19.171  0.00  0.00    +0.000 A 
ATOM     13  N   UNL     1      -0.910  13.946  18.907  0.00  0.00    +0.000 N 
ATOM     14  C   UNL     1       0.348  14.169  19.388  0.00  0.00    +0.000 A 
ATOM     15  N   UNL     1       0.842  13.092  19.951  0.00  0.00    +0.000 NA
ATOM     16  H   UNL     1      -1.491  14.624  18.428  0.00  0.00    +0.000 HD
ENDBRANCH   2  11
BRANCH   7  17
ATOM     17  O   UNL     1       2.742   6.628  20.211  0.00  0.00    +0.000 OA
BRANCH  17  18
ATOM     18  C   UNL     1       3.472   5.705  19.387  0.00  0.00    +0.000 C 
BRANCH  18  19
ATOM     19  C   UNL     1       2.770   4.376  19.277  0.00  0.00    +0.000 A 
ATOM     20  C   UNL     1       3.386   3.292  18.642  0.00  0.00    +0.000 A 
ATOM     21  C   UNL     1       2.739   2.058  18.573  0.00  0.00    +0.000 A 
ATOM     22  C   UNL     1       1.473   1.898  19.138  0.00  0.00    +0.000 A 
ATOM     23  C   UNL     1       0.857   2.968  19.784  0.00  0.00    +0.000 A 
ATOM     24  C   UNL     1       1.503   4.202  19.853  0.00  0.00    +0.000 A 
ENDBRANCH  18  19
ENDBRANCH  17  18
ENDBRANCH   7  17
TORSDOF 4
ENDMDL
MODEL 9
REMARK VINA RESULT:      -7.2      4.940      7.187
REMARK  Name = 
REMARK  4 active torsions:
REMARK  status: ('A' for Active; 'I' for Inactive)
REMARK    1  A    between atoms: C_2  and  C_3
REMARK    2  A    between atoms: C_12  and  O_13
REMARK    3  A    between atoms: O_13  and  C_14
REMARK    4  A    between atoms: C_14  and  C_15
REMARK                            x       y       z     vdW  Elec       q    Type
REMARK                         _______ _______ _______ _____ _____    ______ ____
ROOT
ATOM      1  C   UNL     1      -0.198  10.381  21.229  0.00  0.00    +0.000 C 
ATOM      2  C   UNL     1       0.530  10.609  20.113  0.00  0.00    +0.000 C 
ATOM      3  C   UNL     1       1.213   9.409  19.517  0.00  0.00    +0.000 A 
ATOM      4  C   UNL     1       1.653   9.448  18.183  0.00  0.00    +0.000 A 
ATOM      5  C   UNL     1       2.286   8.361  17.595  0.00  0.00    +0.000 A 
ATOM      6  C   UNL     1       2.525   7.218  18.347  0.00  0.00    +0.000 A 
ATOM      7  C   UNL     1       2.161   7.160  19.697  0.00  0.00    +0.000 A 
ATOM      8  C   UNL     1       1.433   8.226  20.269  0.00  0.00    +0.000 A 
ATOM      9  C   UNL     1       0.941   8.176  21.696  0.00  0.00    +0.000 C 
ATOM     10  C   UNL     1      -0.299   9.050  21.909  0.00  0.00    +0.000 C 
ENDROOT
BRANCH   2  11
ATOM     11  C   UNL     1       0.597  11.937  19.548  0.00  0.00    +0.000 A 
ATOM     12  C   UNL     1       1.635  12.839  19.622  0.00  0.00    +0.000 A 
ATOM     13  N   UNL     1       1.193  13.944  18.948  0.00  0.00    +0.000 N 
ATOM     14  C   UNL     1      -0.069  13.680  18.499  0.00  0.00    +0.000 A 
ATOM     15  N   UNL     1      -0.452  12.471  18.837  0.00  0.00    +0.000 NA
ATOM     16  H   UNL     1       1.701  14.810  18.814  0.00  0.00    +0.000 HD
ENDBRANCH   2  11
BRANCH   7  17
ATOM     17  O   UNL     1       2.509   6.101  20.511  0.00  0.00    +0.000 OA
BRANCH  17  18
ATOM     18  C   UNL     1       1.620   4.977  20.408  0.00  0.00    +0.000 C 
BRANCH  18  19
ATOM     19  C   UNL     1       2.238   3.843  19.633  0.00  0.00    +0.000 A 
ATOM     20  C   UNL     1       1.723   3.462  18.389  0.00  0.00    +0.000 A 
ATOM     21  C   UNL     1       2.322   2.431  17.665  0.00  0.00    +0.000 A 
ATOM     22  C   UNL     1       3.441   1.774  18.179  0.00  0.00    +0.000 A 
ATOM     23  C   UNL     1       3.969   2.153  19.411  0.00  0.00    +0.000 A 
ATOM     24  C   UNL     1       3.370   3.184  20.135  0.00  0.00    +0.000 A 
ENDBRANCH  18  19
ENDBRANCH  17  18
ENDBRANCH   7  17
TORSDOF 4
ENDMDL
