MODEL 1
REMARK VINA RESULT:      -8.6      0.000      0.000
REMARK  Name = 
REMARK  7 active torsions:
REMARK  status: ('A' for Active; 'I' for Inactive)
REMARK    1  A    between atoms: C_1  and  O_2
REMARK    2  A    between atoms: O_2  and  C_3
REMARK    3  A    between atoms: C_8  and  C_9
REMARK    4  A    between atoms: N_18  and  C_19
REMARK    5  A    between atoms: C_19  and  C_20
REMARK    6  A    between atoms: C_23  and  O_24
REMARK    7  A    between atoms: C_26  and  C_27
REMARK                            x       y       z     vdW  Elec       q    Type
REMARK                         _______ _______ _______ _____ _____    ______ ____
ROOT
ATOM      1  C   UNL     1       0.288  10.619  19.778  0.00  0.00    +0.000 C 
ATOM      2  C   UNL     1       0.822  11.884  19.091  0.00  0.00    +0.000 C 
ATOM      3  O   UNL     1      -0.043  13.004  19.307  0.00  0.00    +0.000 OA
ATOM      4  C   UNL     1      -1.333  12.797  18.701  0.00  0.00    +0.000 C 
ATOM      5  C   UNL     1      -2.116  11.665  19.408  0.00  0.00    +0.000 C 
ATOM      6  C   UNL     1      -1.210  10.398  19.452  0.00  0.00    +0.000 C 
ATOM      7  O   UNL     1      -2.339  12.009  20.807  0.00  0.00    +0.000 OA
ATOM      8  C   UNL     1      -3.290  13.063  20.981  0.00  0.00    +0.000 C 
ATOM      9  C   UNL     1      -4.647  12.703  20.377  0.00  0.00    +0.000 C 
ATOM     10  N   UNL     1      -4.587  12.386  18.930  0.00  0.00    +0.000 NA
ATOM     11  C   UNL     1      -3.537  11.322  18.715  0.00  0.00    +0.000 C 
ENDROOT
BRANCH  11  12
ATOM     12  C   UNL     1      -3.416  10.915  17.230  0.00  0.00    +0.000 A 
ATOM     13  C   UNL     1      -4.195  11.519  16.225  0.00  0.00    +0.000 A 
ATOM     14  C   UNL     1      -4.085  11.112  14.887  0.00  0.00    +0.000 A 
ATOM     15  C   UNL     1      -3.177  10.126  14.538  0.00  0.00    +0.000 A 
ATOM     16  F   UNL     1      -3.058   9.759  13.257  0.00  0.00    +0.000 F 
ATOM     17  C   UNL     1      -2.395   9.512  15.504  0.00  0.00    +0.000 A 
ATOM     18  C   UNL     1      -2.530   9.888  16.844  0.00  0.00    +0.000 A 
ENDBRANCH  11  12
BRANCH   1  24
ATOM     19  C   UNL     1       1.342   8.287  20.328  0.00  0.00    +0.000 A 
ATOM     20  C   UNL     1       2.093   7.172  19.919  0.00  0.00    +0.000 A 
ATOM     21  C   UNL     1       2.687   7.123  18.664  0.00  0.00    +0.000 A 
ATOM     22  C   UNL     1       2.538   8.198  17.801  0.00  0.00    +0.000 A 
ATOM     23  C   UNL     1       1.777   9.311  18.183  0.00  0.00    +0.000 A 
ATOM     24  C   UNL     1       1.155   9.381  19.447  0.00  0.00    +0.000 A 
BRANCH  19  26
ATOM     25  C   UNL     1       1.500   9.208  22.523  0.00  0.00    +0.000 C 
ATOM     26  O   UNL     1       0.807   8.384  21.589  0.00  0.00    +0.000 OA
ENDBRANCH  19  26
ENDBRANCH   1  24
BRANCH  10  27
ATOM     27  C   UNL     1      -5.949  11.919  18.495  0.00  0.00    +0.000 C 
BRANCH  27  28
ATOM     28  C   UNL     1      -6.578  10.954  19.479  0.00  0.00    +0.000 A 
ATOM     29  N   UNL     1      -6.939  11.290  20.730  0.00  0.00    +0.000 NA
ATOM     30  N   UNL     1      -7.351  10.107  21.215  0.00  0.00    +0.000 N 
ATOM     31  C   UNL     1      -7.302   9.131  20.261  0.00  0.00    +0.000 A 
ATOM     32  N   UNL     1      -6.816   9.636  19.151  0.00  0.00    +0.000 NA
ATOM     33  H   UNL     1      -7.632  10.039  22.187  0.00  0.00    +0.000 HD
BRANCH  31  34
ATOM     34  O   UNL     1      -7.665   7.877  20.403  0.00  0.00    +0.000 OA
ATOM     35  H   UNL     1      -7.174   7.482  21.133  0.00  0.00    +0.000 HD
ENDBRANCH  31  34
ENDBRANCH  27  28
ENDBRANCH  10  27
TORSDOF 6
ENDMDL
MODEL 2
REMARK VINA RESULT:      -8.1      3.523      5.931
REMARK  Name = 
REMARK  7 active torsions:
REMARK  status: ('A' for Active; 'I' for Inactive)
REMARK    1  A    between atoms: C_1  and  O_2
REMARK    2  A    between atoms: O_2  and  C_3
REMARK    3  A    between atoms: C_8  and  C_9
REMARK    4  A    between atoms: N_18  and  C_19
REMARK    5  A    between atoms: C_19  and  C_20
REMARK    6  A    between atoms: C_23  and  O_24
REMARK    7  A    between atoms: C_26  and  C_27
REMARK                            x       y       z     vdW  Elec       q    Type
REMARK                         _______ _______ _______ _____ _____    ______ ____
ROOT
ATOM      1  C   UNL     1       0.964  13.650  19.441  0.00  0.00    +0.000 C 
ATOM      2  C   UNL     1       1.360  12.378  20.205  0.00  0.00    +0.000 C 
ATOM      3  O   UNL     1       0.535  11.267  19.839  0.00  0.00    +0.000 OA
ATOM      4  C   UNL     1      -0.838  11.486  20.215  0.00  0.00    +0.000 C 
ATOM      5  C   UNL     1      -1.477  12.627  19.388  0.00  0.00    +0.000 C 
ATOM      6  C   UNL     1      -0.565  13.885  19.504  0.00  0.00    +0.000 C 
ATOM      7  O   UNL     1      -1.460  12.288  17.970  0.00  0.00    +0.000 OA
ATOM      8  C   UNL     1      -2.377  11.244  17.632  0.00  0.00    +0.000 C 
ATOM      9  C   UNL     1      -3.814  11.616  17.995  0.00  0.00    +0.000 C 
ATOM     10  N   UNL     1      -4.001  11.930  19.432  0.00  0.00    +0.000 NA
ATOM     11  C   UNL     1      -2.993  12.983  19.827  0.00  0.00    +0.000 C 
ENDROOT
BRANCH  11  12
ATOM     12  C   UNL     1      -3.125  13.385  21.313  0.00  0.00    +0.000 A 
ATOM     13  C   UNL     1      -3.221  12.427  22.340  0.00  0.00    +0.000 A 
ATOM     14  C   UNL     1      -3.368  12.820  23.679  0.00  0.00    +0.000 A 
ATOM     15  C   UNL     1      -3.387  14.165  24.005  0.00  0.00    +0.000 A 
ATOM     16  F   UNL     1      -3.503  14.534  25.286  0.00  0.00    +0.000 F 
ATOM     17  C   UNL     1      -3.295  15.134  23.017  0.00  0.00    +0.000 A 
ATOM     18  C   UNL     1      -3.188  14.746  21.678  0.00  0.00    +0.000 A 
ENDBRANCH  11  12
BRANCH   1  24
ATOM     19  C   UNL     1       3.028  15.258  19.382  0.00  0.00    +0.000 A 
ATOM     20  C   UNL     1       3.663  16.429  19.831  0.00  0.00    +0.000 A 
ATOM     21  C   UNL     1       3.096  17.222  20.821  0.00  0.00    +0.000 A 
ATOM     22  C   UNL     1       1.883  16.849  21.378  0.00  0.00    +0.000 A 
ATOM     23  C   UNL     1       1.225  15.696  20.930  0.00  0.00    +0.000 A 
ATOM     24  C   UNL     1       1.773  14.878  19.920  0.00  0.00    +0.000 A 
BRANCH  19  26
ATOM     25  C   UNL     1       4.824  14.864  17.862  0.00  0.00    +0.000 C 
ATOM     26  O   UNL     1       3.606  14.424  18.457  0.00  0.00    +0.000 OA
ENDBRANCH  19  26
ENDBRANCH   1  24
BRANCH  10  27
ATOM     27  C   UNL     1      -5.412  12.410  19.627  0.00  0.00    +0.000 C 
BRANCH  27  28
ATOM     28  C   UNL     1      -6.343  11.311  20.099  0.00  0.00    +0.000 A 
ATOM     29  N   UNL     1      -6.949  11.308  21.299  0.00  0.00    +0.000 NA
ATOM     30  N   UNL     1      -7.576  10.120  21.278  0.00  0.00    +0.000 N 
ATOM     31  C   UNL     1      -7.403   9.485  20.081  0.00  0.00    +0.000 A 
ATOM     32  N   UNL     1      -6.627  10.214  19.314  0.00  0.00    +0.000 NA
ATOM     33  H   UNL     1      -8.079   9.810  22.102  0.00  0.00    +0.000 HD
BRANCH  31  34
ATOM     34  O   UNL     1      -7.910   8.326  19.729  0.00  0.00    +0.000 OA
ATOM     35  H   UNL     1      -8.003   7.767  20.509  0.00  0.00    +0.000 HD
ENDBRANCH  31  34
ENDBRANCH  27  28
ENDBRANCH  10  27
TORSDOF 6
ENDMDL
MODEL 3
REMARK VINA RESULT:      -8.1      1.282      1.666
REMARK  Name = 
REMARK  7 active torsions:
REMARK  status: ('A' for Active; 'I' for Inactive)
REMARK    1  A    between atoms: C_1  and  O_2
REMARK    2  A    between atoms: O_2  and  C_3
REMARK    3  A    between atoms: C_8  and  C_9
REMARK    4  A    between atoms: N_18  and  C_19
REMARK    5  A    between atoms: C_19  and  C_20
REMARK    6  A    between atoms: C_23  and  O_24
REMARK    7  A    between atoms: C_26  and  C_27
REMARK                            x       y       z     vdW  Elec       q    Type
REMARK                         _______ _______ _______ _____ _____    ______ ____
ROOT
ATOM      1  C   UNL     1       0.609  10.646  19.885  0.00  0.00    +0.000 C 
ATOM      2  C   UNL     1       1.106  11.858  19.084  0.00  0.00    +0.000 C 
ATOM      3  O   UNL     1       0.328  13.027  19.365  0.00  0.00    +0.000 OA
ATOM      4  C   UNL     1      -1.039  12.863  18.939  0.00  0.00    +0.000 C 
ATOM      5  C   UNL     1      -1.772  11.797  19.787  0.00  0.00    +0.000 C 
ATOM      6  C   UNL     1      -0.926  10.489  19.765  0.00  0.00    +0.000 C 
ATOM      7  O   UNL     1      -1.795  12.200  21.188  0.00  0.00    +0.000 OA
ATOM      8  C   UNL     1      -2.667  13.306  21.440  0.00  0.00    +0.000 C 
ATOM      9  C   UNL     1      -4.106  12.993  21.032  0.00  0.00    +0.000 C 
ATOM     10  N   UNL     1      -4.250  12.623  19.603  0.00  0.00    +0.000 NA
ATOM     11  C   UNL     1      -3.286  11.501  19.298  0.00  0.00    +0.000 C 
ENDROOT
BRANCH  11  12
ATOM     12  C   UNL     1      -3.379  11.039  17.828  0.00  0.00    +0.000 A 
ATOM     13  C   UNL     1      -2.591   9.985  17.325  0.00  0.00    +0.000 A 
ATOM     14  C   UNL     1      -2.675   9.603  15.978  0.00  0.00    +0.000 A 
ATOM     15  C   UNL     1      -3.565  10.244  15.133  0.00  0.00    +0.000 A 
ATOM     16  F   UNL     1      -3.659   9.860  13.854  0.00  0.00    +0.000 F 
ATOM     17  C   UNL     1      -4.355  11.285  15.597  0.00  0.00    +0.000 A 
ATOM     18  C   UNL     1      -4.246  11.695  16.929  0.00  0.00    +0.000 A 
ENDBRANCH  11  12
BRANCH   1  24
ATOM     19  C   UNL     1       1.476   8.217  20.333  0.00  0.00    +0.000 A 
ATOM     20  C   UNL     1       2.130   7.062  19.871  0.00  0.00    +0.000 A 
ATOM     21  C   UNL     1       2.704   7.013  18.608  0.00  0.00    +0.000 A 
ATOM     22  C   UNL     1       2.633   8.129  17.787  0.00  0.00    +0.000 A 
ATOM     23  C   UNL     1       1.970   9.284  18.221  0.00  0.00    +0.000 A 
ATOM     24  C   UNL     1       1.369   9.356  19.496  0.00  0.00    +0.000 A 
BRANCH  19  26
ATOM     25  C   UNL     1       1.639   9.179  22.510  0.00  0.00    +0.000 C 
ATOM     26  O   UNL     1       0.965   8.308  21.604  0.00  0.00    +0.000 OA
ENDBRANCH  19  26
ENDBRANCH   1  24
BRANCH  10  27
ATOM     27  C   UNL     1      -5.677  12.210  19.368  0.00  0.00    +0.000 C 
BRANCH  27  28
ATOM     28  C   UNL     1      -6.543  12.370  20.600  0.00  0.00    +0.000 A 
ATOM     29  N   UNL     1      -7.162  13.516  20.936  0.00  0.00    +0.000 NA
ATOM     30  N   UNL     1      -7.713  13.184  22.115  0.00  0.00    +0.000 N 
ATOM     31  C   UNL     1      -7.487  11.873  22.422  0.00  0.00    +0.000 A 
ATOM     32  N   UNL     1      -6.748  11.331  21.482  0.00  0.00    +0.000 NA
ATOM     33  H   UNL     1      -8.206  13.891  22.649  0.00  0.00    +0.000 HD
BRANCH  31  34
ATOM     34  O   UNL     1      -7.917  11.230  23.484  0.00  0.00    +0.000 OA
ATOM     35  H   UNL     1      -7.167  11.006  24.048  0.00  0.00    +0.000 HD
ENDBRANCH  31  34
ENDBRANCH  27  28
ENDBRANCH  10  27
TORSDOF 6
ENDMDL
MODEL 4
REMARK VINA RESULT:      -7.8      1.866      2.587
REMARK  Name = 
REMARK  7 active torsions:
REMARK  status: ('A' for Active; 'I' for Inactive)
REMARK    1  A    between atoms: C_1  and  O_2
REMARK    2  A    between atoms: O_2  and  C_3
REMARK    3  A    between atoms: C_8  and  C_9
REMARK    4  A    between atoms: N_18  and  C_19
REMARK    5  A    between atoms: C_19  and  C_20
REMARK    6  A    between atoms: C_23  and  O_24
REMARK    7  A    between atoms: C_26  and  C_27
REMARK                            x       y       z     vdW  Elec       q    Type
REMARK                         _______ _______ _______ _____ _____    ______ ____
ROOT
ATOM      1  C   UNL     1       0.626  10.541  19.682  0.00  0.00    +0.000 C 
ATOM      2  C   UNL     1       1.145  11.765  18.914  0.00  0.00    +0.000 C 
ATOM      3  O   UNL     1       0.335  12.919  19.157  0.00  0.00    +0.000 OA
ATOM      4  C   UNL     1      -1.004  12.737  18.659  0.00  0.00    +0.000 C 
ATOM      5  C   UNL     1      -1.765  11.655  19.461  0.00  0.00    +0.000 C 
ATOM      6  C   UNL     1      -0.898  10.361  19.479  0.00  0.00    +0.000 C 
ATOM      7  O   UNL     1      -1.869  12.051  20.861  0.00  0.00    +0.000 OA
ATOM      8  C   UNL     1      -2.770  13.141  21.070  0.00  0.00    +0.000 C 
ATOM      9  C   UNL     1      -4.181  12.809  20.584  0.00  0.00    +0.000 C 
ATOM     10  N   UNL     1      -4.242  12.444  19.148  0.00  0.00    +0.000 NA
ATOM     11  C   UNL     1      -3.246  11.338  18.890  0.00  0.00    +0.000 C 
ENDROOT
BRANCH  11  12
ATOM     12  C   UNL     1      -3.252  10.882  17.415  0.00  0.00    +0.000 A 
ATOM     13  C   UNL     1      -2.536   9.750  16.981  0.00  0.00    +0.000 A 
ATOM     14  C   UNL     1      -2.536   9.374  15.629  0.00  0.00    +0.000 A 
ATOM     15  C   UNL     1      -3.275  10.101  14.711  0.00  0.00    +0.000 A 
ATOM     16  F   UNL     1      -3.292   9.722  13.427  0.00  0.00    +0.000 F 
ATOM     17  C   UNL     1      -3.991  11.220  15.106  0.00  0.00    +0.000 A 
ATOM     18  C   UNL     1      -3.961  11.621  16.445  0.00  0.00    +0.000 A 
ENDBRANCH  11  12
BRANCH   1  24
ATOM     19  C   UNL     1       1.521   8.131  20.174  0.00  0.00    +0.000 A 
ATOM     20  C   UNL     1       2.215   6.987  19.743  0.00  0.00    +0.000 A 
ATOM     21  C   UNL     1       2.840   6.946  18.504  0.00  0.00    +0.000 A 
ATOM     22  C   UNL     1       2.781   8.057  17.677  0.00  0.00    +0.000 A 
ATOM     23  C   UNL     1       2.078   9.201  18.079  0.00  0.00    +0.000 A 
ATOM     24  C   UNL     1       1.426   9.264  19.329  0.00  0.00    +0.000 A 
BRANCH  19  26
ATOM     25  C   UNL     1       1.577   9.103  22.352  0.00  0.00    +0.000 C 
ATOM     26  O   UNL     1       0.958   8.216  21.423  0.00  0.00    +0.000 OA
ENDBRANCH  19  26
ENDBRANCH   1  24
BRANCH  10  27
ATOM     27  C   UNL     1      -5.648  12.010  18.835  0.00  0.00    +0.000 C 
BRANCH  27  28
ATOM     28  C   UNL     1      -6.483  13.122  18.233  0.00  0.00    +0.000 A 
ATOM     29  N   UNL     1      -7.036  13.063  17.009  0.00  0.00    +0.000 NA
ATOM     30  N   UNL     1      -7.583  14.286  16.905  0.00  0.00    +0.000 N 
ATOM     31  C   UNL     1      -7.418  15.006  18.053  0.00  0.00    +0.000 A 
ATOM     32  N   UNL     1      -6.724  14.296  18.913  0.00  0.00    +0.000 NA
ATOM     33  H   UNL     1      -8.030  14.557  16.036  0.00  0.00    +0.000 HD
BRANCH  31  34
ATOM     34  O   UNL     1      -7.861  16.220  18.288  0.00  0.00    +0.000 OA
ATOM     35  H   UNL     1      -7.249  16.676  18.877  0.00  0.00    +0.000 HD
ENDBRANCH  31  34
ENDBRANCH  27  28
ENDBRANCH  10  27
TORSDOF 6
ENDMDL
MODEL 5
REMARK VINA RESULT:      -7.8      3.552      5.928
REMARK  Name = 
REMARK  7 active torsions:
REMARK  status: ('A' for Active; 'I' for Inactive)
REMARK    1  A    between atoms: C_1  and  O_2
REMARK    2  A    between atoms: O_2  and  C_3
REMARK    3  A    between atoms: C_8  and  C_9
REMARK    4  A    between atoms: N_18  and  C_19
REMARK    5  A    between atoms: C_19  and  C_20
REMARK    6  A    between atoms: C_23  and  O_24
REMARK    7  A    between atoms: C_26  and  C_27
REMARK                            x       y       z     vdW  Elec       q    Type
REMARK                         _______ _______ _______ _____ _____    ______ ____
ROOT
ATOM      1  C   UNL     1       1.376  13.467  19.726  0.00  0.00    +0.000 C 
ATOM      2  C   UNL     1       1.634  12.199  20.553  0.00  0.00    +0.000 C 
ATOM      3  O   UNL     1       0.807  11.114  20.121  0.00  0.00    +0.000 OA
ATOM      4  C   UNL     1      -0.589  11.396  20.340  0.00  0.00    +0.000 C 
ATOM      5  C   UNL     1      -1.086  12.541  19.426  0.00  0.00    +0.000 C 
ATOM      6  C   UNL     1      -0.139  13.764  19.617  0.00  0.00    +0.000 C 
ATOM      7  O   UNL     1      -0.929  12.167  18.026  0.00  0.00    +0.000 OA
ATOM      8  C   UNL     1      -1.847  11.152  17.610  0.00  0.00    +0.000 C 
ATOM      9  C   UNL     1      -3.298  11.590  17.806  0.00  0.00    +0.000 C 
ATOM     10  N   UNL     1      -3.626  11.946  19.208  0.00  0.00    +0.000 NA
ATOM     11  C   UNL     1      -2.624  12.968  19.690  0.00  0.00    +0.000 C 
ENDROOT
BRANCH  11  12
ATOM     12  C   UNL     1      -2.899  13.410  21.144  0.00  0.00    +0.000 A 
ATOM     13  C   UNL     1      -2.863  14.764  21.532  0.00  0.00    +0.000 A 
ATOM     14  C   UNL     1      -3.089  15.136  22.866  0.00  0.00    +0.000 A 
ATOM     15  C   UNL     1      -3.385  14.168  23.811  0.00  0.00    +0.000 A 
ATOM     16  F   UNL     1      -3.624  14.532  25.077  0.00  0.00    +0.000 F 
ATOM     17  C   UNL     1      -3.429  12.827  23.462  0.00  0.00    +0.000 A 
ATOM     18  C   UNL     1      -3.165  12.449  22.141  0.00  0.00    +0.000 A 
ENDBRANCH  11  12
BRANCH   1  24
ATOM     19  C   UNL     1       2.817  15.634  19.442  0.00  0.00    +0.000 A 
ATOM     20  C   UNL     1       3.470  16.736  20.018  0.00  0.00    +0.000 A 
ATOM     21  C   UNL     1       3.530  16.900  21.396  0.00  0.00    +0.000 A 
ATOM     22  C   UNL     1       2.937  15.954  22.218  0.00  0.00    +0.000 A 
ATOM     23  C   UNL     1       2.265  14.857  21.662  0.00  0.00    +0.000 A 
ATOM     24  C   UNL     1       2.180  14.673  20.266  0.00  0.00    +0.000 A 
BRANCH  19  26
ATOM     25  C   UNL     1       3.305  16.469  17.261  0.00  0.00    +0.000 C 
ATOM     26  O   UNL     1       2.808  15.418  18.085  0.00  0.00    +0.000 OA
ENDBRANCH  19  26
ENDBRANCH   1  24
BRANCH  10  27
ATOM     27  C   UNL     1      -5.029  12.486  19.238  0.00  0.00    +0.000 C 
BRANCH  27  28
ATOM     28  C   UNL     1      -6.036  11.472  19.743  0.00  0.00    +0.000 A 
ATOM     29  N   UNL     1      -6.563  11.494  20.980  0.00  0.00    +0.000 NA
ATOM     30  N   UNL     1      -7.307  10.375  20.971  0.00  0.00    +0.000 N 
ATOM     31  C   UNL     1      -7.272   9.762  19.752  0.00  0.00    +0.000 A 
ATOM     32  N   UNL     1      -6.476  10.432  18.953  0.00  0.00    +0.000 NA
ATOM     33  H   UNL     1      -7.787  10.093  21.818  0.00  0.00    +0.000 HD
BRANCH  31  34
ATOM     34  O   UNL     1      -7.915   8.669  19.406  0.00  0.00    +0.000 OA
ATOM     35  H   UNL     1      -8.305   8.265  20.190  0.00  0.00    +0.000 HD
ENDBRANCH  31  34
ENDBRANCH  27  28
ENDBRANCH  10  27
TORSDOF 6
ENDMDL
MODEL 6
REMARK VINA RESULT:      -7.7      1.869      2.337
REMARK  Name = 
REMARK  7 active torsions:
REMARK  status: ('A' for Active; 'I' for Inactive)
REMARK    1  A    between atoms: C_1  and  O_2
REMARK    2  A    between atoms: O_2  and  C_3
REMARK    3  A    between atoms: C_8  and  C_9
REMARK    4  A    between atoms: N_18  and  C_19
REMARK    5  A    between atoms: C_19  and  C_20
REMARK    6  A    between atoms: C_23  and  O_24
REMARK    7  A    between atoms: C_26  and  C_27
REMARK                            x       y       z     vdW  Elec       q    Type
REMARK                         _______ _______ _______ _____ _____    ______ ____
ROOT
ATOM      1  C   UNL     1       0.731  10.568  19.725  0.00  0.00    +0.000 C 
ATOM      2  C   UNL     1       1.252  11.794  18.960  0.00  0.00    +0.000 C 
ATOM      3  O   UNL     1       0.468  12.959  19.240  0.00  0.00    +0.000 OA
ATOM      4  C   UNL     1      -0.886  12.806  18.773  0.00  0.00    +0.000 C 
ATOM      5  C   UNL     1      -1.645  11.726  19.581  0.00  0.00    +0.000 C 
ATOM      6  C   UNL     1      -0.801  10.417  19.559  0.00  0.00    +0.000 C 
ATOM      7  O   UNL     1      -1.707  12.104  20.988  0.00  0.00    +0.000 OA
ATOM      8  C   UNL     1      -2.583  13.207  21.235  0.00  0.00    +0.000 C 
ATOM      9  C   UNL     1      -4.011  12.905  20.780  0.00  0.00    +0.000 C 
ATOM     10  N   UNL     1      -4.116  12.561  19.342  0.00  0.00    +0.000 NA
ATOM     11  C   UNL     1      -3.145  11.443  19.044  0.00  0.00    +0.000 C 
ENDROOT
BRANCH  11  12
ATOM     12  C   UNL     1      -3.197  11.006  17.564  0.00  0.00    +0.000 A 
ATOM     13  C   UNL     1      -4.029  11.647  16.625  0.00  0.00    +0.000 A 
ATOM     14  C   UNL     1      -4.077  11.213  15.292  0.00  0.00    +0.000 A 
ATOM     15  C   UNL     1      -3.276  10.162  14.879  0.00  0.00    +0.000 A 
ATOM     16  F   UNL     1      -3.308   9.767  13.601  0.00  0.00    +0.000 F 
ATOM     17  C   UNL     1      -2.446   9.510  15.778  0.00  0.00    +0.000 A 
ATOM     18  C   UNL     1      -2.424   9.915  17.117  0.00  0.00    +0.000 A 
ENDBRANCH  11  12
BRANCH   1  24
ATOM     19  C   UNL     1       1.597   8.137  20.162  0.00  0.00    +0.000 A 
ATOM     20  C   UNL     1       2.259   6.988  19.699  0.00  0.00    +0.000 A 
ATOM     21  C   UNL     1       2.852   6.953  18.442  0.00  0.00    +0.000 A 
ATOM     22  C   UNL     1       2.790   8.076  17.632  0.00  0.00    +0.000 A 
ATOM     23  C   UNL     1       2.118   9.226  18.068  0.00  0.00    +0.000 A 
ATOM     24  C   UNL     1       1.499   9.284  19.335  0.00  0.00    +0.000 A 
BRANCH  19  26
ATOM     25  C   UNL     1       1.752   9.043  22.363  0.00  0.00    +0.000 C 
ATOM     26  O   UNL     1       1.068   8.215  21.426  0.00  0.00    +0.000 OA
ENDBRANCH  19  26
ENDBRANCH   1  24
BRANCH  10  27
ATOM     27  C   UNL     1      -5.536  12.156  19.059  0.00  0.00    +0.000 C 
BRANCH  27  28
ATOM     28  C   UNL     1      -6.459  13.344  18.881  0.00  0.00    +0.000 A 
ATOM     29  N   UNL     1      -7.242  13.835  19.857  0.00  0.00    +0.000 NA
ATOM     30  N   UNL     1      -7.913  14.797  19.201  0.00  0.00    +0.000 N 
ATOM     31  C   UNL     1      -7.486  14.911  17.909  0.00  0.00    +0.000 A 
ATOM     32  N   UNL     1      -6.566  14.004  17.676  0.00  0.00    +0.000 NA
ATOM     33  H   UNL     1      -8.640  15.313  19.684  0.00  0.00    +0.000 HD
BRANCH  31  34
ATOM     34  O   UNL     1      -7.914  15.774  17.015  0.00  0.00    +0.000 OA
ATOM     35  H   UNL     1      -8.878  15.792  17.024  0.00  0.00    +0.000 HD
ENDBRANCH  31  34
ENDBRANCH  27  28
ENDBRANCH  10  27
TORSDOF 6
ENDMDL
MODEL 7
REMARK VINA RESULT:      -7.6      3.263      5.440
REMARK  Name = 
REMARK  7 active torsions:
REMARK  status: ('A' for Active; 'I' for Inactive)
REMARK    1  A    between atoms: C_1  and  O_2
REMARK    2  A    between atoms: O_2  and  C_3
REMARK    3  A    between atoms: C_8  and  C_9
REMARK    4  A    between atoms: N_18  and  C_19
REMARK    5  A    between atoms: C_19  and  C_20
REMARK    6  A    between atoms: C_23  and  O_24
REMARK    7  A    between atoms: C_26  and  C_27
REMARK                            x       y       z     vdW  Elec       q    Type
REMARK                         _______ _______ _______ _____ _____    ______ ____
ROOT
ATOM      1  C   UNL     1       0.726  12.688  18.579  0.00  0.00    +0.000 C 
ATOM      2  C   UNL     1       1.006  11.421  19.400  0.00  0.00    +0.000 C 
ATOM      3  O   UNL     1      -0.024  10.443  19.224  0.00  0.00    +0.000 OA
ATOM      4  C   UNL     1      -1.289  10.913  19.729  0.00  0.00    +0.000 C 
ATOM      5  C   UNL     1      -1.835  12.089  18.883  0.00  0.00    +0.000 C 
ATOM      6  C   UNL     1      -0.727  13.180  18.791  0.00  0.00    +0.000 C 
ATOM      7  O   UNL     1      -2.046  11.658  17.506  0.00  0.00    +0.000 OA
ATOM      8  C   UNL     1      -3.152  10.763  17.362  0.00  0.00    +0.000 C 
ATOM      9  C   UNL     1      -4.456  11.394  17.848  0.00  0.00    +0.000 C 
ATOM     10  N   UNL     1      -4.412  11.829  19.265  0.00  0.00    +0.000 NA
ATOM     11  C   UNL     1      -3.209  12.722  19.456  0.00  0.00    +0.000 C 
ENDROOT
BRANCH  11  12
ATOM     12  C   UNL     1      -3.092  13.237  20.907  0.00  0.00    +0.000 A 
ATOM     13  C   UNL     1      -2.923  12.364  21.998  0.00  0.00    +0.000 A 
ATOM     14  C   UNL     1      -2.847  12.857  23.309  0.00  0.00    +0.000 A 
ATOM     15  C   UNL     1      -2.907  14.222  23.538  0.00  0.00    +0.000 A 
ATOM     16  F   UNL     1      -2.809  14.688  24.789  0.00  0.00    +0.000 F 
ATOM     17  C   UNL     1      -3.073  15.108  22.485  0.00  0.00    +0.000 A 
ATOM     18  C   UNL     1      -3.188  14.618  21.181  0.00  0.00    +0.000 A 
ENDBRANCH  11  12
BRANCH   1  24
ATOM     19  C   UNL     1       1.653  14.752  19.895  0.00  0.00    +0.000 A 
ATOM     20  C   UNL     1       2.685  15.678  20.121  0.00  0.00    +0.000 A 
ATOM     21  C   UNL     1       3.826  15.695  19.329  0.00  0.00    +0.000 A 
ATOM     22  C   UNL     1       3.946  14.781  18.293  0.00  0.00    +0.000 A 
ATOM     23  C   UNL     1       2.936  13.837  18.063  0.00  0.00    +0.000 A 
ATOM     24  C   UNL     1       1.772  13.793  18.860  0.00  0.00    +0.000 A 
BRANCH  19  26
ATOM     25  C   UNL     1       0.590  14.470  22.013  0.00  0.00    +0.000 C 
ATOM     26  O   UNL     1       0.488  14.766  20.622  0.00  0.00    +0.000 OA
ENDBRANCH  19  26
ENDBRANCH   1  24
BRANCH  10  27
ATOM     27  C   UNL     1      -5.695  12.550  19.573  0.00  0.00    +0.000 C 
BRANCH  27  28
ATOM     28  C   UNL     1      -6.527  11.841  20.623  0.00  0.00    +0.000 A 
ATOM     29  N   UNL     1      -7.355  10.817  20.354  0.00  0.00    +0.000 NA
ATOM     30  N   UNL     1      -7.911  10.601  21.558  0.00  0.00    +0.000 N 
ATOM     31  C   UNL     1      -7.375  11.421  22.510  0.00  0.00    +0.000 A 
ATOM     32  N   UNL     1      -6.496  12.218  21.948  0.00  0.00    +0.000 NA
ATOM     33  H   UNL     1      -8.642   9.905  21.649  0.00  0.00    +0.000 HD
BRANCH  31  34
ATOM     34  O   UNL     1      -7.676  11.439  23.788  0.00  0.00    +0.000 OA
ATOM     35  H   UNL     1      -8.350  10.773  23.967  0.00  0.00    +0.000 HD
ENDBRANCH  31  34
ENDBRANCH  27  28
ENDBRANCH  10  27
TORSDOF 6
ENDMDL
MODEL 8
REMARK VINA RESULT:      -7.6      1.757      2.057
REMARK  Name = 
REMARK  7 active torsions:
REMARK  status: ('A' for Active; 'I' for Inactive)
REMARK    1  A    between atoms: C_1  and  O_2
REMARK    2  A    between atoms: O_2  and  C_3
REMARK    3  A    between atoms: C_8  and  C_9
REMARK    4  A    between atoms: N_18  and  C_19
REMARK    5  A    between atoms: C_19  and  C_20
REMARK    6  A    between atoms: C_23  and  O_24
REMARK    7  A    between atoms: C_26  and  C_27
REMARK                            x       y       z     vdW  Elec       q    Type
REMARK                         _______ _______ _______ _____ _____    ______ ____
ROOT
ATOM      1  C   UNL     1       0.786  10.833  19.925  0.00  0.00    +0.000 C 
ATOM      2  C   UNL     1       1.248  12.053  19.114  0.00  0.00    +0.000 C 
ATOM      3  O   UNL     1       0.527  13.233  19.484  0.00  0.00    +0.000 OA
ATOM      4  C   UNL     1      -0.874  13.114  19.169  0.00  0.00    +0.000 C 
ATOM      5  C   UNL     1      -1.564  12.044  20.050  0.00  0.00    +0.000 C 
ATOM      6  C   UNL     1      -0.757  10.717  19.928  0.00  0.00    +0.000 C 
ATOM      7  O   UNL     1      -1.461  12.412  21.457  0.00  0.00    +0.000 OA
ATOM      8  C   UNL     1      -2.280  13.532  21.805  0.00  0.00    +0.000 C 
ATOM      9  C   UNL     1      -3.756  13.265  21.510  0.00  0.00    +0.000 C 
ATOM     10  N   UNL     1      -4.026  12.935  20.089  0.00  0.00    +0.000 NA
ATOM     11  C   UNL     1      -3.120  11.798  19.680  0.00  0.00    +0.000 C 
ENDROOT
BRANCH  11  12
ATOM     12  C   UNL     1      -3.345  11.376  18.212  0.00  0.00    +0.000 A 
ATOM     13  C   UNL     1      -4.478  11.783  17.482  0.00  0.00    +0.000 A 
ATOM     14  C   UNL     1      -4.672  11.361  16.158  0.00  0.00    +0.000 A 
ATOM     15  C   UNL     1      -3.724  10.561  15.544  0.00  0.00    +0.000 A 
ATOM     16  F   UNL     1      -3.901  10.182  14.273  0.00  0.00    +0.000 F 
ATOM     17  C   UNL     1      -2.596  10.142  16.234  0.00  0.00    +0.000 A 
ATOM     18  C   UNL     1      -2.420  10.528  17.567  0.00  0.00    +0.000 A 
ENDBRANCH  11  12
BRANCH   1  24
ATOM     19  C   UNL     1       1.726   8.416  20.277  0.00  0.00    +0.000 A 
ATOM     20  C   UNL     1       2.300   7.251  19.740  0.00  0.00    +0.000 A 
ATOM     21  C   UNL     1       2.658   7.174  18.400  0.00  0.00    +0.000 A 
ATOM     22  C   UNL     1       2.448   8.271  17.578  0.00  0.00    +0.000 A 
ATOM     23  C   UNL     1       1.860   9.435  18.090  0.00  0.00    +0.000 A 
ATOM     24  C   UNL     1       1.478   9.535  19.444  0.00  0.00    +0.000 A 
BRANCH  19  26
ATOM     25  C   UNL     1       0.115   8.168  22.019  0.00  0.00    +0.000 C 
ATOM     26  O   UNL     1       1.431   8.535  21.613  0.00  0.00    +0.000 OA
ENDBRANCH  19  26
ENDBRANCH   1  24
BRANCH  10  27
ATOM     27  C   UNL     1      -5.477  12.564  19.963  0.00  0.00    +0.000 C 
BRANCH  27  28
ATOM     28  C   UNL     1      -6.313  13.065  21.123  0.00  0.00    +0.000 A 
ATOM     29  N   UNL     1      -6.709  14.342  21.262  0.00  0.00    +0.000 NA
ATOM     30  N   UNL     1      -7.327  14.300  22.455  0.00  0.00    +0.000 N 
ATOM     31  C   UNL     1      -7.355  13.031  22.959  0.00  0.00    +0.000 A 
ATOM     32  N   UNL     1      -6.720  12.226  22.138  0.00  0.00    +0.000 NA
ATOM     33  H   UNL     1      -7.685  15.159  22.859  0.00  0.00    +0.000 HD
BRANCH  31  34
ATOM     34  O   UNL     1      -7.911  12.647  24.085  0.00  0.00    +0.000 OA
ATOM     35  H   UNL     1      -7.460  11.860  24.413  0.00  0.00    +0.000 HD
ENDBRANCH  31  34
ENDBRANCH  27  28
ENDBRANCH  10  27
TORSDOF 6
ENDMDL
MODEL 9
REMARK VINA RESULT:      -7.5      4.010      5.663
REMARK  Name = 
REMARK  7 active torsions:
REMARK  status: ('A' for Active; 'I' for Inactive)
REMARK    1  A    between atoms: C_1  and  O_2
REMARK    2  A    between atoms: O_2  and  C_3
REMARK    3  A    between atoms: C_8  and  C_9
REMARK    4  A    between atoms: N_18  and  C_19
REMARK    5  A    between atoms: C_19  and  C_20
REMARK    6  A    between atoms: C_23  and  O_24
REMARK    7  A    between atoms: C_26  and  C_27
REMARK                            x       y       z     vdW  Elec       q    Type
REMARK                         _______ _______ _______ _____ _____    ______ ____
ROOT
ATOM      1  C   UNL     1       2.531  15.825  20.662  0.00  0.00    +0.000 C 
ATOM      2  C   UNL     1       1.598  16.649  19.763  0.00  0.00    +0.000 C 
ATOM      3  O   UNL     1       0.361  16.944  20.420  0.00  0.00    +0.000 OA
ATOM      4  C   UNL     1      -0.388  15.744  20.694  0.00  0.00    +0.000 C 
ATOM      5  C   UNL     1       0.318  14.864  21.753  0.00  0.00    +0.000 C 
ATOM      6  C   UNL     1       1.785  14.620  21.285  0.00  0.00    +0.000 C 
ATOM      7  O   UNL     1       0.447  15.596  23.007  0.00  0.00    +0.000 OA
ATOM      8  C   UNL     1      -0.801  15.776  23.682  0.00  0.00    +0.000 C 
ATOM      9  C   UNL     1      -1.468  14.439  24.000  0.00  0.00    +0.000 C 
ATOM     10  N   UNL     1      -1.722  13.602  22.802  0.00  0.00    +0.000 NA
ATOM     11  C   UNL     1      -0.428  13.457  22.036  0.00  0.00    +0.000 C 
ENDROOT
BRANCH  11  12
ATOM     12  C   UNL     1      -0.595  12.583  20.774  0.00  0.00    +0.000 A 
ATOM     13  C   UNL     1      -1.479  12.933  19.735  0.00  0.00    +0.000 A 
ATOM     14  C   UNL     1      -1.632  12.107  18.612  0.00  0.00    +0.000 A 
ATOM     15  C   UNL     1      -0.883  10.947  18.501  0.00  0.00    +0.000 A 
ATOM     16  F   UNL     1      -1.015  10.175  17.416  0.00  0.00    +0.000 F 
ATOM     17  C   UNL     1      -0.004  10.574  19.507  0.00  0.00    +0.000 A 
ATOM     18  C   UNL     1       0.122  11.375  20.646  0.00  0.00    +0.000 A 
ENDBRANCH  11  12
BRANCH   1  24
ATOM     19  C   UNL     1       3.826  14.784  18.640  0.00  0.00    +0.000 A 
ATOM     20  C   UNL     1       5.045  14.495  18.003  0.00  0.00    +0.000 A 
ATOM     21  C   UNL     1       6.261  14.782  18.610  0.00  0.00    +0.000 A 
ATOM     22  C   UNL     1       6.271  15.362  19.869  0.00  0.00    +0.000 A 
ATOM     23  C   UNL     1       5.066  15.675  20.512  0.00  0.00    +0.000 A 
ATOM     24  C   UNL     1       3.818  15.403  19.914  0.00  0.00    +0.000 A 
BRANCH  19  26
ATOM     25  C   UNL     1       2.278  13.058  18.076  0.00  0.00    +0.000 C 
ATOM     26  O   UNL     1       2.615  14.443  18.087  0.00  0.00    +0.000 OA
ENDBRANCH  19  26
ENDBRANCH   1  24
BRANCH  10  27
ATOM     27  C   UNL     1      -2.248  12.271  23.263  0.00  0.00    +0.000 C 
BRANCH  27  28
ATOM     28  C   UNL     1      -3.705  12.329  23.674  0.00  0.00    +0.000 A 
ATOM     29  N   UNL     1      -4.155  11.957  24.886  0.00  0.00    +0.000 NA
ATOM     30  N   UNL     1      -5.482  12.105  24.732  0.00  0.00    +0.000 N 
ATOM     31  C   UNL     1      -5.790  12.612  23.503  0.00  0.00    +0.000 A 
ATOM     32  N   UNL     1      -4.686  12.765  22.809  0.00  0.00    +0.000 NA
ATOM     33  H   UNL     1      -6.102  11.832  25.487  0.00  0.00    +0.000 HD
BRANCH  31  34
ATOM     34  O   UNL     1      -6.989  12.903  23.052  0.00  0.00    +0.000 OA
ATOM     35  H   UNL     1      -7.261  13.762  23.397  0.00  0.00    +0.000 HD
ENDBRANCH  31  34
ENDBRANCH  27  28
ENDBRANCH  10  27
TORSDOF 6
ENDMDL
