MODEL 1
REMARK VINA RESULT:      -8.6      0.000      0.000
REMARK  Name = 
REMARK  13 active torsions:
REMARK  status: ('A' for Active; 'I' for Inactive)
REMARK    1  A    between atoms: C_1  and  O_2
REMARK    2  A    between atoms: O_2  and  C_3
REMARK    3  A    between atoms: C_6  and  C_7
REMARK    4  A    between atoms: C_7  and  O_8
REMARK    5  A    between atoms: O_8  and  C_9
REMARK    6  A    between atoms: C_14  and  O_15
REMARK    7  A    between atoms: O_15  and  C_16
REMARK    8  A    between atoms: C_16  and  C_17
REMARK    9  A    between atoms: C_20  and  O_21
REMARK   10  A    between atoms: O_21  and  C_22
REMARK   11  A    between atoms: C_26  and  O_27
REMARK   12  A    between atoms: C_29  and  C_30
REMARK   13  A    between atoms: C_29  and  C_31
REMARK                            x       y       z     vdW  Elec       q    Type
REMARK                         _______ _______ _______ _____ _____    ______ ____
ROOT
ATOM      1  C   UNL     1       3.548   6.785  18.346  0.00  0.00    +0.000 A 
ATOM      2  C   UNL     1       2.700   6.189  19.289  0.00  0.00    +0.000 A 
ATOM      3  C   UNL     1       2.928   4.891  19.730  0.00  0.00    +0.000 A 
ATOM      4  C   UNL     1       4.040   4.182  19.284  0.00  0.00    +0.000 A 
ATOM      5  C   UNL     1       4.901   4.785  18.365  0.00  0.00    +0.000 A 
ATOM      6  C   UNL     1       4.700   6.096  17.925  0.00  0.00    +0.000 A 
ATOM      7  C   UNL     1       4.346   2.802  19.782  0.00  0.00    +0.000 C 
ATOM      8  C   UNL     1       3.440   2.429  20.941  0.00  0.00    +0.000 C 
ATOM      9  C   UNL     1       2.008   2.939  20.719  0.00  0.00    +0.000 C 
ATOM     10  C   UNL     1       1.298   2.319  19.502  0.00  0.00    +0.000 C 
ATOM     11  C   UNL     1       1.183   2.615  21.972  0.00  0.00    +0.000 C 
ATOM     12  O   UNL     1       2.000   4.375  20.594  0.00  0.00    +0.000 OA
ENDROOT
BRANCH   7  13
ATOM     13  O   UNL     1       4.226   1.837  18.741  0.00  0.00    +0.000 OA
ATOM     14  H   UNL     1       3.863   2.278  17.954  0.00  0.00    +0.000 HD
ENDBRANCH   7  13
BRANCH   1  15
ATOM     15  O   UNL     1       3.305   8.029  17.813  0.00  0.00    +0.000 OA
BRANCH  15  16
ATOM     16  C   UNL     1       1.914   8.356  17.679  0.00  0.00    +0.000 C 
BRANCH  16  20
ATOM     17  C   UNL     1       1.063  12.169  19.523  0.00  0.00    +0.000 A 
ATOM     18  C   UNL     1       1.966  12.082  18.462  0.00  0.00    +0.000 A 
ATOM     19  C   UNL     1       2.252  10.846  17.877  0.00  0.00    +0.000 A 
ATOM     20  C   UNL     1       1.627   9.679  18.337  0.00  0.00    +0.000 A 
ATOM     21  C   UNL     1       0.685   9.776  19.368  0.00  0.00    +0.000 A 
ATOM     22  C   UNL     1       0.411  11.011  19.952  0.00  0.00    +0.000 A 
ATOM     23  F   UNL     1      -0.516  11.048  20.919  0.00  0.00    +0.000 F 
BRANCH  17  25
ATOM     24  C   UNL     1       1.696  13.758  21.141  0.00  0.00    +0.000 C 
ATOM     25  O   UNL     1       0.874  13.430  20.024  0.00  0.00    +0.000 OA
ENDBRANCH  17  25
ENDBRANCH  16  20
ENDBRANCH  15  16
ENDBRANCH   1  15
BRANCH   6  26
ATOM     26  O   UNL     1       5.586   6.739  17.089  0.00  0.00    +0.000 OA
BRANCH  26  27
ATOM     27  C   UNL     1       6.750   5.970  16.759  0.00  0.00    +0.000 C 
BRANCH  27  28
ATOM     28  C   UNL     1       6.600   5.168  15.492  0.00  0.00    +0.000 A 
ATOM     29  C   UNL     1       5.635   4.166  15.364  0.00  0.00    +0.000 A 
ATOM     30  C   UNL     1       5.470   3.497  14.150  0.00  0.00    +0.000 A 
ATOM     31  C   UNL     1       6.251   3.822  13.035  0.00  0.00    +0.000 A 
ATOM     32  C   UNL     1       7.198   4.841  13.159  0.00  0.00    +0.000 A 
ATOM     33  F   UNL     1       7.962   5.225  12.126  0.00  0.00    +0.000 F 
ATOM     34  C   UNL     1       7.370   5.511  14.369  0.00  0.00    +0.000 A 
BRANCH  31  35
ATOM     35  O   UNL     1       5.975   3.080  11.921  0.00  0.00    +0.000 OA
ATOM     36  C   UNL     1       4.622   3.058  11.480  0.00  0.00    +0.000 C 
ENDBRANCH  31  35
ENDBRANCH  27  28
ENDBRANCH  26  27
ENDBRANCH   6  26
TORSDOF 9
ENDMDL
MODEL 2
REMARK VINA RESULT:      -8.5      2.767      7.485
REMARK  Name = 
REMARK  13 active torsions:
REMARK  status: ('A' for Active; 'I' for Inactive)
REMARK    1  A    between atoms: C_1  and  O_2
REMARK    2  A    between atoms: O_2  and  C_3
REMARK    3  A    between atoms: C_6  and  C_7
REMARK    4  A    between atoms: C_7  and  O_8
REMARK    5  A    between atoms: O_8  and  C_9
REMARK    6  A    between atoms: C_14  and  O_15
REMARK    7  A    between atoms: O_15  and  C_16
REMARK    8  A    between atoms: C_16  and  C_17
REMARK    9  A    between atoms: C_20  and  O_21
REMARK   10  A    between atoms: O_21  and  C_22
REMARK   11  A    between atoms: C_26  and  O_27
REMARK   12  A    between atoms: C_29  and  C_30
REMARK   13  A    between atoms: C_29  and  C_31
REMARK                            x       y       z     vdW  Elec       q    Type
REMARK                         _______ _______ _______ _____ _____    ______ ____
ROOT
ATOM      1  C   UNL     1       1.254   8.631  19.945  0.00  0.00    +0.000 A 
ATOM      2  C   UNL     1       0.453   9.394  20.804  0.00  0.00    +0.000 A 
ATOM      3  C   UNL     1      -0.276  10.476  20.324  0.00  0.00    +0.000 A 
ATOM      4  C   UNL     1      -0.265  10.782  18.966  0.00  0.00    +0.000 A 
ATOM      5  C   UNL     1       0.511  10.006  18.104  0.00  0.00    +0.000 A 
ATOM      6  C   UNL     1       1.234   8.902  18.565  0.00  0.00    +0.000 A 
ATOM      7  C   UNL     1      -1.083  11.906  18.407  0.00  0.00    +0.000 C 
ATOM      8  C   UNL     1      -2.032  12.462  19.453  0.00  0.00    +0.000 C 
ATOM      9  C   UNL     1      -1.367  12.520  20.837  0.00  0.00    +0.000 C 
ATOM     10  C   UNL     1      -0.157  13.469  20.917  0.00  0.00    +0.000 C 
ATOM     11  C   UNL     1      -2.415  12.992  21.854  0.00  0.00    +0.000 C 
ATOM     12  O   UNL     1      -0.966  11.201  21.257  0.00  0.00    +0.000 OA
ENDROOT
BRANCH   7  13
ATOM     13  O   UNL     1      -0.254  12.948  17.900  0.00  0.00    +0.000 OA
ATOM     14  H   UNL     1       0.477  13.091  18.526  0.00  0.00    +0.000 HD
ENDBRANCH   7  13
BRANCH   1  15
ATOM     15  O   UNL     1       2.064   7.614  20.395  0.00  0.00    +0.000 OA
BRANCH  15  16
ATOM     16  C   UNL     1       1.379   6.594  21.136  0.00  0.00    +0.000 C 
BRANCH  16  20
ATOM     17  C   UNL     1       2.287   2.729  19.431  0.00  0.00    +0.000 A 
ATOM     18  C   UNL     1       1.594   3.685  18.688  0.00  0.00    +0.000 A 
ATOM     19  C   UNL     1       1.287   4.928  19.245  0.00  0.00    +0.000 A 
ATOM     20  C   UNL     1       1.682   5.239  20.554  0.00  0.00    +0.000 A 
ATOM     21  C   UNL     1       2.420   4.297  21.279  0.00  0.00    +0.000 A 
ATOM     22  C   UNL     1       2.716   3.055  20.720  0.00  0.00    +0.000 A 
ATOM     23  F   UNL     1       3.445   2.202  21.452  0.00  0.00    +0.000 F 
BRANCH  17  25
ATOM     24  C   UNL     1       3.752   1.481  18.076  0.00  0.00    +0.000 C 
ATOM     25  O   UNL     1       2.518   1.543  18.785  0.00  0.00    +0.000 OA
ENDBRANCH  17  25
ENDBRANCH  16  20
ENDBRANCH  15  16
ENDBRANCH   1  15
BRANCH   6  26
ATOM     26  O   UNL     1       1.934   8.071  17.718  0.00  0.00    +0.000 OA
BRANCH  26  27
ATOM     27  C   UNL     1       3.357   8.246  17.762  0.00  0.00    +0.000 C 
BRANCH  27  28
ATOM     28  C   UNL     1       4.125   7.048  17.266  0.00  0.00    +0.000 A 
ATOM     29  C   UNL     1       4.608   6.972  15.957  0.00  0.00    +0.000 A 
ATOM     30  C   UNL     1       5.385   5.885  15.553  0.00  0.00    +0.000 A 
ATOM     31  C   UNL     1       5.708   4.858  16.449  0.00  0.00    +0.000 A 
ATOM     32  C   UNL     1       5.244   4.949  17.762  0.00  0.00    +0.000 A 
ATOM     33  F   UNL     1       5.538   4.017  18.682  0.00  0.00    +0.000 F 
ATOM     34  C   UNL     1       4.466   6.031  18.171  0.00  0.00    +0.000 A 
BRANCH  31  35
ATOM     35  O   UNL     1       6.472   3.862  15.907  0.00  0.00    +0.000 OA
ATOM     36  C   UNL     1       6.475   3.752  14.488  0.00  0.00    +0.000 C 
ENDBRANCH  31  35
ENDBRANCH  27  28
ENDBRANCH  26  27
ENDBRANCH   6  26
TORSDOF 9
ENDMDL
MODEL 3
REMARK VINA RESULT:      -8.5      1.000      1.302
REMARK  Name = 
REMARK  13 active torsions:
REMARK  status: ('A' for Active; 'I' for Inactive)
REMARK    1  A    between atoms: C_1  and  O_2
REMARK    2  A    between atoms: O_2  and  C_3
REMARK    3  A    between atoms: C_6  and  C_7
REMARK    4  A    between atoms: C_7  and  O_8
REMARK    5  A    between atoms: O_8  and  C_9
REMARK    6  A    between atoms: C_14  and  O_15
REMARK    7  A    between atoms: O_15  and  C_16
REMARK    8  A    between atoms: C_16  and  C_17
REMARK    9  A    between atoms: C_20  and  O_21
REMARK   10  A    between atoms: O_21  and  C_22
REMARK   11  A    between atoms: C_26  and  O_27
REMARK   12  A    between atoms: C_29  and  C_30
REMARK   13  A    between atoms: C_29  and  C_31
REMARK                            x       y       z     vdW  Elec       q    Type
REMARK                         _______ _______ _______ _____ _____    ______ ____
ROOT
ATOM      1  C   UNL     1       3.413   6.816  18.309  0.00  0.00    +0.000 A 
ATOM      2  C   UNL     1       2.587   6.204  19.261  0.00  0.00    +0.000 A 
ATOM      3  C   UNL     1       2.851   4.915  19.708  0.00  0.00    +0.000 A 
ATOM      4  C   UNL     1       3.978   4.232  19.259  0.00  0.00    +0.000 A 
ATOM      5  C   UNL     1       4.817   4.851  18.331  0.00  0.00    +0.000 A 
ATOM      6  C   UNL     1       4.579   6.154  17.884  0.00  0.00    +0.000 A 
ATOM      7  C   UNL     1       4.323   2.864  19.763  0.00  0.00    +0.000 C 
ATOM      8  C   UNL     1       3.434   2.474  20.930  0.00  0.00    +0.000 C 
ATOM      9  C   UNL     1       1.987   2.946  20.714  0.00  0.00    +0.000 C 
ATOM     10  C   UNL     1       1.287   2.300  19.506  0.00  0.00    +0.000 C 
ATOM     11  C   UNL     1       1.180   2.608  21.975  0.00  0.00    +0.000 C 
ATOM     12  O   UNL     1       1.942   4.380  20.581  0.00  0.00    +0.000 OA
ENDROOT
BRANCH   7  13
ATOM     13  O   UNL     1       4.220   1.890  18.728  0.00  0.00    +0.000 OA
ATOM     14  H   UNL     1       4.050   1.024  19.136  0.00  0.00    +0.000 HD
ENDBRANCH   7  13
BRANCH   1  15
ATOM     15  O   UNL     1       3.134   8.050  17.770  0.00  0.00    +0.000 OA
BRANCH  15  16
ATOM     16  C   UNL     1       1.737   8.375  17.723  0.00  0.00    +0.000 C 
BRANCH  16  20
ATOM     17  C   UNL     1       1.129  12.445  19.039  0.00  0.00    +0.000 A 
ATOM     18  C   UNL     1       0.200  11.453  19.356  0.00  0.00    +0.000 A 
ATOM     19  C   UNL     1       0.390  10.141  18.917  0.00  0.00    +0.000 A 
ATOM     20  C   UNL     1       1.521   9.799  18.163  0.00  0.00    +0.000 A 
ATOM     21  C   UNL     1       2.475  10.785  17.889  0.00  0.00    +0.000 A 
ATOM     22  C   UNL     1       2.275  12.094  18.324  0.00  0.00    +0.000 A 
ATOM     23  F   UNL     1       3.233  12.991  18.052  0.00  0.00    +0.000 F 
BRANCH  17  25
ATOM     24  C   UNL     1      -0.367  14.262  18.984  0.00  0.00    +0.000 C 
ATOM     25  O   UNL     1       0.829  13.695  19.512  0.00  0.00    +0.000 OA
ENDBRANCH  17  25
ENDBRANCH  16  20
ENDBRANCH  15  16
ENDBRANCH   1  15
BRANCH   6  26
ATOM     26  O   UNL     1       5.443   6.815  17.038  0.00  0.00    +0.000 OA
BRANCH  26  27
ATOM     27  C   UNL     1       6.632   6.082  16.718  0.00  0.00    +0.000 C 
BRANCH  27  28
ATOM     28  C   UNL     1       6.508   5.255  15.465  0.00  0.00    +0.000 A 
ATOM     29  C   UNL     1       5.494   4.307  15.304  0.00  0.00    +0.000 A 
ATOM     30  C   UNL     1       5.359   3.616  14.099  0.00  0.00    +0.000 A 
ATOM     31  C   UNL     1       6.222   3.863  13.025  0.00  0.00    +0.000 A 
ATOM     32  C   UNL     1       7.220   4.828  13.181  0.00  0.00    +0.000 A 
ATOM     33  F   UNL     1       8.065   5.138  12.186  0.00  0.00    +0.000 F 
ATOM     34  C   UNL     1       7.362   5.520  14.382  0.00  0.00    +0.000 A 
BRANCH  31  35
ATOM     35  O   UNL     1       5.967   3.108  11.915  0.00  0.00    +0.000 OA
ATOM     36  C   UNL     1       4.611   3.021  11.492  0.00  0.00    +0.000 C 
ENDBRANCH  31  35
ENDBRANCH  27  28
ENDBRANCH  26  27
ENDBRANCH   6  26
TORSDOF 9
ENDMDL
MODEL 4
REMARK VINA RESULT:      -8.4      3.564      8.034
REMARK  Name = 
REMARK  13 active torsions:
REMARK  status: ('A' for Active; 'I' for Inactive)
REMARK    1  A    between atoms: C_1  and  O_2
REMARK    2  A    between atoms: O_2  and  C_3
REMARK    3  A    between atoms: C_6  and  C_7
REMARK    4  A    between atoms: C_7  and  O_8
REMARK    5  A    between atoms: O_8  and  C_9
REMARK    6  A    between atoms: C_14  and  O_15
REMARK    7  A    between atoms: O_15  and  C_16
REMARK    8  A    between atoms: C_16  and  C_17
REMARK    9  A    between atoms: C_20  and  O_21
REMARK   10  A    between atoms: O_21  and  C_22
REMARK   11  A    between atoms: C_26  and  O_27
REMARK   12  A    between atoms: C_29  and  C_30
REMARK   13  A    between atoms: C_29  and  C_31
REMARK                            x       y       z     vdW  Elec       q    Type
REMARK                         _______ _______ _______ _____ _____    ______ ____
ROOT
ATOM      1  C   UNL     1       2.013   8.128  18.799  0.00  0.00    +0.000 A 
ATOM      2  C   UNL     1       2.797   7.815  17.681  0.00  0.00    +0.000 A 
ATOM      3  C   UNL     1       3.683   6.744  17.711  0.00  0.00    +0.000 A 
ATOM      4  C   UNL     1       3.763   5.930  18.837  0.00  0.00    +0.000 A 
ATOM      5  C   UNL     1       2.963   6.224  19.942  0.00  0.00    +0.000 A 
ATOM      6  C   UNL     1       2.052   7.283  19.923  0.00  0.00    +0.000 A 
ATOM      7  C   UNL     1       4.667   4.735  18.881  0.00  0.00    +0.000 C 
ATOM      8  C   UNL     1       5.259   4.450  17.513  0.00  0.00    +0.000 C 
ATOM      9  C   UNL     1       5.627   5.749  16.780  0.00  0.00    +0.000 C 
ATOM     10  C   UNL     1       6.723   6.577  17.474  0.00  0.00    +0.000 C 
ATOM     11  C   UNL     1       6.119   5.384  15.373  0.00  0.00    +0.000 C 
ATOM     12  O   UNL     1       4.457   6.569  16.595  0.00  0.00    +0.000 OA
ENDROOT
BRANCH   7  13
ATOM     13  O   UNL     1       5.710   4.910  19.836  0.00  0.00    +0.000 OA
ATOM     14  H   UNL     1       5.928   5.857  19.882  0.00  0.00    +0.000 HD
ENDBRANCH   7  13
BRANCH   1  15
ATOM     15  O   UNL     1       1.195   9.233  18.845  0.00  0.00    +0.000 OA
BRANCH  15  16
ATOM     16  C   UNL     1       0.620   9.598  17.582  0.00  0.00    +0.000 C 
BRANCH  16  20
ATOM     17  C   UNL     1      -3.260  11.388  18.217  0.00  0.00    +0.000 A 
ATOM     18  C   UNL     1      -3.130  10.241  17.433  0.00  0.00    +0.000 A 
ATOM     19  C   UNL     1      -1.873   9.672  17.215  0.00  0.00    +0.000 A 
ATOM     20  C   UNL     1      -0.727  10.237  17.792  0.00  0.00    +0.000 A 
ATOM     21  C   UNL     1      -0.867  11.358  18.618  0.00  0.00    +0.000 A 
ATOM     22  C   UNL     1      -2.123  11.925  18.824  0.00  0.00    +0.000 A 
ATOM     23  F   UNL     1      -2.200  12.983  19.642  0.00  0.00    +0.000 F 
BRANCH  17  25
ATOM     24  C   UNL     1      -5.554  10.864  18.290  0.00  0.00    +0.000 C 
ATOM     25  O   UNL     1      -4.539  11.862  18.347  0.00  0.00    +0.000 OA
ENDBRANCH  17  25
ENDBRANCH  16  20
ENDBRANCH  15  16
ENDBRANCH   1  15
BRANCH   6  26
ATOM     26  O   UNL     1       1.190   7.536  20.969  0.00  0.00    +0.000 OA
BRANCH  26  27
ATOM     27  C   UNL     1       1.656   8.531  21.890  0.00  0.00    +0.000 C 
BRANCH  27  28
ATOM     28  C   UNL     1       0.672   9.650  22.113  0.00  0.00    +0.000 A 
ATOM     29  C   UNL     1      -0.432   9.504  22.957  0.00  0.00    +0.000 A 
ATOM     30  C   UNL     1      -1.278  10.587  23.204  0.00  0.00    +0.000 A 
ATOM     31  C   UNL     1      -1.034  11.839  22.629  0.00  0.00    +0.000 A 
ATOM     32  C   UNL     1       0.084  11.988  21.805  0.00  0.00    +0.000 A 
ATOM     33  F   UNL     1       0.396  13.165  21.243  0.00  0.00    +0.000 F 
ATOM     34  C   UNL     1       0.932  10.911  21.552  0.00  0.00    +0.000 A 
BRANCH  31  35
ATOM     35  O   UNL     1      -1.950  12.797  22.962  0.00  0.00    +0.000 OA
ATOM     36  C   UNL     1      -3.154  12.352  23.577  0.00  0.00    +0.000 C 
ENDBRANCH  31  35
ENDBRANCH  27  28
ENDBRANCH  26  27
ENDBRANCH   6  26
TORSDOF 9
ENDMDL
MODEL 5
REMARK VINA RESULT:      -8.3      4.364      7.489
REMARK  Name = 
REMARK  13 active torsions:
REMARK  status: ('A' for Active; 'I' for Inactive)
REMARK    1  A    between atoms: C_1  and  O_2
REMARK    2  A    between atoms: O_2  and  C_3
REMARK    3  A    between atoms: C_6  and  C_7
REMARK    4  A    between atoms: C_7  and  O_8
REMARK    5  A    between atoms: O_8  and  C_9
REMARK    6  A    between atoms: C_14  and  O_15
REMARK    7  A    between atoms: O_15  and  C_16
REMARK    8  A    between atoms: C_16  and  C_17
REMARK    9  A    between atoms: C_20  and  O_21
REMARK   10  A    between atoms: O_21  and  C_22
REMARK   11  A    between atoms: C_26  and  O_27
REMARK   12  A    between atoms: C_29  and  C_30
REMARK   13  A    between atoms: C_29  and  C_31
REMARK                            x       y       z     vdW  Elec       q    Type
REMARK                         _______ _______ _______ _____ _____    ______ ____
ROOT
ATOM      1  C   UNL     1       0.601   8.423  20.776  0.00  0.00    +0.000 A 
ATOM      2  C   UNL     1       0.848   7.141  21.283  0.00  0.00    +0.000 A 
ATOM      3  C   UNL     1       1.737   6.283  20.645  0.00  0.00    +0.000 A 
ATOM      4  C   UNL     1       2.442   6.710  19.523  0.00  0.00    +0.000 A 
ATOM      5  C   UNL     1       2.218   7.997  19.034  0.00  0.00    +0.000 A 
ATOM      6  C   UNL     1       1.343   8.881  19.672  0.00  0.00    +0.000 A 
ATOM      7  C   UNL     1       3.449   5.831  18.846  0.00  0.00    +0.000 C 
ATOM      8  C   UNL     1       3.720   4.582  19.665  0.00  0.00    +0.000 C 
ATOM      9  C   UNL     1       2.431   4.040  20.302  0.00  0.00    +0.000 C 
ATOM     10  C   UNL     1       1.373   3.573  19.286  0.00  0.00    +0.000 C 
ATOM     11  C   UNL     1       2.801   2.846  21.192  0.00  0.00    +0.000 C 
ATOM     12  O   UNL     1       1.850   5.026  21.176  0.00  0.00    +0.000 OA
ENDROOT
BRANCH   7  13
ATOM     13  O   UNL     1       3.022   5.470  17.535  0.00  0.00    +0.000 OA
ATOM     14  H   UNL     1       3.633   4.798  17.187  0.00  0.00    +0.000 HD
ENDBRANCH   7  13
BRANCH   1  15
ATOM     15  O   UNL     1      -0.340   9.266  21.320  0.00  0.00    +0.000 OA
BRANCH  15  16
ATOM     16  C   UNL     1       0.130  10.041  22.433  0.00  0.00    +0.000 C 
BRANCH  16  20
ATOM     17  C   UNL     1      -2.172  13.686  22.723  0.00  0.00    +0.000 A 
ATOM     18  C   UNL     1      -0.955  13.670  22.040  0.00  0.00    +0.000 A 
ATOM     19  C   UNL     1      -0.204  12.495  21.961  0.00  0.00    +0.000 A 
ATOM     20  C   UNL     1      -0.668  11.312  22.553  0.00  0.00    +0.000 A 
ATOM     21  C   UNL     1      -1.912  11.319  23.193  0.00  0.00    +0.000 A 
ATOM     22  C   UNL     1      -2.652  12.497  23.276  0.00  0.00    +0.000 A 
ATOM     23  F   UNL     1      -3.846  12.438  23.881  0.00  0.00    +0.000 F 
BRANCH  17  25
ATOM     24  C   UNL     1      -2.549  15.688  23.901  0.00  0.00    +0.000 C 
ATOM     25  O   UNL     1      -2.811  14.897  22.746  0.00  0.00    +0.000 OA
ENDBRANCH  17  25
ENDBRANCH  16  20
ENDBRANCH  15  16
ENDBRANCH   1  15
BRANCH   6  26
ATOM     26  O   UNL     1       1.175  10.184  19.258  0.00  0.00    +0.000 OA
BRANCH  26  27
ATOM     27  C   UNL     1       0.620  10.319  17.943  0.00  0.00    +0.000 C 
BRANCH  27  28
ATOM     28  C   UNL     1      -0.867  10.563  17.940  0.00  0.00    +0.000 A 
ATOM     29  C   UNL     1      -1.738   9.796  17.163  0.00  0.00    +0.000 A 
ATOM     30  C   UNL     1      -3.117   9.994  17.245  0.00  0.00    +0.000 A 
ATOM     31  C   UNL     1      -3.657  10.951  18.114  0.00  0.00    +0.000 A 
ATOM     32  C   UNL     1      -2.785  11.699  18.907  0.00  0.00    +0.000 A 
ATOM     33  F   UNL     1      -3.233  12.612  19.782  0.00  0.00    +0.000 F 
ATOM     34  C   UNL     1      -1.407  11.507  18.828  0.00  0.00    +0.000 A 
BRANCH  31  35
ATOM     35  O   UNL     1      -5.022  11.030  18.080  0.00  0.00    +0.000 OA
ATOM     36  C   UNL     1      -5.586  12.133  17.380  0.00  0.00    +0.000 C 
ENDBRANCH  31  35
ENDBRANCH  27  28
ENDBRANCH  26  27
ENDBRANCH   6  26
TORSDOF 9
ENDMDL
MODEL 6
REMARK VINA RESULT:      -8.2      2.549      7.389
REMARK  Name = 
REMARK  13 active torsions:
REMARK  status: ('A' for Active; 'I' for Inactive)
REMARK    1  A    between atoms: C_1  and  O_2
REMARK    2  A    between atoms: O_2  and  C_3
REMARK    3  A    between atoms: C_6  and  C_7
REMARK    4  A    between atoms: C_7  and  O_8
REMARK    5  A    between atoms: O_8  and  C_9
REMARK    6  A    between atoms: C_14  and  O_15
REMARK    7  A    between atoms: O_15  and  C_16
REMARK    8  A    between atoms: C_16  and  C_17
REMARK    9  A    between atoms: C_20  and  O_21
REMARK   10  A    between atoms: O_21  and  C_22
REMARK   11  A    between atoms: C_26  and  O_27
REMARK   12  A    between atoms: C_29  and  C_30
REMARK   13  A    between atoms: C_29  and  C_31
REMARK                            x       y       z     vdW  Elec       q    Type
REMARK                         _______ _______ _______ _____ _____    ______ ____
ROOT
ATOM      1  C   UNL     1       1.496   8.344  20.134  0.00  0.00    +0.000 A 
ATOM      2  C   UNL     1       0.793   9.215  20.977  0.00  0.00    +0.000 A 
ATOM      3  C   UNL     1       0.257  10.401  20.488  0.00  0.00    +0.000 A 
ATOM      4  C   UNL     1       0.361  10.713  19.136  0.00  0.00    +0.000 A 
ATOM      5  C   UNL     1       1.037   9.833  18.289  0.00  0.00    +0.000 A 
ATOM      6  C   UNL     1       1.565   8.627  18.758  0.00  0.00    +0.000 A 
ATOM      7  C   UNL     1      -0.254  11.955  18.565  0.00  0.00    +0.000 C 
ATOM      8  C   UNL     1      -1.140  12.642  19.588  0.00  0.00    +0.000 C 
ATOM      9  C   UNL     1      -0.522  12.585  20.994  0.00  0.00    +0.000 C 
ATOM     10  C   UNL     1       0.816  13.334  21.125  0.00  0.00    +0.000 C 
ATOM     11  C   UNL     1      -1.519  13.204  21.982  0.00  0.00    +0.000 C 
ATOM     12  O   UNL     1      -0.345  11.216  21.408  0.00  0.00    +0.000 OA
ENDROOT
BRANCH   7  13
ATOM     13  O   UNL     1       0.744  12.860  18.101  0.00  0.00    +0.000 OA
ATOM     14  H   UNL     1       1.603  12.581  18.460  0.00  0.00    +0.000 HD
ENDBRANCH   7  13
BRANCH   1  15
ATOM     15  O   UNL     1       2.122   7.210  20.596  0.00  0.00    +0.000 OA
BRANCH  15  16
ATOM     16  C   UNL     1       1.230   6.162  21.000  0.00  0.00    +0.000 C 
BRANCH  16  20
ATOM     17  C   UNL     1       2.537   2.363  19.411  0.00  0.00    +0.000 A 
ATOM     18  C   UNL     1       3.422   3.175  20.122  0.00  0.00    +0.000 A 
ATOM     19  C   UNL     1       3.003   4.410  20.622  0.00  0.00    +0.000 A 
ATOM     20  C   UNL     1       1.684   4.846  20.429  0.00  0.00    +0.000 A 
ATOM     21  C   UNL     1       0.786   4.008  19.758  0.00  0.00    +0.000 A 
ATOM     22  C   UNL     1       1.214   2.781  19.255  0.00  0.00    +0.000 A 
ATOM     23  F   UNL     1       0.305   2.010  18.642  0.00  0.00    +0.000 F 
BRANCH  17  25
ATOM     24  C   UNL     1       4.438   0.980  19.284  0.00  0.00    +0.000 C 
ATOM     25  O   UNL     1       3.066   1.183  18.958  0.00  0.00    +0.000 OA
ENDBRANCH  17  25
ENDBRANCH  16  20
ENDBRANCH  15  16
ENDBRANCH   1  15
BRANCH   6  26
ATOM     26  O   UNL     1       2.157   7.705  17.923  0.00  0.00    +0.000 OA
BRANCH  26  27
ATOM     27  C   UNL     1       3.591   7.733  17.934  0.00  0.00    +0.000 C 
BRANCH  27  28
ATOM     28  C   UNL     1       4.219   6.638  17.111  0.00  0.00    +0.000 A 
ATOM     29  C   UNL     1       5.322   6.875  16.287  0.00  0.00    +0.000 A 
ATOM     30  C   UNL     1       5.930   5.822  15.601  0.00  0.00    +0.000 A 
ATOM     31  C   UNL     1       5.461   4.510  15.733  0.00  0.00    +0.000 A 
ATOM     32  C   UNL     1       4.373   4.272  16.576  0.00  0.00    +0.000 A 
ATOM     33  F   UNL     1       3.888   3.037  16.773  0.00  0.00    +0.000 F 
ATOM     34  C   UNL     1       3.760   5.319  17.262  0.00  0.00    +0.000 A 
BRANCH  31  35
ATOM     35  O   UNL     1       6.156   3.590  14.998  0.00  0.00    +0.000 OA
ATOM     36  C   UNL     1       6.205   3.793  13.591  0.00  0.00    +0.000 C 
ENDBRANCH  31  35
ENDBRANCH  27  28
ENDBRANCH  26  27
ENDBRANCH   6  26
TORSDOF 9
ENDMDL
MODEL 7
REMARK VINA RESULT:      -8.2      4.324      7.456
REMARK  Name = 
REMARK  13 active torsions:
REMARK  status: ('A' for Active; 'I' for Inactive)
REMARK    1  A    between atoms: C_1  and  O_2
REMARK    2  A    between atoms: O_2  and  C_3
REMARK    3  A    between atoms: C_6  and  C_7
REMARK    4  A    between atoms: C_7  and  O_8
REMARK    5  A    between atoms: O_8  and  C_9
REMARK    6  A    between atoms: C_14  and  O_15
REMARK    7  A    between atoms: O_15  and  C_16
REMARK    8  A    between atoms: C_16  and  C_17
REMARK    9  A    between atoms: C_20  and  O_21
REMARK   10  A    between atoms: O_21  and  C_22
REMARK   11  A    between atoms: C_26  and  O_27
REMARK   12  A    between atoms: C_29  and  C_30
REMARK   13  A    between atoms: C_29  and  C_31
REMARK                            x       y       z     vdW  Elec       q    Type
REMARK                         _______ _______ _______ _____ _____    ______ ____
ROOT
ATOM      1  C   UNL     1       0.669   8.313  20.762  0.00  0.00    +0.000 A 
ATOM      2  C   UNL     1       0.947   7.037  21.268  0.00  0.00    +0.000 A 
ATOM      3  C   UNL     1       1.846   6.196  20.621  0.00  0.00    +0.000 A 
ATOM      4  C   UNL     1       2.529   6.634  19.491  0.00  0.00    +0.000 A 
ATOM      5  C   UNL     1       2.274   7.916  19.002  0.00  0.00    +0.000 A 
ATOM      6  C   UNL     1       1.389   8.783  19.648  0.00  0.00    +0.000 A 
ATOM      7  C   UNL     1       3.546   5.774  18.803  0.00  0.00    +0.000 C 
ATOM      8  C   UNL     1       3.852   4.533  19.622  0.00  0.00    +0.000 C 
ATOM      9  C   UNL     1       2.581   3.966  20.275  0.00  0.00    +0.000 C 
ATOM     10  C   UNL     1       1.521   3.477  19.272  0.00  0.00    +0.000 C 
ATOM     11  C   UNL     1       2.986   2.782  21.163  0.00  0.00    +0.000 C 
ATOM     12  O   UNL     1       1.990   4.943  21.154  0.00  0.00    +0.000 OA
ENDROOT
BRANCH   7  13
ATOM     13  O   UNL     1       3.112   5.402  17.499  0.00  0.00    +0.000 OA
ATOM     14  H   UNL     1       2.139   5.415  17.483  0.00  0.00    +0.000 HD
ENDBRANCH   7  13
BRANCH   1  15
ATOM     15  O   UNL     1      -0.282   9.139  21.315  0.00  0.00    +0.000 OA
BRANCH  15  16
ATOM     16  C   UNL     1       0.191   9.943  22.405  0.00  0.00    +0.000 C 
BRANCH  16  20
ATOM     17  C   UNL     1      -1.958  13.686  22.597  0.00  0.00    +0.000 A 
ATOM     18  C   UNL     1      -2.433  12.562  23.274  0.00  0.00    +0.000 A 
ATOM     19  C   UNL     1      -1.747  11.348  23.198  0.00  0.00    +0.000 A 
ATOM     20  C   UNL     1      -0.563  11.245  22.453  0.00  0.00    +0.000 A 
ATOM     21  C   UNL     1      -0.063  12.386  21.817  0.00  0.00    +0.000 A 
ATOM     22  C   UNL     1      -0.758  13.592  21.890  0.00  0.00    +0.000 A 
ATOM     23  F   UNL     1      -0.220  14.657  21.280  0.00  0.00    +0.000 F 
BRANCH  17  25
ATOM     24  C   UNL     1      -2.398  15.623  23.861  0.00  0.00    +0.000 C 
ATOM     25  O   UNL     1      -2.723  14.814  22.734  0.00  0.00    +0.000 OA
ENDBRANCH  17  25
ENDBRANCH  16  20
ENDBRANCH  15  16
ENDBRANCH   1  15
BRANCH   6  26
ATOM     26  O   UNL     1       1.190  10.082  19.234  0.00  0.00    +0.000 OA
BRANCH  26  27
ATOM     27  C   UNL     1       0.635  10.203  17.917  0.00  0.00    +0.000 C 
BRANCH  27  28
ATOM     28  C   UNL     1      -0.843  10.494  17.913  0.00  0.00    +0.000 A 
ATOM     29  C   UNL     1      -1.739   9.750  17.139  0.00  0.00    +0.000 A 
ATOM     30  C   UNL     1      -3.111   9.993  17.220  0.00  0.00    +0.000 A 
ATOM     31  C   UNL     1      -3.621  10.970  18.083  0.00  0.00    +0.000 A 
ATOM     32  C   UNL     1      -2.725  11.695  18.872  0.00  0.00    +0.000 A 
ATOM     33  F   UNL     1      -3.144  12.626  19.743  0.00  0.00    +0.000 F 
ATOM     34  C   UNL     1      -1.354  11.459  18.795  0.00  0.00    +0.000 A 
BRANCH  31  35
ATOM     35  O   UNL     1      -4.981  11.093  18.049  0.00  0.00    +0.000 OA
ATOM     36  C   UNL     1      -5.512  12.187  17.311  0.00  0.00    +0.000 C 
ENDBRANCH  31  35
ENDBRANCH  27  28
ENDBRANCH  26  27
ENDBRANCH   6  26
TORSDOF 9
ENDMDL
MODEL 8
REMARK VINA RESULT:      -8.1      2.766      8.110
REMARK  Name = 
REMARK  13 active torsions:
REMARK  status: ('A' for Active; 'I' for Inactive)
REMARK    1  A    between atoms: C_1  and  O_2
REMARK    2  A    between atoms: O_2  and  C_3
REMARK    3  A    between atoms: C_6  and  C_7
REMARK    4  A    between atoms: C_7  and  O_8
REMARK    5  A    between atoms: O_8  and  C_9
REMARK    6  A    between atoms: C_14  and  O_15
REMARK    7  A    between atoms: O_15  and  C_16
REMARK    8  A    between atoms: C_16  and  C_17
REMARK    9  A    between atoms: C_20  and  O_21
REMARK   10  A    between atoms: O_21  and  C_22
REMARK   11  A    between atoms: C_26  and  O_27
REMARK   12  A    between atoms: C_29  and  C_30
REMARK   13  A    between atoms: C_29  and  C_31
REMARK                            x       y       z     vdW  Elec       q    Type
REMARK                         _______ _______ _______ _____ _____    ______ ____
ROOT
ATOM      1  C   UNL     1       1.565   8.881  19.161  0.00  0.00    +0.000 A 
ATOM      2  C   UNL     1       1.195  10.177  18.779  0.00  0.00    +0.000 A 
ATOM      3  C   UNL     1       0.601  11.044  19.689  0.00  0.00    +0.000 A 
ATOM      4  C   UNL     1       0.417  10.656  21.013  0.00  0.00    +0.000 A 
ATOM      5  C   UNL     1       0.811   9.374  21.401  0.00  0.00    +0.000 A 
ATOM      6  C   UNL     1       1.428   8.496  20.507  0.00  0.00    +0.000 A 
ATOM      7  C   UNL     1      -0.168  11.586  22.032  0.00  0.00    +0.000 C 
ATOM      8  C   UNL     1      -0.300  12.991  21.474  0.00  0.00    +0.000 C 
ATOM      9  C   UNL     1      -0.750  12.970  20.005  0.00  0.00    +0.000 C 
ATOM     10  C   UNL     1      -2.149  12.369  19.782  0.00  0.00    +0.000 C 
ATOM     11  C   UNL     1      -0.760  14.414  19.486  0.00  0.00    +0.000 C 
ATOM     12  O   UNL     1       0.208  12.260  19.197  0.00  0.00    +0.000 OA
ENDROOT
BRANCH   7  13
ATOM     13  O   UNL     1      -1.436  11.122  22.487  0.00  0.00    +0.000 OA
ATOM     14  H   UNL     1      -2.130  11.569  21.973  0.00  0.00    +0.000 HD
ENDBRANCH   7  13
BRANCH   1  15
ATOM     15  O   UNL     1       2.067   7.961  18.270  0.00  0.00    +0.000 OA
BRANCH  15  16
ATOM     16  C   UNL     1       3.304   8.346  17.653  0.00  0.00    +0.000 C 
BRANCH  16  20
ATOM     17  C   UNL     1       5.587   4.868  16.489  0.00  0.00    +0.000 A 
ATOM     18  C   UNL     1       5.347   5.896  15.575  0.00  0.00    +0.000 A 
ATOM     19  C   UNL     1       4.595   7.012  15.948  0.00  0.00    +0.000 A 
ATOM     20  C   UNL     1       4.083   7.124  17.248  0.00  0.00    +0.000 A 
ATOM     21  C   UNL     1       4.367   6.116  18.176  0.00  0.00    +0.000 A 
ATOM     22  C   UNL     1       5.111   5.001  17.795  0.00  0.00    +0.000 A 
ATOM     23  F   UNL     1       5.371   4.078  18.731  0.00  0.00    +0.000 F 
BRANCH  17  25
ATOM     24  C   UNL     1       6.477   3.801  14.588  0.00  0.00    +0.000 C 
ATOM     25  O   UNL     1       6.323   3.819  16.005  0.00  0.00    +0.000 OA
ENDBRANCH  17  25
ENDBRANCH  16  20
ENDBRANCH  15  16
ENDBRANCH   1  15
BRANCH   6  26
ATOM     26  O   UNL     1       1.904   7.261  20.892  0.00  0.00    +0.000 OA
BRANCH  26  27
ATOM     27  C   UNL     1       0.921   6.218  20.874  0.00  0.00    +0.000 C 
BRANCH  27  28
ATOM     28  C   UNL     1       1.461   4.893  20.399  0.00  0.00    +0.000 A 
ATOM     29  C   UNL     1       1.409   4.515  19.055  0.00  0.00    +0.000 A 
ATOM     30  C   UNL     1       1.990   3.317  18.636  0.00  0.00    +0.000 A 
ATOM     31  C   UNL     1       2.647   2.478  19.544  0.00  0.00    +0.000 A 
ATOM     32  C   UNL     1       2.718   2.870  20.882  0.00  0.00    +0.000 A 
ATOM     33  F   UNL     1       3.356   2.131  21.803  0.00  0.00    +0.000 F 
ATOM     34  C   UNL     1       2.138   4.064  21.308  0.00  0.00    +0.000 A 
BRANCH  31  35
ATOM     35  O   UNL     1       3.162   1.342  18.986  0.00  0.00    +0.000 OA
ATOM     36  C   UNL     1       3.744   1.465  17.694  0.00  0.00    +0.000 C 
ENDBRANCH  31  35
ENDBRANCH  27  28
ENDBRANCH  26  27
ENDBRANCH   6  26
TORSDOF 9
ENDMDL
MODEL 9
REMARK VINA RESULT:      -8.1      4.181      7.424
REMARK  Name = 
REMARK  13 active torsions:
REMARK  status: ('A' for Active; 'I' for Inactive)
REMARK    1  A    between atoms: C_1  and  O_2
REMARK    2  A    between atoms: O_2  and  C_3
REMARK    3  A    between atoms: C_6  and  C_7
REMARK    4  A    between atoms: C_7  and  O_8
REMARK    5  A    between atoms: O_8  and  C_9
REMARK    6  A    between atoms: C_14  and  O_15
REMARK    7  A    between atoms: O_15  and  C_16
REMARK    8  A    between atoms: C_16  and  C_17
REMARK    9  A    between atoms: C_20  and  O_21
REMARK   10  A    between atoms: O_21  and  C_22
REMARK   11  A    between atoms: C_26  and  O_27
REMARK   12  A    between atoms: C_29  and  C_30
REMARK   13  A    between atoms: C_29  and  C_31
REMARK                            x       y       z     vdW  Elec       q    Type
REMARK                         _______ _______ _______ _____ _____    ______ ____
ROOT
ATOM      1  C   UNL     1       0.590   8.363  20.853  0.00  0.00    +0.000 A 
ATOM      2  C   UNL     1       0.891   7.079  21.327  0.00  0.00    +0.000 A 
ATOM      3  C   UNL     1       1.790   6.263  20.649  0.00  0.00    +0.000 A 
ATOM      4  C   UNL     1       2.450   6.734  19.517  0.00  0.00    +0.000 A 
ATOM      5  C   UNL     1       2.172   8.024  19.061  0.00  0.00    +0.000 A 
ATOM      6  C   UNL     1       1.287   8.865  19.740  0.00  0.00    +0.000 A 
ATOM      7  C   UNL     1       3.467   5.902  18.796  0.00  0.00    +0.000 C 
ATOM      8  C   UNL     1       3.800   4.647  19.582  0.00  0.00    +0.000 C 
ATOM      9  C   UNL     1       2.546   4.051  20.241  0.00  0.00    +0.000 C 
ATOM     10  C   UNL     1       1.477   3.570  19.244  0.00  0.00    +0.000 C 
ATOM     11  C   UNL     1       2.978   2.852  21.097  0.00  0.00    +0.000 C 
ATOM     12  O   UNL     1       1.957   5.001  21.151  0.00  0.00    +0.000 OA
ENDROOT
BRANCH   7  13
ATOM     13  O   UNL     1       3.016   5.553  17.490  0.00  0.00    +0.000 OA
ATOM     14  H   UNL     1       3.695   4.998  17.069  0.00  0.00    +0.000 HD
ENDBRANCH   7  13
BRANCH   1  15
ATOM     15  O   UNL     1      -0.362   9.164  21.439  0.00  0.00    +0.000 OA
BRANCH  15  16
ATOM     16  C   UNL     1       0.134  10.001  22.494  0.00  0.00    +0.000 C 
BRANCH  16  20
ATOM     17  C   UNL     1      -2.240  13.605  22.707  0.00  0.00    +0.000 A 
ATOM     18  C   UNL     1      -1.012  13.605  22.045  0.00  0.00    +0.000 A 
ATOM     19  C   UNL     1      -0.238  12.444  21.990  0.00  0.00    +0.000 A 
ATOM     20  C   UNL     1      -0.690  11.258  22.587  0.00  0.00    +0.000 A 
ATOM     21  C   UNL     1      -1.944  11.248  23.208  0.00  0.00    +0.000 A 
ATOM     22  C   UNL     1      -2.707  12.413  23.266  0.00  0.00    +0.000 A 
ATOM     23  F   UNL     1      -3.909  12.339  23.852  0.00  0.00    +0.000 F 
BRANCH  17  25
ATOM     24  C   UNL     1      -2.284  15.827  21.931  0.00  0.00    +0.000 C 
ATOM     25  O   UNL     1      -2.902  14.804  22.707  0.00  0.00    +0.000 OA
ENDBRANCH  17  25
ENDBRANCH  16  20
ENDBRANCH  15  16
ENDBRANCH   1  15
BRANCH   6  26
ATOM     26  O   UNL     1       1.066  10.171  19.357  0.00  0.00    +0.000 OA
BRANCH  26  27
ATOM     27  C   UNL     1       0.515  10.314  18.041  0.00  0.00    +0.000 C 
BRANCH  27  28
ATOM     28  C   UNL     1      -0.962  10.616  18.038  0.00  0.00    +0.000 A 
ATOM     29  C   UNL     1      -1.530  11.526  18.934  0.00  0.00    +0.000 A 
ATOM     30  C   UNL     1      -2.887  11.842  18.851  0.00  0.00    +0.000 A 
ATOM     31  C   UNL     1      -3.702  11.270  17.868  0.00  0.00    +0.000 A 
ATOM     32  C   UNL     1      -3.126  10.379  16.960  0.00  0.00    +0.000 A 
ATOM     33  F   UNL     1      -3.840   9.815  15.974  0.00  0.00    +0.000 F 
ATOM     34  C   UNL     1      -1.772  10.057  17.038  0.00  0.00    +0.000 A 
BRANCH  31  35
ATOM     35  O   UNL     1      -5.007  11.675  17.916  0.00  0.00    +0.000 OA
ATOM     36  C   UNL     1      -5.931  10.800  18.552  0.00  0.00    +0.000 C 
ENDBRANCH  31  35
ENDBRANCH  27  28
ENDBRANCH  26  27
ENDBRANCH   6  26
TORSDOF 9
ENDMDL
