MODEL 1
REMARK VINA RESULT:      -6.9      0.000      0.000
REMARK  Name = 
REMARK  7 active torsions:
REMARK  status: ('A' for Active; 'I' for Inactive)
REMARK    1  A    between atoms: C_1  and  C_2
REMARK    2  A    between atoms: C_5  and  S_6
REMARK    3  A    between atoms: S_6  and  C_7
REMARK    4  A    between atoms: C_7  and  C_9
REMARK    5  A    between atoms: C_9  and  O_10
REMARK    6  A    between atoms: O_10  and  C_11
REMARK    7  A    between atoms: C_16  and  C_17
REMARK                            x       y       z     vdW  Elec       q    Type
REMARK                         _______ _______ _______ _____ _____    ______ ____
ROOT
ATOM      1  C   UNL     1       6.597   5.588  19.359  0.00  0.00    +0.000 C 
ATOM      2  O   UNL     1       7.365   5.205  20.238  0.00  0.00    +0.000 OA
ENDROOT
BRANCH   1   3
ATOM      3  S   UNL     1       7.158   6.511  17.971  0.00  0.00    +0.000 S 
BRANCH   3   8
ATOM      4  C   UNL     1       5.234   3.702  12.892  0.00  0.00    +0.000 C 
ATOM      5  C   UNL     1       5.668   4.348  14.175  0.00  0.00    +0.000 A 
ATOM      6  C   UNL     1       5.195   5.609  14.542  0.00  0.00    +0.000 A 
ATOM      7  C   UNL     1       5.645   6.221  15.718  0.00  0.00    +0.000 A 
ATOM      8  C   UNL     1       6.576   5.589  16.554  0.00  0.00    +0.000 A 
ATOM      9  C   UNL     1       7.039   4.322  16.185  0.00  0.00    +0.000 A 
ATOM     10  C   UNL     1       6.586   3.705  15.011  0.00  0.00    +0.000 A 
ENDBRANCH   3   8
ENDBRANCH   1   3
BRANCH   1  11
ATOM     11  C   UNL     1       5.100   5.327  19.402  0.00  0.00    +0.000 C 
BRANCH  11  12
ATOM     12  O   UNL     1       4.795   3.935  19.482  0.00  0.00    +0.000 OA
BRANCH  12  13
ATOM     13  C   UNL     1       3.455   3.638  19.593  0.00  0.00    +0.000 A 
ATOM     14  C   UNL     1       2.771   3.607  20.815  0.00  0.00    +0.000 A 
ATOM     15  C   UNL     1       1.412   3.288  20.863  0.00  0.00    +0.000 A 
ATOM     16  C   UNL     1       0.717   3.023  19.692  0.00  0.00    +0.000 A 
ATOM     17  C   UNL     1       1.377   3.088  18.465  0.00  0.00    +0.000 A 
ATOM     18  C   UNL     1       2.748   3.395  18.401  0.00  0.00    +0.000 A 
ATOM     19  C   UNL     1       3.409   3.490  17.055  0.00  0.00    +0.000 C 
ENDBRANCH  12  13
ENDBRANCH  11  12
ENDBRANCH   1  11
TORSDOF 5
ENDMDL
MODEL 2
REMARK VINA RESULT:      -6.8      3.400      4.859
REMARK  Name = 
REMARK  7 active torsions:
REMARK  status: ('A' for Active; 'I' for Inactive)
REMARK    1  A    between atoms: C_1  and  C_2
REMARK    2  A    between atoms: C_5  and  S_6
REMARK    3  A    between atoms: S_6  and  C_7
REMARK    4  A    between atoms: C_7  and  C_9
REMARK    5  A    between atoms: C_9  and  O_10
REMARK    6  A    between atoms: O_10  and  C_11
REMARK    7  A    between atoms: C_16  and  C_17
REMARK                            x       y       z     vdW  Elec       q    Type
REMARK                         _______ _______ _______ _____ _____    ______ ____
ROOT
ATOM      1  C   UNL     1       2.147   3.642  20.888  0.00  0.00    +0.000 C 
ATOM      2  O   UNL     1       2.372   3.378  22.067  0.00  0.00    +0.000 OA
ENDROOT
BRANCH   1   3
ATOM      3  S   UNL     1       2.628   2.563  19.585  0.00  0.00    +0.000 S 
BRANCH   3   8
ATOM      4  C   UNL     1       6.853   5.648  16.418  0.00  0.00    +0.000 C 
ATOM      5  C   UNL     1       5.774   4.944  17.187  0.00  0.00    +0.000 A 
ATOM      6  C   UNL     1       5.859   4.791  18.572  0.00  0.00    +0.000 A 
ATOM      7  C   UNL     1       4.869   4.091  19.271  0.00  0.00    +0.000 A 
ATOM      8  C   UNL     1       3.772   3.527  18.605  0.00  0.00    +0.000 A 
ATOM      9  C   UNL     1       3.688   3.690  17.218  0.00  0.00    +0.000 A 
ATOM     10  C   UNL     1       4.676   4.396  16.516  0.00  0.00    +0.000 A 
ENDBRANCH   3   8
ENDBRANCH   1   3
BRANCH   1  11
ATOM     11  C   UNL     1       1.463   4.927  20.449  0.00  0.00    +0.000 C 
BRANCH  11  12
ATOM     12  O   UNL     1       2.247   6.084  20.738  0.00  0.00    +0.000 OA
BRANCH  12  13
ATOM     13  C   UNL     1       2.170   7.088  19.800  0.00  0.00    +0.000 A 
ATOM     14  C   UNL     1       2.680   6.970  18.500  0.00  0.00    +0.000 A 
ATOM     15  C   UNL     1       2.580   8.030  17.596  0.00  0.00    +0.000 A 
ATOM     16  C   UNL     1       1.950   9.207  17.970  0.00  0.00    +0.000 A 
ATOM     17  C   UNL     1       1.404   9.325  19.248  0.00  0.00    +0.000 A 
ATOM     18  C   UNL     1       1.507   8.271  20.174  0.00  0.00    +0.000 A 
ATOM     19  C   UNL     1       0.872   8.429  21.527  0.00  0.00    +0.000 C 
ENDBRANCH  12  13
ENDBRANCH  11  12
ENDBRANCH   1  11
TORSDOF 5
ENDMDL
MODEL 3
REMARK VINA RESULT:      -6.7      3.292      5.142
REMARK  Name = 
REMARK  7 active torsions:
REMARK  status: ('A' for Active; 'I' for Inactive)
REMARK    1  A    between atoms: C_1  and  C_2
REMARK    2  A    between atoms: C_5  and  S_6
REMARK    3  A    between atoms: S_6  and  C_7
REMARK    4  A    between atoms: C_7  and  C_9
REMARK    5  A    between atoms: C_9  and  O_10
REMARK    6  A    between atoms: O_10  and  C_11
REMARK    7  A    between atoms: C_16  and  C_17
REMARK                            x       y       z     vdW  Elec       q    Type
REMARK                         _______ _______ _______ _____ _____    ______ ____
ROOT
ATOM      1  C   UNL     1       4.971   6.110  16.347  0.00  0.00    +0.000 C 
ATOM      2  O   UNL     1       5.166   6.745  15.314  0.00  0.00    +0.000 OA
ENDROOT
BRANCH   1   3
ATOM      3  S   UNL     1       5.224   4.371  16.432  0.00  0.00    +0.000 S 
BRANCH   3   8
ATOM      4  C   UNL     1       1.197   2.674  20.710  0.00  0.00    +0.000 C 
ATOM      5  C   UNL     1       2.177   3.030  19.631  0.00  0.00    +0.000 A 
ATOM      6  C   UNL     1       3.546   3.099  19.895  0.00  0.00    +0.000 A 
ATOM      7  C   UNL     1       4.445   3.478  18.891  0.00  0.00    +0.000 A 
ATOM      8  C   UNL     1       3.999   3.797  17.601  0.00  0.00    +0.000 A 
ATOM      9  C   UNL     1       2.627   3.718  17.340  0.00  0.00    +0.000 A 
ATOM     10  C   UNL     1       1.725   3.333  18.342  0.00  0.00    +0.000 A 
ENDBRANCH   3   8
ENDBRANCH   1   3
BRANCH   1  11
ATOM     11  C   UNL     1       4.472   6.757  17.629  0.00  0.00    +0.000 C 
BRANCH  11  12
ATOM     12  O   UNL     1       3.167   7.315  17.483  0.00  0.00    +0.000 OA
BRANCH  12  13
ATOM     13  C   UNL     1       2.491   7.533  18.662  0.00  0.00    +0.000 A 
ATOM     14  C   UNL     1       2.453   6.605  19.711  0.00  0.00    +0.000 A 
ATOM     15  C   UNL     1       1.740   6.881  20.880  0.00  0.00    +0.000 A 
ATOM     16  C   UNL     1       1.080   8.093  21.024  0.00  0.00    +0.000 A 
ATOM     17  C   UNL     1       1.141   9.040  20.002  0.00  0.00    +0.000 A 
ATOM     18  C   UNL     1       1.844   8.772  18.814  0.00  0.00    +0.000 A 
ATOM     19  C   UNL     1       1.913   9.838  17.756  0.00  0.00    +0.000 C 
ENDBRANCH  12  13
ENDBRANCH  11  12
ENDBRANCH   1  11
TORSDOF 5
ENDMDL
MODEL 4
REMARK VINA RESULT:      -6.7      1.919      5.828
REMARK  Name = 
REMARK  7 active torsions:
REMARK  status: ('A' for Active; 'I' for Inactive)
REMARK    1  A    between atoms: C_1  and  C_2
REMARK    2  A    between atoms: C_5  and  S_6
REMARK    3  A    between atoms: S_6  and  C_7
REMARK    4  A    between atoms: C_7  and  C_9
REMARK    5  A    between atoms: C_9  and  O_10
REMARK    6  A    between atoms: O_10  and  C_11
REMARK    7  A    between atoms: C_16  and  C_17
REMARK                            x       y       z     vdW  Elec       q    Type
REMARK                         _______ _______ _______ _____ _____    ______ ____
ROOT
ATOM      1  C   UNL     1       7.107   5.288  17.866  0.00  0.00    +0.000 C 
ATOM      2  O   UNL     1       7.707   5.157  18.930  0.00  0.00    +0.000 OA
ENDROOT
BRANCH   1   3
ATOM      3  S   UNL     1       5.638   6.247  17.737  0.00  0.00    +0.000 S 
BRANCH   3   8
ATOM      4  C   UNL     1       0.963   2.415  18.666  0.00  0.00    +0.000 C 
ATOM      5  C   UNL     1       2.116   3.361  18.506  0.00  0.00    +0.000 A 
ATOM      6  C   UNL     1       1.918   4.669  18.060  0.00  0.00    +0.000 A 
ATOM      7  C   UNL     1       3.008   5.527  17.869  0.00  0.00    +0.000 A 
ATOM      8  C   UNL     1       4.320   5.100  18.119  0.00  0.00    +0.000 A 
ATOM      9  C   UNL     1       4.511   3.792  18.573  0.00  0.00    +0.000 A 
ATOM     10  C   UNL     1       3.421   2.932  18.770  0.00  0.00    +0.000 A 
ENDBRANCH   3   8
ENDBRANCH   1   3
BRANCH   1  11
ATOM     11  C   UNL     1       7.559   4.617  16.578  0.00  0.00    +0.000 C 
BRANCH  11  12
ATOM     12  O   UNL     1       7.357   5.447  15.435  0.00  0.00    +0.000 OA
BRANCH  12  13
ATOM     13  C   UNL     1       6.860   4.799  14.326  0.00  0.00    +0.000 A 
ATOM     14  C   UNL     1       5.683   4.038  14.341  0.00  0.00    +0.000 A 
ATOM     15  C   UNL     1       5.236   3.396  13.185  0.00  0.00    +0.000 A 
ATOM     16  C   UNL     1       5.942   3.527  11.998  0.00  0.00    +0.000 A 
ATOM     17  C   UNL     1       7.093   4.313  11.960  0.00  0.00    +0.000 A 
ATOM     18  C   UNL     1       7.564   4.955  13.119  0.00  0.00    +0.000 A 
ATOM     19  C   UNL     1       8.788   5.821  13.022  0.00  0.00    +0.000 C 
ENDBRANCH  12  13
ENDBRANCH  11  12
ENDBRANCH   1  11
TORSDOF 5
ENDMDL
MODEL 5
REMARK VINA RESULT:      -6.7      0.950      2.070
REMARK  Name = 
REMARK  7 active torsions:
REMARK  status: ('A' for Active; 'I' for Inactive)
REMARK    1  A    between atoms: C_1  and  C_2
REMARK    2  A    between atoms: C_5  and  S_6
REMARK    3  A    between atoms: S_6  and  C_7
REMARK    4  A    between atoms: C_7  and  C_9
REMARK    5  A    between atoms: C_9  and  O_10
REMARK    6  A    between atoms: O_10  and  C_11
REMARK    7  A    between atoms: C_16  and  C_17
REMARK                            x       y       z     vdW  Elec       q    Type
REMARK                         _______ _______ _______ _____ _____    ______ ____
ROOT
ATOM      1  C   UNL     1       7.073   5.579  19.469  0.00  0.00    +0.000 C 
ATOM      2  O   UNL     1       7.860   5.188  20.327  0.00  0.00    +0.000 OA
ENDROOT
BRANCH   1   3
ATOM      3  S   UNL     1       7.578   6.632  18.153  0.00  0.00    +0.000 S 
BRANCH   3   8
ATOM      4  C   UNL     1       5.089   3.764  13.360  0.00  0.00    +0.000 C 
ATOM      5  C   UNL     1       5.727   4.512  14.492  0.00  0.00    +0.000 A 
ATOM      6  C   UNL     1       6.826   3.987  15.174  0.00  0.00    +0.000 A 
ATOM      7  C   UNL     1       7.382   4.674  16.260  0.00  0.00    +0.000 A 
ATOM      8  C   UNL     1       6.855   5.900  16.691  0.00  0.00    +0.000 A 
ATOM      9  C   UNL     1       5.759   6.425  15.998  0.00  0.00    +0.000 A 
ATOM     10  C   UNL     1       5.203   5.742  14.907  0.00  0.00    +0.000 A 
ENDBRANCH   3   8
ENDBRANCH   1   3
BRANCH   1  11
ATOM     11  C   UNL     1       5.596   5.216  19.479  0.00  0.00    +0.000 C 
BRANCH  11  12
ATOM     12  O   UNL     1       5.386   3.805  19.508  0.00  0.00    +0.000 OA
BRANCH  12  13
ATOM     13  C   UNL     1       4.206   3.380  18.940  0.00  0.00    +0.000 A 
ATOM     14  C   UNL     1       3.838   3.669  17.619  0.00  0.00    +0.000 A 
ATOM     15  C   UNL     1       2.622   3.218  17.103  0.00  0.00    +0.000 A 
ATOM     16  C   UNL     1       1.772   2.454  17.890  0.00  0.00    +0.000 A 
ATOM     17  C   UNL     1       2.143   2.127  19.194  0.00  0.00    +0.000 A 
ATOM     18  C   UNL     1       3.358   2.585  19.732  0.00  0.00    +0.000 A 
ATOM     19  C   UNL     1       3.733   2.176  21.129  0.00  0.00    +0.000 C 
ENDBRANCH  12  13
ENDBRANCH  11  12
ENDBRANCH   1  11
TORSDOF 5
ENDMDL
MODEL 6
REMARK VINA RESULT:      -6.7      2.612      4.572
REMARK  Name = 
REMARK  7 active torsions:
REMARK  status: ('A' for Active; 'I' for Inactive)
REMARK    1  A    between atoms: C_1  and  C_2
REMARK    2  A    between atoms: C_5  and  S_6
REMARK    3  A    between atoms: S_6  and  C_7
REMARK    4  A    between atoms: C_7  and  C_9
REMARK    5  A    between atoms: C_9  and  O_10
REMARK    6  A    between atoms: O_10  and  C_11
REMARK    7  A    between atoms: C_16  and  C_17
REMARK                            x       y       z     vdW  Elec       q    Type
REMARK                         _______ _______ _______ _____ _____    ______ ____
ROOT
ATOM      1  C   UNL     1       4.949   4.669  17.088  0.00  0.00    +0.000 C 
ATOM      2  O   UNL     1       6.006   4.294  17.589  0.00  0.00    +0.000 OA
ENDROOT
BRANCH   1   3
ATOM      3  S   UNL     1       4.633   6.364  16.744  0.00  0.00    +0.000 S 
BRANCH   3   8
ATOM      4  C   UNL     1       0.668   8.244  21.004  0.00  0.00    +0.000 C 
ATOM      5  C   UNL     1       1.691   7.805  19.999  0.00  0.00    +0.000 A 
ATOM      6  C   UNL     1       1.881   8.508  18.808  0.00  0.00    +0.000 A 
ATOM      7  C   UNL     1       2.806   8.060  17.857  0.00  0.00    +0.000 A 
ATOM      8  C   UNL     1       3.563   6.900  18.073  0.00  0.00    +0.000 A 
ATOM      9  C   UNL     1       3.374   6.203  19.271  0.00  0.00    +0.000 A 
ATOM     10  C   UNL     1       2.453   6.654  20.227  0.00  0.00    +0.000 A 
ENDBRANCH   3   8
ENDBRANCH   1   3
BRANCH   1  11
ATOM     11  C   UNL     1       3.815   3.715  16.747  0.00  0.00    +0.000 C 
BRANCH  11  12
ATOM     12  O   UNL     1       3.720   2.634  17.673  0.00  0.00    +0.000 OA
BRANCH  12  13
ATOM     13  C   UNL     1       2.833   2.830  18.708  0.00  0.00    +0.000 A 
ATOM     14  C   UNL     1       1.500   3.217  18.517  0.00  0.00    +0.000 A 
ATOM     15  C   UNL     1       0.651   3.410  19.609  0.00  0.00    +0.000 A 
ATOM     16  C   UNL     1       1.115   3.195  20.899  0.00  0.00    +0.000 A 
ATOM     17  C   UNL     1       2.429   2.773  21.100  0.00  0.00    +0.000 A 
ATOM     18  C   UNL     1       3.299   2.586  20.012  0.00  0.00    +0.000 A 
ATOM     19  C   UNL     1       4.695   2.095  20.275  0.00  0.00    +0.000 C 
ENDBRANCH  12  13
ENDBRANCH  11  12
ENDBRANCH   1  11
TORSDOF 5
ENDMDL
MODEL 7
REMARK VINA RESULT:      -6.6      1.394      2.012
REMARK  Name = 
REMARK  7 active torsions:
REMARK  status: ('A' for Active; 'I' for Inactive)
REMARK    1  A    between atoms: C_1  and  C_2
REMARK    2  A    between atoms: C_5  and  S_6
REMARK    3  A    between atoms: S_6  and  C_7
REMARK    4  A    between atoms: C_7  and  C_9
REMARK    5  A    between atoms: C_9  and  O_10
REMARK    6  A    between atoms: O_10  and  C_11
REMARK    7  A    between atoms: C_16  and  C_17
REMARK                            x       y       z     vdW  Elec       q    Type
REMARK                         _______ _______ _______ _____ _____    ______ ____
ROOT
ATOM      1  C   UNL     1       6.783   5.058  18.174  0.00  0.00    +0.000 C 
ATOM      2  O   UNL     1       7.814   4.392  18.212  0.00  0.00    +0.000 OA
ENDROOT
BRANCH   1   3
ATOM      3  S   UNL     1       6.455   6.193  16.871  0.00  0.00    +0.000 S 
BRANCH   3   8
ATOM      4  C   UNL     1       5.792   2.860  11.786  0.00  0.00    +0.000 C 
ATOM      5  C   UNL     1       6.002   3.633  13.055  0.00  0.00    +0.000 A 
ATOM      6  C   UNL     1       5.042   3.627  14.069  0.00  0.00    +0.000 A 
ATOM      7  C   UNL     1       5.229   4.391  15.227  0.00  0.00    +0.000 A 
ATOM      8  C   UNL     1       6.376   5.177  15.401  0.00  0.00    +0.000 A 
ATOM      9  C   UNL     1       7.338   5.173  14.385  0.00  0.00    +0.000 A 
ATOM     10  C   UNL     1       7.156   4.404  13.226  0.00  0.00    +0.000 A 
ENDBRANCH   3   8
ENDBRANCH   1   3
BRANCH   1  11
ATOM     11  C   UNL     1       5.715   4.984  19.254  0.00  0.00    +0.000 C 
BRANCH  11  12
ATOM     12  O   UNL     1       4.418   5.315  18.758  0.00  0.00    +0.000 OA
BRANCH  12  13
ATOM     13  C   UNL     1       3.505   4.285  18.781  0.00  0.00    +0.000 A 
ATOM     14  C   UNL     1       3.694   3.073  18.104  0.00  0.00    +0.000 A 
ATOM     15  C   UNL     1       2.725   2.069  18.158  0.00  0.00    +0.000 A 
ATOM     16  C   UNL     1       1.571   2.254  18.905  0.00  0.00    +0.000 A 
ATOM     17  C   UNL     1       1.388   3.441  19.615  0.00  0.00    +0.000 A 
ATOM     18  C   UNL     1       2.349   4.466  19.561  0.00  0.00    +0.000 A 
ATOM     19  C   UNL     1       2.126   5.712  20.370  0.00  0.00    +0.000 C 
ENDBRANCH  12  13
ENDBRANCH  11  12
ENDBRANCH   1  11
TORSDOF 5
ENDMDL
MODEL 8
REMARK VINA RESULT:      -6.6      1.223      1.436
REMARK  Name = 
REMARK  7 active torsions:
REMARK  status: ('A' for Active; 'I' for Inactive)
REMARK    1  A    between atoms: C_1  and  C_2
REMARK    2  A    between atoms: C_5  and  S_6
REMARK    3  A    between atoms: S_6  and  C_7
REMARK    4  A    between atoms: C_7  and  C_9
REMARK    5  A    between atoms: C_9  and  O_10
REMARK    6  A    between atoms: O_10  and  C_11
REMARK    7  A    between atoms: C_16  and  C_17
REMARK                            x       y       z     vdW  Elec       q    Type
REMARK                         _______ _______ _______ _____ _____    ______ ____
ROOT
ATOM      1  C   UNL     1       6.580   5.149  18.323  0.00  0.00    +0.000 C 
ATOM      2  O   UNL     1       7.511   4.366  18.494  0.00  0.00    +0.000 OA
ENDROOT
BRANCH   1   3
ATOM      3  S   UNL     1       6.602   6.357  17.045  0.00  0.00    +0.000 S 
BRANCH   3   8
ATOM      4  C   UNL     1       6.141   2.988  11.963  0.00  0.00    +0.000 C 
ATOM      5  C   UNL     1       6.211   3.859  13.182  0.00  0.00    +0.000 A 
ATOM      6  C   UNL     1       7.351   4.614  13.464  0.00  0.00    +0.000 A 
ATOM      7  C   UNL     1       7.422   5.386  14.629  0.00  0.00    +0.000 A 
ATOM      8  C   UNL     1       6.357   5.423  15.540  0.00  0.00    +0.000 A 
ATOM      9  C   UNL     1       5.214   4.672  15.249  0.00  0.00    +0.000 A 
ATOM     10  C   UNL     1       5.139   3.902  14.079  0.00  0.00    +0.000 A 
ENDBRANCH   3   8
ENDBRANCH   1   3
BRANCH   1  11
ATOM     11  C   UNL     1       5.344   5.163  19.209  0.00  0.00    +0.000 C 
BRANCH  11  12
ATOM     12  O   UNL     1       4.135   5.081  18.455  0.00  0.00    +0.000 OA
BRANCH  12  13
ATOM     13  C   UNL     1       3.070   4.519  19.123  0.00  0.00    +0.000 A 
ATOM     14  C   UNL     1       2.662   4.923  20.400  0.00  0.00    +0.000 A 
ATOM     15  C   UNL     1       1.578   4.307  21.030  0.00  0.00    +0.000 A 
ATOM     16  C   UNL     1       0.877   3.301  20.382  0.00  0.00    +0.000 A 
ATOM     17  C   UNL     1       1.249   2.915  19.095  0.00  0.00    +0.000 A 
ATOM     18  C   UNL     1       2.345   3.517  18.453  0.00  0.00    +0.000 A 
ATOM     19  C   UNL     1       2.687   3.095  17.051  0.00  0.00    +0.000 C 
ENDBRANCH  12  13
ENDBRANCH  11  12
ENDBRANCH   1  11
TORSDOF 5
ENDMDL
MODEL 9
REMARK VINA RESULT:      -6.6      2.062      6.115
REMARK  Name = 
REMARK  7 active torsions:
REMARK  status: ('A' for Active; 'I' for Inactive)
REMARK    1  A    between atoms: C_1  and  C_2
REMARK    2  A    between atoms: C_5  and  S_6
REMARK    3  A    between atoms: S_6  and  C_7
REMARK    4  A    between atoms: C_7  and  C_9
REMARK    5  A    between atoms: C_9  and  O_10
REMARK    6  A    between atoms: O_10  and  C_11
REMARK    7  A    between atoms: C_16  and  C_17
REMARK                            x       y       z     vdW  Elec       q    Type
REMARK                         _______ _______ _______ _____ _____    ______ ____
ROOT
ATOM      1  C   UNL     1       6.158   5.932  17.457  0.00  0.00    +0.000 C 
ATOM      2  O   UNL     1       5.557   6.896  16.989  0.00  0.00    +0.000 OA
ENDROOT
BRANCH   1   3
ATOM      3  S   UNL     1       5.855   5.349  19.088  0.00  0.00    +0.000 S 
BRANCH   3   8
ATOM      4  C   UNL     1       0.545   2.335  18.742  0.00  0.00    +0.000 C 
ATOM      5  C   UNL     1       1.816   3.130  18.802  0.00  0.00    +0.000 A 
ATOM      6  C   UNL     1       2.850   2.905  17.892  0.00  0.00    +0.000 A 
ATOM      7  C   UNL     1       4.050   3.621  17.989  0.00  0.00    +0.000 A 
ATOM      8  C   UNL     1       4.245   4.576  18.996  0.00  0.00    +0.000 A 
ATOM      9  C   UNL     1       3.202   4.803  19.900  0.00  0.00    +0.000 A 
ATOM     10  C   UNL     1       1.998   4.091  19.801  0.00  0.00    +0.000 A 
ENDBRANCH   3   8
ENDBRANCH   1   3
BRANCH   1  11
ATOM     11  C   UNL     1       7.229   5.177  16.686  0.00  0.00    +0.000 C 
BRANCH  11  12
ATOM     12  O   UNL     1       7.432   5.709  15.378  0.00  0.00    +0.000 OA
BRANCH  12  13
ATOM     13  C   UNL     1       6.923   4.945  14.352  0.00  0.00    +0.000 A 
ATOM     14  C   UNL     1       5.771   4.158  14.476  0.00  0.00    +0.000 A 
ATOM     15  C   UNL     1       5.310   3.396  13.401  0.00  0.00    +0.000 A 
ATOM     16  C   UNL     1       5.977   3.431  12.185  0.00  0.00    +0.000 A 
ATOM     17  C   UNL     1       7.103   4.240  12.037  0.00  0.00    +0.000 A 
ATOM     18  C   UNL     1       7.587   5.004  13.113  0.00  0.00    +0.000 A 
ATOM     19  C   UNL     1       8.782   5.889  12.896  0.00  0.00    +0.000 C 
ENDBRANCH  12  13
ENDBRANCH  11  12
ENDBRANCH   1  11
TORSDOF 5
ENDMDL
