MODEL 1
REMARK VINA RESULT:      -7.9      0.000      0.000
REMARK  Name = 
REMARK  2 active torsions:
REMARK  status: ('A' for Active; 'I' for Inactive)
REMARK    1  A    between atoms: C_2  and  C_3
REMARK    2  A    between atoms: C_5  and  N_6
REMARK                            x       y       z     vdW  Elec       q    Type
REMARK                         _______ _______ _______ _____ _____    ______ ____
ROOT
ATOM      1  C   UNL     1       3.395   5.318  19.010  0.00  0.00    +0.000 C 
ATOM      2  C   UNL     1       3.069   6.801  18.833  0.00  0.00    +0.000 C 
ATOM      3  C   UNL     1       1.854   7.070  19.711  0.00  0.00    +0.000 C 
ATOM      4  C   UNL     1       1.820   5.890  20.698  0.00  0.00    +0.000 C 
ATOM      5  N   UNL     1       2.953   5.010  20.386  0.00  0.00    +0.000 NA
ATOM      6  H   UNL     1       2.643   4.042  20.444  0.00  0.00    +0.000 HD
ENDROOT
BRANCH   3   7
ATOM      7  N   UNL     1       1.751   8.419  20.305  0.00  0.00    +0.000 NA
ATOM      8  C   UNL     1       1.037   8.391  21.607  0.00  0.00    +0.000 C 
ATOM      9  C   UNL     1       0.995   9.774  22.303  0.00  0.00    +0.000 C 
ATOM     10  N   UNL     1       0.462  10.795  21.403  0.00  0.00    +0.000 N 
ATOM     11  C   UNL     1      -0.781  11.329  21.640  0.00  0.00    +0.000 A 
ATOM     12  N   UNL     1      -1.232  11.362  22.908  0.00  0.00    +0.000 NA
ATOM     13  C   UNL     1      -2.404  11.981  23.145  0.00  0.00    +0.000 A 
ATOM     14  C   UNL     1      -3.176  12.544  22.166  0.00  0.00    +0.000 A 
ATOM     15  C   UNL     1      -2.661  12.441  20.901  0.00  0.00    +0.000 A 
ATOM     16  N   UNL     1      -1.478  11.856  20.621  0.00  0.00    +0.000 NA
ATOM     17  C   UNL     1       1.050  10.831  20.066  0.00  0.00    +0.000 C 
ATOM     18  C   UNL     1       1.087   9.423  19.430  0.00  0.00    +0.000 C 
ENDBRANCH   3   7
BRANCH   1  20
ATOM     19  O   UNL     1       5.709   5.551  19.669  0.00  0.00    +0.000 OA
ATOM     20  C   UNL     1       4.918   5.135  18.814  0.00  0.00    +0.000 C 
ATOM     21  N   UNL     1       5.402   4.548  17.666  0.00  0.00    +0.000 N 
ATOM     22  C   UNL     1       6.830   4.283  17.518  0.00  0.00    +0.000 C 
ATOM     23  C   UNL     1       7.108   4.558  16.050  0.00  0.00    +0.000 C 
ATOM     24  F   UNL     1       7.226   5.906  15.881  0.00  0.00    +0.000 F 
ATOM     25  C   UNL     1       5.831   4.062  15.391  0.00  0.00    +0.000 C 
ATOM     26  F   UNL     1       5.652   4.616  14.172  0.00  0.00    +0.000 F 
ATOM     27  C   UNL     1       4.737   4.475  16.370  0.00  0.00    +0.000 C 
ENDBRANCH   1  20
TORSDOF 2
ENDMDL
MODEL 2
REMARK VINA RESULT:      -7.1      5.139     10.010
REMARK  Name = 
REMARK  2 active torsions:
REMARK  status: ('A' for Active; 'I' for Inactive)
REMARK    1  A    between atoms: C_2  and  C_3
REMARK    2  A    between atoms: C_5  and  N_6
REMARK                            x       y       z     vdW  Elec       q    Type
REMARK                         _______ _______ _______ _____ _____    ______ ____
ROOT
ATOM      1  C   UNL     1      -0.960  11.896  20.442  0.00  0.00    +0.000 C 
ATOM      2  C   UNL     1      -0.556  10.423  20.469  0.00  0.00    +0.000 C 
ATOM      3  C   UNL     1       0.293  10.199  19.225  0.00  0.00    +0.000 C 
ATOM      4  C   UNL     1       0.732  11.611  18.796  0.00  0.00    +0.000 C 
ATOM      5  N   UNL     1       0.158  12.569  19.748  0.00  0.00    +0.000 NA
ATOM      6  H   UNL     1      -0.186  13.378  19.234  0.00  0.00    +0.000 HD
ENDROOT
BRANCH   3   7
ATOM      7  N   UNL     1       1.364   9.186  19.326  0.00  0.00    +0.000 NA
ATOM      8  C   UNL     1       1.650   8.560  18.010  0.00  0.00    +0.000 C 
ATOM      9  C   UNL     1       2.833   7.561  18.060  0.00  0.00    +0.000 C 
ATOM     10  N   UNL     1       2.633   6.568  19.114  0.00  0.00    +0.000 N 
ATOM     11  C   UNL     1       2.355   5.265  18.776  0.00  0.00    +0.000 A 
ATOM     12  N   UNL     1       2.812   4.798  17.599  0.00  0.00    +0.000 NA
ATOM     13  C   UNL     1       2.628   3.493  17.323  0.00  0.00    +0.000 A 
ATOM     14  C   UNL     1       1.972   2.627  18.155  0.00  0.00    +0.000 A 
ATOM     15  C   UNL     1       1.512   3.189  19.317  0.00  0.00    +0.000 A 
ATOM     16  N   UNL     1       1.699   4.482  19.647  0.00  0.00    +0.000 NA
ATOM     17  C   UNL     1       2.259   7.098  20.422  0.00  0.00    +0.000 C 
ATOM     18  C   UNL     1       1.090   8.104  20.309  0.00  0.00    +0.000 C 
ENDBRANCH   3   7
BRANCH   1  20
ATOM     19  O   UNL     1      -0.225  12.201  22.725  0.00  0.00    +0.000 OA
ATOM     20  C   UNL     1      -1.133  12.373  21.904  0.00  0.00    +0.000 C 
ATOM     21  N   UNL     1      -2.316  12.953  22.307  0.00  0.00    +0.000 N 
ATOM     22  C   UNL     1      -2.451  13.494  23.656  0.00  0.00    +0.000 C 
ATOM     23  C   UNL     1      -3.880  13.164  24.046  0.00  0.00    +0.000 C 
ATOM     24  F   UNL     1      -3.927  11.860  24.443  0.00  0.00    +0.000 F 
ATOM     25  C   UNL     1      -4.613  13.331  22.725  0.00  0.00    +0.000 C 
ATOM     26  F   UNL     1      -5.783  12.654  22.714  0.00  0.00    +0.000 F 
ATOM     27  C   UNL     1      -3.629  12.781  21.697  0.00  0.00    +0.000 C 
ENDBRANCH   1  20
TORSDOF 2
ENDMDL
MODEL 3
REMARK VINA RESULT:      -7.1      1.164      1.190
REMARK  Name = 
REMARK  2 active torsions:
REMARK  status: ('A' for Active; 'I' for Inactive)
REMARK    1  A    between atoms: C_2  and  C_3
REMARK    2  A    between atoms: C_5  and  N_6
REMARK                            x       y       z     vdW  Elec       q    Type
REMARK                         _______ _______ _______ _____ _____    ______ ____
ROOT
ATOM      1  C   UNL     1       3.604   6.371  17.727  0.00  0.00    +0.000 C 
ATOM      2  C   UNL     1       3.095   7.806  17.854  0.00  0.00    +0.000 C 
ATOM      3  C   UNL     1       2.008   7.771  18.921  0.00  0.00    +0.000 C 
ATOM      4  C   UNL     1       2.257   6.458  19.684  0.00  0.00    +0.000 C 
ATOM      5  N   UNL     1       3.417   5.796  19.076  0.00  0.00    +0.000 NA
ATOM      6  H   UNL     1       3.228   4.798  19.007  0.00  0.00    +0.000 HD
ENDROOT
BRANCH   3   7
ATOM      7  N   UNL     1       1.851   8.985  19.747  0.00  0.00    +0.000 NA
ATOM      8  C   UNL     1       1.139   8.695  21.017  0.00  0.00    +0.000 C 
ATOM      9  C   UNL     1       1.041   9.927  21.951  0.00  0.00    +0.000 C 
ATOM     10  N   UNL     1       0.469  11.072  21.246  0.00  0.00    +0.000 N 
ATOM     11  C   UNL     1      -0.795  11.505  21.565  0.00  0.00    +0.000 A 
ATOM     12  N   UNL     1      -1.248  11.291  22.815  0.00  0.00    +0.000 NA
ATOM     13  C   UNL     1      -2.444  11.811  23.151  0.00  0.00    +0.000 A 
ATOM     14  C   UNL     1      -3.237  12.511  22.284  0.00  0.00    +0.000 A 
ATOM     15  C   UNL     1      -2.717  12.658  21.024  0.00  0.00    +0.000 A 
ATOM     16  N   UNL     1      -1.513  12.180  20.653  0.00  0.00    +0.000 NA
ATOM     17  C   UNL     1       1.055  11.372  19.942  0.00  0.00    +0.000 C 
ATOM     18  C   UNL     1       1.149  10.104  19.062  0.00  0.00    +0.000 C 
ENDBRANCH   3   7
BRANCH   1  20
ATOM     19  O   UNL     1       5.765   7.437  17.523  0.00  0.00    +0.000 OA
ATOM     20  C   UNL     1       5.090   6.425  17.299  0.00  0.00    +0.000 C 
ATOM     21  N   UNL     1       5.656   5.364  16.627  0.00  0.00    +0.000 N 
ATOM     22  C   UNL     1       7.080   5.367  16.308  0.00  0.00    +0.000 C 
ATOM     23  C   UNL     1       7.155   4.710  14.941  0.00  0.00    +0.000 C 
ATOM     24  F   UNL     1       6.827   5.640  14.000  0.00  0.00    +0.000 F 
ATOM     25  C   UNL     1       6.060   3.660  15.037  0.00  0.00    +0.000 C 
ATOM     26  F   UNL     1       5.631   3.275  13.815  0.00  0.00    +0.000 F 
ATOM     27  C   UNL     1       4.961   4.359  15.831  0.00  0.00    +0.000 C 
ENDBRANCH   1  20
TORSDOF 2
ENDMDL
MODEL 4
REMARK VINA RESULT:      -7.1      4.940      9.542
REMARK  Name = 
REMARK  2 active torsions:
REMARK  status: ('A' for Active; 'I' for Inactive)
REMARK    1  A    between atoms: C_2  and  C_3
REMARK    2  A    between atoms: C_5  and  N_6
REMARK                            x       y       z     vdW  Elec       q    Type
REMARK                         _______ _______ _______ _____ _____    ______ ____
ROOT
ATOM      1  C   UNL     1       0.033  12.042  19.575  0.00  0.00    +0.000 C 
ATOM      2  C   UNL     1       0.136  10.521  19.692  0.00  0.00    +0.000 C 
ATOM      3  C   UNL     1       1.162  10.091  18.651  0.00  0.00    +0.000 C 
ATOM      4  C   UNL     1       1.938  11.377  18.316  0.00  0.00    +0.000 C 
ATOM      5  N   UNL     1       1.376  12.465  19.125  0.00  0.00    +0.000 NA
ATOM      6  H   UNL     1       1.303  13.300  18.547  0.00  0.00    +0.000 HD
ENDROOT
BRANCH   3   7
ATOM      7  N   UNL     1       1.977   8.903  18.976  0.00  0.00    +0.000 NA
ATOM      8  C   UNL     1       2.189   8.042  17.785  0.00  0.00    +0.000 C 
ATOM      9  C   UNL     1       3.121   6.837  18.068  0.00  0.00    +0.000 C 
ATOM     10  N   UNL     1       2.652   6.075  19.224  0.00  0.00    +0.000 N 
ATOM     11  C   UNL     1       2.114   4.824  19.041  0.00  0.00    +0.000 A 
ATOM     12  N   UNL     1       2.520   4.102  17.980  0.00  0.00    +0.000 NA
ATOM     13  C   UNL     1       2.070   2.838  17.866  0.00  0.00    +0.000 A 
ATOM     14  C   UNL     1       1.196   2.262  18.747  0.00  0.00    +0.000 A 
ATOM     15  C   UNL     1       0.809   3.074  19.781  0.00  0.00    +0.000 A 
ATOM     16  N   UNL     1       1.257   4.334  19.951  0.00  0.00    +0.000 NA
ATOM     17  C   UNL     1       2.333   6.860  20.414  0.00  0.00    +0.000 C 
ATOM     18  C   UNL     1       1.421   8.060  20.069  0.00  0.00    +0.000 C 
ENDBRANCH   3   7
BRANCH   1  20
ATOM     19  O   UNL     1       0.514  12.667  21.860  0.00  0.00    +0.000 OA
ATOM     20  C   UNL     1      -0.339  12.606  20.967  0.00  0.00    +0.000 C 
ATOM     21  N   UNL     1      -1.632  13.002  21.230  0.00  0.00    +0.000 N 
ATOM     22  C   UNL     1      -1.967  13.625  22.506  0.00  0.00    +0.000 C 
ATOM     23  C   UNL     1      -3.349  13.086  22.831  0.00  0.00    +0.000 C 
ATOM     24  F   UNL     1      -3.208  11.833  23.351  0.00  0.00    +0.000 F 
ATOM     25  C   UNL     1      -3.986  13.007  21.453  0.00  0.00    +0.000 C 
ATOM     26  F   UNL     1      -5.020  12.137  21.432  0.00  0.00    +0.000 F 
ATOM     27  C   UNL     1      -2.842  12.551  20.554  0.00  0.00    +0.000 C 
ENDBRANCH   1  20
TORSDOF 2
ENDMDL
MODEL 5
REMARK VINA RESULT:      -7.0      3.208      4.443
REMARK  Name = 
REMARK  2 active torsions:
REMARK  status: ('A' for Active; 'I' for Inactive)
REMARK    1  A    between atoms: C_2  and  C_3
REMARK    2  A    between atoms: C_5  and  N_6
REMARK                            x       y       z     vdW  Elec       q    Type
REMARK                         _______ _______ _______ _____ _____    ______ ____
ROOT
ATOM      1  C   UNL     1       2.068   7.329  18.719  0.00  0.00    +0.000 C 
ATOM      2  C   UNL     1       1.670   8.681  18.127  0.00  0.00    +0.000 C 
ATOM      3  C   UNL     1       0.848   9.381  19.201  0.00  0.00    +0.000 C 
ATOM      4  C   UNL     1       1.195   8.638  20.503  0.00  0.00    +0.000 C 
ATOM      5  N   UNL     1       2.158   7.579  20.173  0.00  0.00    +0.000 NA
ATOM      6  H   UNL     1       1.910   6.737  20.688  0.00  0.00    +0.000 HD
ENDROOT
BRANCH   3   7
ATOM      7  N   UNL     1       0.937  10.855  19.248  0.00  0.00    +0.000 NA
ATOM      8  C   UNL     1       2.118  11.356  18.501  0.00  0.00    +0.000 C 
ATOM      9  C   UNL     1       2.189  12.903  18.449  0.00  0.00    +0.000 C 
ATOM     10  N   UNL     1       2.101  13.474  19.791  0.00  0.00    +0.000 N 
ATOM     11  C   UNL     1       3.209  14.060  20.354  0.00  0.00    +0.000 A 
ATOM     12  N   UNL     1       4.131  14.603  19.537  0.00  0.00    +0.000 NA
ATOM     13  C   UNL     1       5.159  15.267  20.098  0.00  0.00    +0.000 A 
ATOM     14  C   UNL     1       5.337  15.388  21.449  0.00  0.00    +0.000 A 
ATOM     15  C   UNL     1       4.372  14.782  22.210  0.00  0.00    +0.000 A 
ATOM     16  N   UNL     1       3.310  14.132  21.691  0.00  0.00    +0.000 NA
ATOM     17  C   UNL     1       1.016  12.967  20.627  0.00  0.00    +0.000 C 
ATOM     18  C   UNL     1       0.980  11.421  20.624  0.00  0.00    +0.000 C 
ENDBRANCH   3   7
BRANCH   1  20
ATOM     19  O   UNL     1       4.110   7.745  17.493  0.00  0.00    +0.000 OA
ATOM     20  C   UNL     1       3.423   6.913  18.097  0.00  0.00    +0.000 C 
ATOM     21  N   UNL     1       3.848   5.606  18.177  0.00  0.00    +0.000 N 
ATOM     22  C   UNL     1       5.167   5.228  17.680  0.00  0.00    +0.000 C 
ATOM     23  C   UNL     1       4.954   3.854  17.070  0.00  0.00    +0.000 C 
ATOM     24  F   UNL     1       4.409   4.014  15.831  0.00  0.00    +0.000 F 
ATOM     25  C   UNL     1       3.928   3.248  18.014  0.00  0.00    +0.000 C 
ATOM     26  F   UNL     1       3.249   2.236  17.429  0.00  0.00    +0.000 F 
ATOM     27  C   UNL     1       3.016   4.422  18.354  0.00  0.00    +0.000 C 
ENDBRANCH   1  20
TORSDOF 2
ENDMDL
MODEL 6
REMARK VINA RESULT:      -6.9      5.060      9.432
REMARK  Name = 
REMARK  2 active torsions:
REMARK  status: ('A' for Active; 'I' for Inactive)
REMARK    1  A    between atoms: C_2  and  C_3
REMARK    2  A    between atoms: C_5  and  N_6
REMARK                            x       y       z     vdW  Elec       q    Type
REMARK                         _______ _______ _______ _____ _____    ______ ____
ROOT
ATOM      1  C   UNL     1      -1.184  11.073  18.624  0.00  0.00    +0.000 C 
ATOM      2  C   UNL     1      -0.026  10.210  18.123  0.00  0.00    +0.000 C 
ATOM      3  C   UNL     1       1.029  10.249  19.221  0.00  0.00    +0.000 C 
ATOM      4  C   UNL     1       0.269  10.720  20.474  0.00  0.00    +0.000 C 
ATOM      5  N   UNL     1      -1.133  10.933  20.095  0.00  0.00    +0.000 NA
ATOM      6  H   UNL     1      -1.468  11.786  20.538  0.00  0.00    +0.000 HD
ENDROOT
BRANCH   3   7
ATOM      7  N   UNL     1       1.864   9.041  19.381  0.00  0.00    +0.000 NA
ATOM      8  C   UNL     1       1.966   8.274  18.113  0.00  0.00    +0.000 C 
ATOM      9  C   UNL     1       2.912   7.052  18.219  0.00  0.00    +0.000 C 
ATOM     10  N   UNL     1       2.544   6.204  19.351  0.00  0.00    +0.000 N 
ATOM     11  C   UNL     1       1.986   4.970  19.122  0.00  0.00    +0.000 A 
ATOM     12  N   UNL     1       2.292   4.332  17.977  0.00  0.00    +0.000 NA
ATOM     13  C   UNL     1       1.827   3.079  17.807  0.00  0.00    +0.000 A 
ATOM     14  C   UNL     1       1.032   2.436  18.716  0.00  0.00    +0.000 A 
ATOM     15  C   UNL     1       0.742   3.166  19.840  0.00  0.00    +0.000 A 
ATOM     16  N   UNL     1       1.210   4.410  20.064  0.00  0.00    +0.000 NA
ATOM     17  C   UNL     1       2.336   6.895  20.621  0.00  0.00    +0.000 C 
ATOM     18  C   UNL     1       1.403   8.116  20.451  0.00  0.00    +0.000 C 
ENDBRANCH   3   7
BRANCH   1  20
ATOM     19  O   UNL     1      -2.449   9.677  17.108  0.00  0.00    +0.000 OA
ATOM     20  C   UNL     1      -2.493  10.518  18.014  0.00  0.00    +0.000 C 
ATOM     21  N   UNL     1      -3.713  10.991  18.446  0.00  0.00    +0.000 N 
ATOM     22  C   UNL     1      -4.951  10.404  17.946  0.00  0.00    +0.000 C 
ATOM     23  C   UNL     1      -5.897  11.585  17.819  0.00  0.00    +0.000 C 
ATOM     24  F   UNL     1      -5.610  12.243  16.660  0.00  0.00    +0.000 F 
ATOM     25  C   UNL     1      -5.497  12.437  19.013  0.00  0.00    +0.000 C 
ATOM     26  F   UNL     1      -5.863  13.727  18.849  0.00  0.00    +0.000 F 
ATOM     27  C   UNL     1      -3.981  12.280  19.073  0.00  0.00    +0.000 C 
ENDBRANCH   1  20
TORSDOF 2
ENDMDL
MODEL 7
REMARK VINA RESULT:      -6.9      3.938      5.756
REMARK  Name = 
REMARK  2 active torsions:
REMARK  status: ('A' for Active; 'I' for Inactive)
REMARK    1  A    between atoms: C_2  and  C_3
REMARK    2  A    between atoms: C_5  and  N_6
REMARK                            x       y       z     vdW  Elec       q    Type
REMARK                         _______ _______ _______ _____ _____    ______ ____
ROOT
ATOM      1  C   UNL     1       1.240   8.053  20.196  0.00  0.00    +0.000 C 
ATOM      2  C   UNL     1       0.959   9.262  19.305  0.00  0.00    +0.000 C 
ATOM      3  C   UNL     1       0.507  10.376  20.241  0.00  0.00    +0.000 C 
ATOM      4  C   UNL     1       0.990   9.931  21.633  0.00  0.00    +0.000 C 
ATOM      5  N   UNL     1       1.672   8.640  21.482  0.00  0.00    +0.000 NA
ATOM      6  H   UNL     1       1.400   8.032  22.252  0.00  0.00    +0.000 HD
ENDROOT
BRANCH   3   7
ATOM      7  N   UNL     1       0.849  11.756  19.842  0.00  0.00    +0.000 NA
ATOM      8  C   UNL     1       1.738  11.778  18.653  0.00  0.00    +0.000 C 
ATOM      9  C   UNL     1       2.039  13.212  18.149  0.00  0.00    +0.000 C 
ATOM     10  N   UNL     1       2.546  14.050  19.234  0.00  0.00    +0.000 N 
ATOM     11  C   UNL     1       3.863  14.439  19.233  0.00  0.00    +0.000 A 
ATOM     12  N   UNL     1       4.496  14.552  18.050  0.00  0.00    +0.000 NA
ATOM     13  C   UNL     1       5.754  15.036  18.049  0.00  0.00    +0.000 A 
ATOM     14  C   UNL     1       6.433  15.382  19.185  0.00  0.00    +0.000 A 
ATOM     15  C   UNL     1       5.729  15.209  20.348  0.00  0.00    +0.000 A 
ATOM     16  N   UNL     1       4.460  14.756  20.393  0.00  0.00    +0.000 NA
ATOM     17  C   UNL     1       1.777  14.016  20.475  0.00  0.00    +0.000 C 
ATOM     18  C   UNL     1       1.487  12.563  20.917  0.00  0.00    +0.000 C 
ENDBRANCH   3   7
BRANCH   1  20
ATOM     19  O   UNL     1       2.932   7.635  18.521  0.00  0.00    +0.000 OA
ATOM     20  C   UNL     1       2.346   7.207  19.522  0.00  0.00    +0.000 C 
ATOM     21  N   UNL     1       2.651   5.955  20.007  0.00  0.00    +0.000 N 
ATOM     22  C   UNL     1       3.759   5.193  19.438  0.00  0.00    +0.000 C 
ATOM     23  C   UNL     1       3.268   3.756  19.455  0.00  0.00    +0.000 C 
ATOM     24  F   UNL     1       2.443   3.571  18.385  0.00  0.00    +0.000 F 
ATOM     25  C   UNL     1       2.463   3.715  20.744  0.00  0.00    +0.000 C 
ATOM     26  F   UNL     1       1.564   2.706  20.738  0.00  0.00    +0.000 F 
ATOM     27  C   UNL     1       1.783   5.080  20.786  0.00  0.00    +0.000 C 
ENDBRANCH   1  20
TORSDOF 2
ENDMDL
MODEL 8
REMARK VINA RESULT:      -6.9      3.257      4.523
REMARK  Name = 
REMARK  2 active torsions:
REMARK  status: ('A' for Active; 'I' for Inactive)
REMARK    1  A    between atoms: C_2  and  C_3
REMARK    2  A    between atoms: C_5  and  N_6
REMARK                            x       y       z     vdW  Elec       q    Type
REMARK                         _______ _______ _______ _____ _____    ______ ____
ROOT
ATOM      1  C   UNL     1       1.174   8.188  20.366  0.00  0.00    +0.000 C 
ATOM      2  C   UNL     1       0.826   9.640  20.036  0.00  0.00    +0.000 C 
ATOM      3  C   UNL     1       0.486  10.300  21.366  0.00  0.00    +0.000 C 
ATOM      4  C   UNL     1       1.096   9.369  22.429  0.00  0.00    +0.000 C 
ATOM      5  N   UNL     1       1.739   8.250  21.730  0.00  0.00    +0.000 NA
ATOM      6  H   UNL     1       1.535   7.388  22.232  0.00  0.00    +0.000 HD
ENDROOT
BRANCH   3   7
ATOM      7  N   UNL     1       0.809  11.736  21.494  0.00  0.00    +0.000 NA
ATOM      8  C   UNL     1      -0.368  12.524  21.940  0.00  0.00    +0.000 C 
ATOM      9  C   UNL     1      -0.040  14.019  22.177  0.00  0.00    +0.000 C 
ATOM     10  N   UNL     1       0.604  14.605  21.004  0.00  0.00    +0.000 N 
ATOM     11  C   UNL     1      -0.079  15.516  20.236  0.00  0.00    +0.000 A 
ATOM     12  N   UNL     1      -1.030  16.264  20.827  0.00  0.00    +0.000 NA
ATOM     13  C   UNL     1      -1.621  17.227  20.094  0.00  0.00    +0.000 A 
ATOM     14  C   UNL     1      -1.336  17.461  18.777  0.00  0.00    +0.000 A 
ATOM     15  C   UNL     1      -0.380  16.636  18.244  0.00  0.00    +0.000 A 
ATOM     16  N   UNL     1       0.259  15.679  18.947  0.00  0.00    +0.000 NA
ATOM     17  C   UNL     1       1.719  13.843  20.446  0.00  0.00    +0.000 C 
ATOM     18  C   UNL     1       1.343  12.356  20.252  0.00  0.00    +0.000 C 
ENDBRANCH   3   7
BRANCH   1  20
ATOM     19  O   UNL     1       2.505   8.410  18.359  0.00  0.00    +0.000 OA
ATOM     20  C   UNL     1       2.195   7.690  19.316  0.00  0.00    +0.000 C 
ATOM     21  N   UNL     1       2.730   6.424  19.417  0.00  0.00    +0.000 N 
ATOM     22  C   UNL     1       3.766   5.984  18.488  0.00  0.00    +0.000 C 
ATOM     23  C   UNL     1       3.447   4.520  18.244  0.00  0.00    +0.000 C 
ATOM     24  F   UNL     1       2.438   4.446  17.330  0.00  0.00    +0.000 F 
ATOM     25  C   UNL     1       2.945   4.077  19.609  0.00  0.00    +0.000 C 
ATOM     26  F   UNL     1       2.180   2.966  19.522  0.00  0.00    +0.000 F 
ATOM     27  C   UNL     1       2.147   5.279  20.105  0.00  0.00    +0.000 C 
ENDBRANCH   1  20
TORSDOF 2
ENDMDL
MODEL 9
REMARK VINA RESULT:      -6.9      2.986      3.719
REMARK  Name = 
REMARK  2 active torsions:
REMARK  status: ('A' for Active; 'I' for Inactive)
REMARK    1  A    between atoms: C_2  and  C_3
REMARK    2  A    between atoms: C_5  and  N_6
REMARK                            x       y       z     vdW  Elec       q    Type
REMARK                         _______ _______ _______ _____ _____    ______ ____
ROOT
ATOM      1  C   UNL     1       2.977   6.403  18.496  0.00  0.00    +0.000 C 
ATOM      2  C   UNL     1       2.132   6.853  19.687  0.00  0.00    +0.000 C 
ATOM      3  C   UNL     1       2.079   8.374  19.611  0.00  0.00    +0.000 C 
ATOM      4  C   UNL     1       2.477   8.704  18.161  0.00  0.00    +0.000 C 
ATOM      5  N   UNL     1       2.739   7.438  17.467  0.00  0.00    +0.000 NA
ATOM      6  H   UNL     1       3.565   7.547  16.883  0.00  0.00    +0.000 HD
ENDROOT
BRANCH   3   7
ATOM      7  N   UNL     1       0.850   9.020  20.113  0.00  0.00    +0.000 NA
ATOM      8  C   UNL     1       0.354  10.057  19.173  0.00  0.00    +0.000 C 
ATOM      9  C   UNL     1      -0.987  10.689  19.622  0.00  0.00    +0.000 C 
ATOM     10  N   UNL     1      -0.897  11.185  20.994  0.00  0.00    +0.000 N 
ATOM     11  C   UNL     1      -0.893  12.538  21.229  0.00  0.00    +0.000 A 
ATOM     12  N   UNL     1      -1.517  13.342  20.347  0.00  0.00    +0.000 NA
ATOM     13  C   UNL     1      -1.600  14.655  20.637  0.00  0.00    +0.000 A 
ATOM     14  C   UNL     1      -1.055  15.219  21.758  0.00  0.00    +0.000 A 
ATOM     15  C   UNL     1      -0.412  14.337  22.588  0.00  0.00    +0.000 A 
ATOM     16  N   UNL     1      -0.330  13.013  22.351  0.00  0.00    +0.000 NA
ATOM     17  C   UNL     1      -0.333  10.255  21.969  0.00  0.00    +0.000 C 
ATOM     18  C   UNL     1       0.991   9.639  21.459  0.00  0.00    +0.000 C 
ENDBRANCH   3   7
BRANCH   1  20
ATOM     19  O   UNL     1       1.413   4.878  17.460  0.00  0.00    +0.000 OA
ATOM     20  C   UNL     1       2.487   5.001  18.062  0.00  0.00    +0.000 C 
ATOM     21  N   UNL     1       3.222   3.881  18.382  0.00  0.00    +0.000 N 
ATOM     22  C   UNL     1       2.816   2.568  17.892  0.00  0.00    +0.000 C 
ATOM     23  C   UNL     1       3.139   1.628  19.040  0.00  0.00    +0.000 C 
ATOM     24  F   UNL     1       2.139   1.717  19.962  0.00  0.00    +0.000 F 
ATOM     25  C   UNL     1       4.414   2.240  19.596  0.00  0.00    +0.000 C 
ATOM     26  F   UNL     1       4.629   1.865  20.877  0.00  0.00    +0.000 F 
ATOM     27  C   UNL     1       4.174   3.741  19.476  0.00  0.00    +0.000 C 
ENDBRANCH   1  20
TORSDOF 2
ENDMDL
