MODEL 1
REMARK VINA RESULT:      -7.3      0.000      0.000
REMARK  Name = 
REMARK  7 active torsions:
REMARK  status: ('A' for Active; 'I' for Inactive)
REMARK    1  A    between atoms: C_1  and  O_2
REMARK    2  A    between atoms: O_2  and  C_3
REMARK    3  A    between atoms: C_3  and  C_4
REMARK    4  A    between atoms: C_4  and  N_5
REMARK    5  A    between atoms: C_6  and  C_8
REMARK    6  A    between atoms: N_10  and  C_11
REMARK    7  A    between atoms: C_11  and  C_12
REMARK                            x       y       z     vdW  Elec       q    Type
REMARK                         _______ _______ _______ _____ _____    ______ ____
ROOT
ATOM      1  C   UNL     1       6.449   6.058  17.657  0.00  0.00    +0.000 C 
ATOM      2  C   UNL     1       5.909   5.169  18.783  0.00  0.00    +0.000 C 
ATOM      3  N   UNL     1       4.996   4.101  18.360  0.00  0.00    +0.000 NA
ATOM      4  C   UNL     1       3.809   4.523  17.607  0.00  0.00    +0.000 C 
ATOM      5  C   UNL     1       3.331   5.917  17.826  0.00  0.00    +0.000 A 
ATOM      6  C   UNL     1       2.079   6.400  18.153  0.00  0.00    +0.000 A 
ATOM      7  C   UNL     1       2.196   7.799  18.100  0.00  0.00    +0.000 A 
ATOM      8  N   UNL     1       3.432   8.187  17.793  0.00  0.00    +0.000 NA
ATOM      9  N   UNL     1       4.098   7.031  17.600  0.00  0.00    +0.000 N 
ATOM     10  C   UNL     1       5.466   7.110  17.131  0.00  0.00    +0.000 C 
ENDROOT
BRANCH   1  12
ATOM     11  N   UNL     1       6.516   5.520  15.256  0.00  0.00    +0.000 N 
ATOM     12  C   UNL     1       7.055   5.268  16.502  0.00  0.00    +0.000 C 
ATOM     13  O   UNL     1       7.912   4.398  16.665  0.00  0.00    +0.000 OA
ATOM     14  H   UNL     1       6.138   6.447  15.080  0.00  0.00    +0.000 HD
BRANCH  11  15
ATOM     15  C   UNL     1       7.071   4.831  14.105  0.00  0.00    +0.000 C 
BRANCH  15  16
ATOM     16  C   UNL     1       6.154   3.728  13.588  0.00  0.00    +0.000 C 
BRANCH  16  18
ATOM     17  C   UNL     1       5.611   2.501  11.653  0.00  0.00    +0.000 C 
ATOM     18  O   UNL     1       6.544   3.387  12.254  0.00  0.00    +0.000 OA
ENDBRANCH  16  18
ENDBRANCH  15  16
ENDBRANCH  11  15
ENDBRANCH   1  12
BRANCH   3  19
ATOM     19  C   UNL     1       4.686   3.136  19.439  0.00  0.00    +0.000 C 
BRANCH  19  20
ATOM     20  C   UNL     1       3.192   2.945  19.665  0.00  0.00    +0.000 A 
ATOM     21  N   UNL     1       2.416   2.145  18.954  0.00  0.00    +0.000 NA
ATOM     22  C   UNL     1       1.104   2.278  19.354  0.00  0.00    +0.000 A 
ATOM     23  C   UNL     1       0.894   3.107  20.431  0.00  0.00    +0.000 A 
ATOM     24  S   UNL     1       2.382   3.797  20.928  0.00  0.00    +0.000 S 
ENDBRANCH  19  20
ENDBRANCH   3  19
TORSDOF 6
ENDMDL
MODEL 2
REMARK VINA RESULT:      -6.4      3.221      5.430
REMARK  Name = 
REMARK  7 active torsions:
REMARK  status: ('A' for Active; 'I' for Inactive)
REMARK    1  A    between atoms: C_1  and  O_2
REMARK    2  A    between atoms: O_2  and  C_3
REMARK    3  A    between atoms: C_3  and  C_4
REMARK    4  A    between atoms: C_4  and  N_5
REMARK    5  A    between atoms: C_6  and  C_8
REMARK    6  A    between atoms: N_10  and  C_11
REMARK    7  A    between atoms: C_11  and  C_12
REMARK                            x       y       z     vdW  Elec       q    Type
REMARK                         _______ _______ _______ _____ _____    ______ ____
ROOT
ATOM      1  C   UNL     1       4.930   4.598  17.969  0.00  0.00    +0.000 C 
ATOM      2  C   UNL     1       3.824   5.545  17.490  0.00  0.00    +0.000 C 
ATOM      3  N   UNL     1       3.363   6.527  18.478  0.00  0.00    +0.000 NA
ATOM      4  C   UNL     1       2.873   5.986  19.752  0.00  0.00    +0.000 C 
ATOM      5  C   UNL     1       2.350   4.591  19.735  0.00  0.00    +0.000 A 
ATOM      6  C   UNL     1       1.153   4.071  20.187  0.00  0.00    +0.000 A 
ATOM      7  C   UNL     1       1.268   2.680  20.025  0.00  0.00    +0.000 A 
ATOM      8  N   UNL     1       2.433   2.334  19.484  0.00  0.00    +0.000 NA
ATOM      9  N   UNL     1       3.089   3.504  19.344  0.00  0.00    +0.000 N 
ATOM     10  C   UNL     1       4.460   3.459  18.880  0.00  0.00    +0.000 C 
ENDROOT
BRANCH   1  12
ATOM     11  N   UNL     1       6.774   6.217  17.768  0.00  0.00    +0.000 N 
ATOM     12  C   UNL     1       6.118   5.324  18.592  0.00  0.00    +0.000 C 
ATOM     13  O   UNL     1       6.529   5.079  19.728  0.00  0.00    +0.000 OA
ATOM     14  H   UNL     1       6.234   6.680  17.043  0.00  0.00    +0.000 HD
BRANCH  11  15
ATOM     15  C   UNL     1       7.891   6.970  18.308  0.00  0.00    +0.000 C 
BRANCH  15  16
ATOM     16  C   UNL     1       7.934   8.403  17.789  0.00  0.00    +0.000 C 
BRANCH  16  18
ATOM     17  C   UNL     1       8.970  10.482  18.169  0.00  0.00    +0.000 C 
ATOM     18  O   UNL     1       8.652   9.215  18.723  0.00  0.00    +0.000 OA
ENDBRANCH  16  18
ENDBRANCH  15  16
ENDBRANCH  11  15
ENDBRANCH   1  12
BRANCH   3  19
ATOM     19  C   UNL     1       2.469   7.558  17.904  0.00  0.00    +0.000 C 
BRANCH  19  20
ATOM     20  C   UNL     1       1.839   8.463  18.955  0.00  0.00    +0.000 A 
ATOM     21  N   UNL     1       1.696   8.153  20.232  0.00  0.00    +0.000 NA
ATOM     22  C   UNL     1       1.004   9.149  20.887  0.00  0.00    +0.000 A 
ATOM     23  C   UNL     1       0.704  10.258  20.131  0.00  0.00    +0.000 A 
ATOM     24  S   UNL     1       1.251  10.027  18.524  0.00  0.00    +0.000 S 
ENDBRANCH  19  20
ENDBRANCH   3  19
TORSDOF 6
ENDMDL
MODEL 3
REMARK VINA RESULT:      -6.4      2.884      5.516
REMARK  Name = 
REMARK  7 active torsions:
REMARK  status: ('A' for Active; 'I' for Inactive)
REMARK    1  A    between atoms: C_1  and  O_2
REMARK    2  A    between atoms: O_2  and  C_3
REMARK    3  A    between atoms: C_3  and  C_4
REMARK    4  A    between atoms: C_4  and  N_5
REMARK    5  A    between atoms: C_6  and  C_8
REMARK    6  A    between atoms: N_10  and  C_11
REMARK    7  A    between atoms: C_11  and  C_12
REMARK                            x       y       z     vdW  Elec       q    Type
REMARK                         _______ _______ _______ _____ _____    ______ ____
ROOT
ATOM      1  C   UNL     1       5.600   4.990  19.162  0.00  0.00    +0.000 C 
ATOM      2  C   UNL     1       4.957   6.260  18.593  0.00  0.00    +0.000 C 
ATOM      3  N   UNL     1       3.788   6.044  17.732  0.00  0.00    +0.000 NA
ATOM      4  C   UNL     1       3.990   5.169  16.571  0.00  0.00    +0.000 C 
ATOM      5  C   UNL     1       5.379   5.058  16.044  0.00  0.00    +0.000 A 
ATOM      6  C   UNL     1       5.874   5.220  14.764  0.00  0.00    +0.000 A 
ATOM      7  C   UNL     1       7.232   4.867  14.844  0.00  0.00    +0.000 A 
ATOM      8  N   UNL     1       7.590   4.533  16.082  0.00  0.00    +0.000 NA
ATOM      9  N   UNL     1       6.446   4.625  16.790  0.00  0.00    +0.000 N 
ATOM     10  C   UNL     1       6.474   4.207  18.175  0.00  0.00    +0.000 C 
ENDROOT
BRANCH   1  12
ATOM     11  N   UNL     1       3.435   4.655  20.285  0.00  0.00    +0.000 N 
ATOM     12  C   UNL     1       4.601   4.061  19.845  0.00  0.00    +0.000 C 
ATOM     13  O   UNL     1       4.841   2.874  20.070  0.00  0.00    +0.000 OA
ATOM     14  H   UNL     1       3.092   5.466  19.777  0.00  0.00    +0.000 HD
BRANCH  11  15
ATOM     15  C   UNL     1       2.424   3.823  20.910  0.00  0.00    +0.000 C 
BRANCH  15  16
ATOM     16  C   UNL     1       1.049   3.996  20.273  0.00  0.00    +0.000 C 
BRANCH  16  18
ATOM     17  C   UNL     1       1.274   2.266  18.692  0.00  0.00    +0.000 C 
ATOM     18  O   UNL     1       1.137   3.666  18.883  0.00  0.00    +0.000 OA
ENDBRANCH  16  18
ENDBRANCH  15  16
ENDBRANCH  11  15
ENDBRANCH   1  12
BRANCH   3  19
ATOM     19  C   UNL     1       3.070   7.295  17.398  0.00  0.00    +0.000 C 
BRANCH  19  20
ATOM     20  C   UNL     1       2.340   7.906  18.587  0.00  0.00    +0.000 A 
ATOM     21  N   UNL     1       2.251   7.354  19.784  0.00  0.00    +0.000 NA
ATOM     22  C   UNL     1       1.443   8.119  20.599  0.00  0.00    +0.000 A 
ATOM     23  C   UNL     1       0.997   9.299  20.052  0.00  0.00    +0.000 A 
ATOM     24  S   UNL     1       1.553   9.435  18.438  0.00  0.00    +0.000 S 
ENDBRANCH  19  20
ENDBRANCH   3  19
TORSDOF 6
ENDMDL
MODEL 4
REMARK VINA RESULT:      -6.2      3.735      7.155
REMARK  Name = 
REMARK  7 active torsions:
REMARK  status: ('A' for Active; 'I' for Inactive)
REMARK    1  A    between atoms: C_1  and  O_2
REMARK    2  A    between atoms: O_2  and  C_3
REMARK    3  A    between atoms: C_3  and  C_4
REMARK    4  A    between atoms: C_4  and  N_5
REMARK    5  A    between atoms: C_6  and  C_8
REMARK    6  A    between atoms: N_10  and  C_11
REMARK    7  A    between atoms: C_11  and  C_12
REMARK                            x       y       z     vdW  Elec       q    Type
REMARK                         _______ _______ _______ _____ _____    ______ ____
ROOT
ATOM      1  C   UNL     1       2.711   6.188  20.172  0.00  0.00    +0.000 C 
ATOM      2  C   UNL     1       3.842   5.550  19.358  0.00  0.00    +0.000 C 
ATOM      3  N   UNL     1       3.574   5.385  17.925  0.00  0.00    +0.000 NA
ATOM      4  C   UNL     1       2.374   4.616  17.574  0.00  0.00    +0.000 C 
ATOM      5  C   UNL     1       1.889   3.628  18.578  0.00  0.00    +0.000 A 
ATOM      6  C   UNL     1       1.583   2.286  18.449  0.00  0.00    +0.000 A 
ATOM      7  C   UNL     1       1.055   1.905  19.694  0.00  0.00    +0.000 A 
ATOM      8  N   UNL     1       1.049   2.911  20.565  0.00  0.00    +0.000 NA
ATOM      9  N   UNL     1       1.529   3.956  19.860  0.00  0.00    +0.000 N 
ATOM     10  C   UNL     1       1.541   5.254  20.501  0.00  0.00    +0.000 C 
ENDROOT
BRANCH   1  12
ATOM     11  N   UNL     1       1.467   8.297  20.424  0.00  0.00    +0.000 N 
ATOM     12  C   UNL     1       2.200   7.495  19.573  0.00  0.00    +0.000 C 
ATOM     13  O   UNL     1       2.352   7.789  18.386  0.00  0.00    +0.000 OA
ATOM     14  H   UNL     1       1.677   8.255  21.417  0.00  0.00    +0.000 HD
BRANCH  11  15
ATOM     15  C   UNL     1       0.981   9.574  19.931  0.00  0.00    +0.000 C 
BRANCH  15  16
ATOM     16  C   UNL     1       0.431  10.458  21.045  0.00  0.00    +0.000 C 
BRANCH  16  18
ATOM     17  C   UNL     1      -0.289   9.831  23.197  0.00  0.00    +0.000 C 
ATOM     18  O   UNL     1       0.816   9.907  22.309  0.00  0.00    +0.000 OA
ENDBRANCH  16  18
ENDBRANCH  15  16
ENDBRANCH  11  15
ENDBRANCH   1  12
BRANCH   3  19
ATOM     19  C   UNL     1       4.768   4.983  17.149  0.00  0.00    +0.000 C 
BRANCH  19  20
ATOM     20  C   UNL     1       6.073   5.500  17.741  0.00  0.00    +0.000 A 
ATOM     21  N   UNL     1       6.858   4.815  18.555  0.00  0.00    +0.000 NA
ATOM     22  C   UNL     1       7.904   5.606  18.981  0.00  0.00    +0.000 A 
ATOM     23  C   UNL     1       7.968   6.859  18.417  0.00  0.00    +0.000 A 
ATOM     24  S   UNL     1       6.638   7.086  17.361  0.00  0.00    +0.000 S 
ENDBRANCH  19  20
ENDBRANCH   3  19
TORSDOF 6
ENDMDL
MODEL 5
REMARK VINA RESULT:      -6.1      1.064      1.321
REMARK  Name = 
REMARK  7 active torsions:
REMARK  status: ('A' for Active; 'I' for Inactive)
REMARK    1  A    between atoms: C_1  and  O_2
REMARK    2  A    between atoms: O_2  and  C_3
REMARK    3  A    between atoms: C_3  and  C_4
REMARK    4  A    between atoms: C_4  and  N_5
REMARK    5  A    between atoms: C_6  and  C_8
REMARK    6  A    between atoms: N_10  and  C_11
REMARK    7  A    between atoms: C_11  and  C_12
REMARK                            x       y       z     vdW  Elec       q    Type
REMARK                         _______ _______ _______ _____ _____    ______ ____
ROOT
ATOM      1  C   UNL     1       6.391   5.715  17.449  0.00  0.00    +0.000 C 
ATOM      2  C   UNL     1       5.883   4.959  18.682  0.00  0.00    +0.000 C 
ATOM      3  N   UNL     1       4.880   3.922  18.417  0.00  0.00    +0.000 NA
ATOM      4  C   UNL     1       3.667   4.356  17.713  0.00  0.00    +0.000 C 
ATOM      5  C   UNL     1       3.290   5.792  17.842  0.00  0.00    +0.000 A 
ATOM      6  C   UNL     1       2.096   6.382  18.211  0.00  0.00    +0.000 A 
ATOM      7  C   UNL     1       2.293   7.761  18.029  0.00  0.00    +0.000 A 
ATOM      8  N   UNL     1       3.523   8.041  17.606  0.00  0.00    +0.000 NA
ATOM      9  N   UNL     1       4.104   6.831  17.468  0.00  0.00    +0.000 N 
ATOM     10  C   UNL     1       5.435   6.782  16.902  0.00  0.00    +0.000 C 
ENDROOT
BRANCH   1  12
ATOM     11  N   UNL     1       5.897   4.425  15.411  0.00  0.00    +0.000 N 
ATOM     12  C   UNL     1       6.861   4.794  16.328  0.00  0.00    +0.000 C 
ATOM     13  O   UNL     1       8.004   4.335  16.277  0.00  0.00    +0.000 OA
ATOM     14  H   UNL     1       5.136   5.074  15.234  0.00  0.00    +0.000 HD
BRANCH  11  15
ATOM     15  C   UNL     1       6.285   3.580  14.296  0.00  0.00    +0.000 C 
BRANCH  15  16
ATOM     16  C   UNL     1       5.951   4.206  12.946  0.00  0.00    +0.000 C 
BRANCH  16  18
ATOM     17  C   UNL     1       7.975   5.365  12.631  0.00  0.00    +0.000 C 
ATOM     18  O   UNL     1       7.150   4.306  12.171  0.00  0.00    +0.000 OA
ENDBRANCH  16  18
ENDBRANCH  15  16
ENDBRANCH  11  15
ENDBRANCH   1  12
BRANCH   3  19
ATOM     19  C   UNL     1       4.593   3.072  19.595  0.00  0.00    +0.000 C 
BRANCH  19  20
ATOM     20  C   UNL     1       3.133   3.108  20.023  0.00  0.00    +0.000 A 
ATOM     21  N   UNL     1       2.644   3.879  20.980  0.00  0.00    +0.000 NA
ATOM     22  C   UNL     1       1.310   3.598  21.180  0.00  0.00    +0.000 A 
ATOM     23  C   UNL     1       0.760   2.682  20.314  0.00  0.00    +0.000 A 
ATOM     24  S   UNL     1       1.967   2.101  19.246  0.00  0.00    +0.000 S 
ENDBRANCH  19  20
ENDBRANCH   3  19
TORSDOF 6
ENDMDL
MODEL 6
REMARK VINA RESULT:      -6.1      3.240      6.328
REMARK  Name = 
REMARK  7 active torsions:
REMARK  status: ('A' for Active; 'I' for Inactive)
REMARK    1  A    between atoms: C_1  and  O_2
REMARK    2  A    between atoms: O_2  and  C_3
REMARK    3  A    between atoms: C_3  and  C_4
REMARK    4  A    between atoms: C_4  and  N_5
REMARK    5  A    between atoms: C_6  and  C_8
REMARK    6  A    between atoms: N_10  and  C_11
REMARK    7  A    between atoms: C_11  and  C_12
REMARK                            x       y       z     vdW  Elec       q    Type
REMARK                         _______ _______ _______ _____ _____    ______ ____
ROOT
ATOM      1  C   UNL     1       3.689   6.125  19.319  0.00  0.00    +0.000 C 
ATOM      2  C   UNL     1       4.417   4.938  18.679  0.00  0.00    +0.000 C 
ATOM      3  N   UNL     1       3.734   4.320  17.537  0.00  0.00    +0.000 NA
ATOM      4  C   UNL     1       2.368   3.842  17.778  0.00  0.00    +0.000 C 
ATOM      5  C   UNL     1       2.016   3.489  19.182  0.00  0.00    +0.000 A 
ATOM      6  C   UNL     1       1.454   2.342  19.710  0.00  0.00    +0.000 A 
ATOM      7  C   UNL     1       1.236   2.627  21.068  0.00  0.00    +0.000 A 
ATOM      8  N   UNL     1       1.651   3.848  21.397  0.00  0.00    +0.000 NA
ATOM      9  N   UNL     1       2.092   4.367  20.233  0.00  0.00    +0.000 N 
ATOM     10  C   UNL     1       2.511   5.753  20.227  0.00  0.00    +0.000 C 
ENDROOT
BRANCH   1  12
ATOM     11  N   UNL     1       2.144   7.918  18.641  0.00  0.00    +0.000 N 
ATOM     12  C   UNL     1       3.271   7.191  18.311  0.00  0.00    +0.000 C 
ATOM     13  O   UNL     1       3.841   7.348  17.230  0.00  0.00    +0.000 OA
ATOM     14  H   UNL     1       1.941   8.059  19.626  0.00  0.00    +0.000 HD
BRANCH  11  15
ATOM     15  C   UNL     1       1.711   8.974  17.744  0.00  0.00    +0.000 C 
BRANCH  15  16
ATOM     16  C   UNL     1       1.354  10.258  18.486  0.00  0.00    +0.000 C 
BRANCH  16  18
ATOM     17  C   UNL     1      -0.996  10.365  18.583  0.00  0.00    +0.000 C 
ATOM     18  O   UNL     1       0.189  10.024  19.285  0.00  0.00    +0.000 OA
ENDBRANCH  16  18
ENDBRANCH  15  16
ENDBRANCH  11  15
ENDBRANCH   1  12
BRANCH   3  19
ATOM     19  C   UNL     1       4.574   3.337  16.815  0.00  0.00    +0.000 C 
BRANCH  19  20
ATOM     20  C   UNL     1       5.543   3.980  15.832  0.00  0.00    +0.000 A 
ATOM     21  N   UNL     1       5.333   4.101  14.533  0.00  0.00    +0.000 NA
ATOM     22  C   UNL     1       6.445   4.638  13.920  0.00  0.00    +0.000 A 
ATOM     23  C   UNL     1       7.463   5.014  14.765  0.00  0.00    +0.000 A 
ATOM     24  S   UNL     1       7.046   4.626  16.381  0.00  0.00    +0.000 S 
ENDBRANCH  19  20
ENDBRANCH   3  19
TORSDOF 6
ENDMDL
MODEL 7
REMARK VINA RESULT:      -6.0      3.714      6.759
REMARK  Name = 
REMARK  7 active torsions:
REMARK  status: ('A' for Active; 'I' for Inactive)
REMARK    1  A    between atoms: C_1  and  O_2
REMARK    2  A    between atoms: O_2  and  C_3
REMARK    3  A    between atoms: C_3  and  C_4
REMARK    4  A    between atoms: C_4  and  N_5
REMARK    5  A    between atoms: C_6  and  C_8
REMARK    6  A    between atoms: N_10  and  C_11
REMARK    7  A    between atoms: C_11  and  C_12
REMARK                            x       y       z     vdW  Elec       q    Type
REMARK                         _______ _______ _______ _____ _____    ______ ____
ROOT
ATOM      1  C   UNL     1       2.677   6.596  19.950  0.00  0.00    +0.000 C 
ATOM      2  C   UNL     1       3.831   5.847  19.274  0.00  0.00    +0.000 C 
ATOM      3  N   UNL     1       3.582   5.416  17.894  0.00  0.00    +0.000 NA
ATOM      4  C   UNL     1       2.403   4.567  17.683  0.00  0.00    +0.000 C 
ATOM      5  C   UNL     1       1.929   3.769  18.848  0.00  0.00    +0.000 A 
ATOM      6  C   UNL     1       1.654   2.419  18.964  0.00  0.00    +0.000 A 
ATOM      7  C   UNL     1       1.122   2.260  20.255  0.00  0.00    +0.000 A 
ATOM      8  N   UNL     1       1.084   3.408  20.927  0.00  0.00    +0.000 NA
ATOM      9  N   UNL     1       1.549   4.318  20.045  0.00  0.00    +0.000 N 
ATOM     10  C   UNL     1       1.524   5.711  20.437  0.00  0.00    +0.000 C 
ENDROOT
BRANCH   1  12
ATOM     11  N   UNL     1       1.347   8.662  19.793  0.00  0.00    +0.000 N 
ATOM     12  C   UNL     1       2.144   7.759  19.118  0.00  0.00    +0.000 C 
ATOM     13  O   UNL     1       2.334   7.853  17.905  0.00  0.00    +0.000 OA
ATOM     14  H   UNL     1       1.518   8.799  20.785  0.00  0.00    +0.000 HD
BRANCH  11  15
ATOM     15  C   UNL     1       0.836   9.814  19.072  0.00  0.00    +0.000 C 
BRANCH  15  16
ATOM     16  C   UNL     1      -0.510  10.288  19.608  0.00  0.00    +0.000 C 
BRANCH  16  18
ATOM     17  C   UNL     1      -1.593  10.067  17.530  0.00  0.00    +0.000 C 
ATOM     18  O   UNL     1      -1.215  10.964  18.562  0.00  0.00    +0.000 OA
ENDBRANCH  16  18
ENDBRANCH  15  16
ENDBRANCH  11  15
ENDBRANCH   1  12
BRANCH   3  19
ATOM     19  C   UNL     1       4.793   4.907  17.213  0.00  0.00    +0.000 C 
BRANCH  19  20
ATOM     20  C   UNL     1       6.088   5.455  17.797  0.00  0.00    +0.000 A 
ATOM     21  N   UNL     1       6.842   4.829  18.685  0.00  0.00    +0.000 NA
ATOM     22  C   UNL     1       7.886   5.639  19.076  0.00  0.00    +0.000 A 
ATOM     23  C   UNL     1       7.982   6.843  18.417  0.00  0.00    +0.000 A 
ATOM     24  S   UNL     1       6.683   6.999  17.310  0.00  0.00    +0.000 S 
ENDBRANCH  19  20
ENDBRANCH   3  19
TORSDOF 6
ENDMDL
MODEL 8
REMARK VINA RESULT:      -5.9      3.683      7.034
REMARK  Name = 
REMARK  7 active torsions:
REMARK  status: ('A' for Active; 'I' for Inactive)
REMARK    1  A    between atoms: C_1  and  O_2
REMARK    2  A    between atoms: O_2  and  C_3
REMARK    3  A    between atoms: C_3  and  C_4
REMARK    4  A    between atoms: C_4  and  N_5
REMARK    5  A    between atoms: C_6  and  C_8
REMARK    6  A    between atoms: N_10  and  C_11
REMARK    7  A    between atoms: C_11  and  C_12
REMARK                            x       y       z     vdW  Elec       q    Type
REMARK                         _______ _______ _______ _____ _____    ______ ____
ROOT
ATOM      1  C   UNL     1       2.723   6.122  20.224  0.00  0.00    +0.000 C 
ATOM      2  C   UNL     1       3.958   5.536  19.530  0.00  0.00    +0.000 C 
ATOM      3  N   UNL     1       3.869   5.424  18.070  0.00  0.00    +0.000 NA
ATOM      4  C   UNL     1       2.737   4.649  17.547  0.00  0.00    +0.000 C 
ATOM      5  C   UNL     1       2.156   3.614  18.446  0.00  0.00    +0.000 A 
ATOM      6  C   UNL     1       1.897   2.274  18.230  0.00  0.00    +0.000 A 
ATOM      7  C   UNL     1       1.231   1.834  19.386  0.00  0.00    +0.000 A 
ATOM      8  N   UNL     1       1.097   2.804  20.287  0.00  0.00    +0.000 NA
ATOM      9  N   UNL     1       1.636   3.884  19.686  0.00  0.00    +0.000 N 
ATOM     10  C   UNL     1       1.542   5.156  20.372  0.00  0.00    +0.000 C 
ENDROOT
BRANCH   1  12
ATOM     11  N   UNL     1       1.440   8.214  20.416  0.00  0.00    +0.000 N 
ATOM     12  C   UNL     1       2.259   7.442  19.617  0.00  0.00    +0.000 C 
ATOM     13  O   UNL     1       2.523   7.774  18.459  0.00  0.00    +0.000 OA
ATOM     14  H   UNL     1       1.554   8.143  21.423  0.00  0.00    +0.000 HD
BRANCH  11  15
ATOM     15  C   UNL     1       0.992   9.501  19.916  0.00  0.00    +0.000 C 
BRANCH  15  16
ATOM     16  C   UNL     1      -0.377   9.895  20.460  0.00  0.00    +0.000 C 
BRANCH  16  18
ATOM     17  C   UNL     1       0.125  11.514  18.827  0.00  0.00    +0.000 C 
ATOM     18  O   UNL     1      -0.846  11.045  19.749  0.00  0.00    +0.000 OA
ENDBRANCH  16  18
ENDBRANCH  15  16
ENDBRANCH  11  15
ENDBRANCH   1  12
BRANCH   3  19
ATOM     19  C   UNL     1       5.157   5.074  17.431  0.00  0.00    +0.000 C 
BRANCH  19  20
ATOM     20  C   UNL     1       6.256   6.096  17.690  0.00  0.00    +0.000 A 
ATOM     21  N   UNL     1       6.366   7.259  17.072  0.00  0.00    +0.000 NA
ATOM     22  C   UNL     1       7.521   7.899  17.469  0.00  0.00    +0.000 A 
ATOM     23  C   UNL     1       8.240   7.266  18.457  0.00  0.00    +0.000 A 
ATOM     24  S   UNL     1       7.480   5.786  18.866  0.00  0.00    +0.000 S 
ENDBRANCH  19  20
ENDBRANCH   3  19
TORSDOF 6
ENDMDL
MODEL 9
REMARK VINA RESULT:      -5.9      3.449      6.379
REMARK  Name = 
REMARK  7 active torsions:
REMARK  status: ('A' for Active; 'I' for Inactive)
REMARK    1  A    between atoms: C_1  and  O_2
REMARK    2  A    between atoms: O_2  and  C_3
REMARK    3  A    between atoms: C_3  and  C_4
REMARK    4  A    between atoms: C_4  and  N_5
REMARK    5  A    between atoms: C_6  and  C_8
REMARK    6  A    between atoms: N_10  and  C_11
REMARK    7  A    between atoms: C_11  and  C_12
REMARK                            x       y       z     vdW  Elec       q    Type
REMARK                         _______ _______ _______ _____ _____    ______ ____
ROOT
ATOM      1  C   UNL     1       6.813   5.351  18.408  0.00  0.00    +0.000 C 
ATOM      2  C   UNL     1       6.839   4.283  17.308  0.00  0.00    +0.000 C 
ATOM      3  N   UNL     1       5.870   4.472  16.222  0.00  0.00    +0.000 NA
ATOM      4  C   UNL     1       4.461   4.573  16.620  0.00  0.00    +0.000 C 
ATOM      5  C   UNL     1       4.076   3.927  17.906  0.00  0.00    +0.000 A 
ATOM      6  C   UNL     1       3.069   3.026  18.197  0.00  0.00    +0.000 A 
ATOM      7  C   UNL     1       3.105   2.870  19.593  0.00  0.00    +0.000 A 
ATOM      8  N   UNL     1       4.075   3.588  20.154  0.00  0.00    +0.000 NA
ATOM      9  N   UNL     1       4.633   4.247  19.118  0.00  0.00    +0.000 N 
ATOM     10  C   UNL     1       5.664   5.220  19.413  0.00  0.00    +0.000 C 
ENDROOT
BRANCH   1  12
ATOM     11  N   UNL     1       7.989   7.509  18.270  0.00  0.00    +0.000 N 
ATOM     12  C   UNL     1       6.891   6.775  17.868  0.00  0.00    +0.000 C 
ATOM     13  O   UNL     1       5.998   7.280  17.185  0.00  0.00    +0.000 OA
ATOM     14  H   UNL     1       8.849   7.007  18.472  0.00  0.00    +0.000 HD
BRANCH  11  15
ATOM     15  C   UNL     1       8.146   8.861  17.764  0.00  0.00    +0.000 C 
BRANCH  15  16
ATOM     16  C   UNL     1       8.882   9.769  18.743  0.00  0.00    +0.000 C 
BRANCH  16  18
ATOM     17  C   UNL     1      10.535  11.444  18.813  0.00  0.00    +0.000 C 
ATOM     18  O   UNL     1       9.569  10.786  18.007  0.00  0.00    +0.000 OA
ENDBRANCH  16  18
ENDBRANCH  15  16
ENDBRANCH  11  15
ENDBRANCH   1  12
BRANCH   3  19
ATOM     19  C   UNL     1       6.087   3.556  15.080  0.00  0.00    +0.000 C 
BRANCH  19  20
ATOM     20  C   UNL     1       6.784   4.219  13.899  0.00  0.00    +0.000 A 
ATOM     21  N   UNL     1       7.617   5.242  13.990  0.00  0.00    +0.000 NA
ATOM     22  C   UNL     1       7.993   5.660  12.732  0.00  0.00    +0.000 A 
ATOM     23  C   UNL     1       7.523   4.897  11.688  0.00  0.00    +0.000 A 
ATOM     24  S   UNL     1       6.521   3.646  12.293  0.00  0.00    +0.000 S 
ENDBRANCH  19  20
ENDBRANCH   3  19
TORSDOF 6
ENDMDL
