MODEL 1
REMARK VINA RESULT:      -7.5      0.000      0.000
REMARK  Name = 
REMARK  3 active torsions:
REMARK  status: ('A' for Active; 'I' for Inactive)
REMARK    1  A    between atoms: C_2  and  C_3
REMARK    2  A    between atoms: C_2  and  C_18
REMARK    3  A    between atoms: C_9  and  C_11
REMARK                            x       y       z     vdW  Elec       q    Type
REMARK                         _______ _______ _______ _____ _____    ______ ____
ROOT
ATOM      1  C   UNL     1       1.240  11.093  19.078  0.00  0.00    +0.000 C 
ATOM      2  O   UNL     1       1.693  11.957  18.335  0.00  0.00    +0.000 OA
ATOM      3  N   UNL     1       1.306   9.725  18.841  0.00  0.00    +0.000 N 
ATOM      4  C   UNL     1       1.949   9.226  17.624  0.00  0.00    +0.000 C 
ATOM      5  C   UNL     1       3.016   8.172  17.960  0.00  0.00    +0.000 C 
ATOM      6  N   UNL     1       2.483   7.141  18.861  0.00  0.00    +0.000 N 
ATOM      7  C   UNL     1       2.831   5.808  18.635  0.00  0.00    +0.000 C 
ATOM      8  O   UNL     1       3.603   5.496  17.726  0.00  0.00    +0.000 OA
ATOM      9  C   UNL     1       1.860   7.676  20.083  0.00  0.00    +0.000 C 
ATOM     10  C   UNL     1       0.765   8.688  19.727  0.00  0.00    +0.000 C 
ENDROOT
BRANCH   7  11
ATOM     11  C   UNL     1       2.269   4.761  19.504  0.00  0.00    +0.000 A 
ATOM     12  C   UNL     1       2.843   4.419  20.719  0.00  0.00    +0.000 A 
ATOM     13  S   UNL     1       1.950   3.174  21.484  0.00  0.00    +0.000 S 
ATOM     14  C   UNL     1       0.898   3.130  20.135  0.00  0.00    +0.000 A 
ATOM     15  N   UNL     1       1.162   3.976  19.164  0.00  0.00    +0.000 NA
ENDBRANCH   7  11
BRANCH   1  17
ATOM     16  O   UNL     1       1.234  11.356  21.409  0.00  0.00    +0.000 OA
ATOM     17  C   UNL     1       0.585  11.541  20.377  0.00  0.00    +0.000 C 
BRANCH  17  18
ATOM     18  C   UNL     1      -0.758  12.119  20.397  0.00  0.00    +0.000 A 
ATOM     19  C   UNL     1      -1.322  12.747  19.296  0.00  0.00    +0.000 A 
ATOM     20  N   UNL     1      -2.575  13.177  19.625  0.00  0.00    +0.000 N 
ATOM     21  C   UNL     1      -2.846  12.867  20.938  0.00  0.00    +0.000 A 
ATOM     22  C   UNL     1      -3.993  13.130  21.700  0.00  0.00    +0.000 A 
ATOM     23  C   UNL     1      -4.012  12.709  23.033  0.00  0.00    +0.000 A 
ATOM     24  C   UNL     1      -2.919  12.052  23.581  0.00  0.00    +0.000 A 
ATOM     25  C   UNL     1      -1.787  11.802  22.807  0.00  0.00    +0.000 A 
ATOM     26  F   UNL     1      -0.756  11.187  23.395  0.00  0.00    +0.000 F 
ATOM     27  C   UNL     1      -1.726  12.202  21.454  0.00  0.00    +0.000 A 
ATOM     28  H   UNL     1      -3.212  13.658  19.004  0.00  0.00    +0.000 HD
ENDBRANCH  17  18
ENDBRANCH   1  17
TORSDOF 3
ENDMDL
MODEL 2
REMARK VINA RESULT:      -7.5      2.818      3.714
REMARK  Name = 
REMARK  3 active torsions:
REMARK  status: ('A' for Active; 'I' for Inactive)
REMARK    1  A    between atoms: C_2  and  C_3
REMARK    2  A    between atoms: C_2  and  C_18
REMARK    3  A    between atoms: C_9  and  C_11
REMARK                            x       y       z     vdW  Elec       q    Type
REMARK                         _______ _______ _______ _____ _____    ______ ____
ROOT
ATOM      1  C   UNL     1      -0.001  10.110  20.087  0.00  0.00    +0.000 C 
ATOM      2  O   UNL     1      -0.666  10.187  21.115  0.00  0.00    +0.000 OA
ATOM      3  N   UNL     1       1.087   9.265  19.904  0.00  0.00    +0.000 N 
ATOM      4  C   UNL     1       1.517   8.384  20.990  0.00  0.00    +0.000 C 
ATOM      5  C   UNL     1       1.622   6.929  20.509  0.00  0.00    +0.000 C 
ATOM      6  N   UNL     1       2.406   6.831  19.269  0.00  0.00    +0.000 N 
ATOM      7  C   UNL     1       3.308   5.776  19.128  0.00  0.00    +0.000 C 
ATOM      8  O   UNL     1       3.422   4.914  20.000  0.00  0.00    +0.000 OA
ATOM      9  C   UNL     1       1.936   7.717  18.192  0.00  0.00    +0.000 C 
ATOM     10  C   UNL     1       1.885   9.171  18.676  0.00  0.00    +0.000 C 
ENDROOT
BRANCH   7  11
ATOM     11  C   UNL     1       4.131   5.692  17.909  0.00  0.00    +0.000 A 
ATOM     12  C   UNL     1       4.265   4.517  17.185  0.00  0.00    +0.000 A 
ATOM     13  S   UNL     1       5.282   4.753  15.828  0.00  0.00    +0.000 S 
ATOM     14  C   UNL     1       5.524   6.375  16.318  0.00  0.00    +0.000 A 
ATOM     15  N   UNL     1       4.899   6.750  17.412  0.00  0.00    +0.000 NA
ENDBRANCH   7  11
BRANCH   1  17
ATOM     16  O   UNL     1       0.371  11.871  18.581  0.00  0.00    +0.000 OA
ATOM     17  C   UNL     1      -0.414  10.977  18.905  0.00  0.00    +0.000 C 
BRANCH  17  18
ATOM     18  C   UNL     1      -1.692  10.782  18.222  0.00  0.00    +0.000 A 
ATOM     19  C   UNL     1      -1.825   9.993  17.089  0.00  0.00    +0.000 A 
ATOM     20  N   UNL     1      -3.131  10.008  16.690  0.00  0.00    +0.000 N 
ATOM     21  C   UNL     1      -3.866  10.816  17.527  0.00  0.00    +0.000 A 
ATOM     22  C   UNL     1      -5.230  11.137  17.487  0.00  0.00    +0.000 A 
ATOM     23  C   UNL     1      -5.734  12.000  18.465  0.00  0.00    +0.000 A 
ATOM     24  C   UNL     1      -4.900  12.523  19.443  0.00  0.00    +0.000 A 
ATOM     25  C   UNL     1      -3.545  12.192  19.464  0.00  0.00    +0.000 A 
ATOM     26  F   UNL     1      -2.786  12.745  20.415  0.00  0.00    +0.000 F 
ATOM     27  C   UNL     1      -2.994  11.319  18.500  0.00  0.00    +0.000 A 
ATOM     28  H   UNL     1      -3.507   9.508  15.896  0.00  0.00    +0.000 HD
ENDBRANCH  17  18
ENDBRANCH   1  17
TORSDOF 3
ENDMDL
MODEL 3
REMARK VINA RESULT:      -7.5      2.980      4.401
REMARK  Name = 
REMARK  3 active torsions:
REMARK  status: ('A' for Active; 'I' for Inactive)
REMARK    1  A    between atoms: C_2  and  C_3
REMARK    2  A    between atoms: C_2  and  C_18
REMARK    3  A    between atoms: C_9  and  C_11
REMARK                            x       y       z     vdW  Elec       q    Type
REMARK                         _______ _______ _______ _____ _____    ______ ____
ROOT
ATOM      1  C   UNL     1       0.150   9.685  19.956  0.00  0.00    +0.000 C 
ATOM      2  O   UNL     1      -0.567   9.715  20.951  0.00  0.00    +0.000 OA
ATOM      3  N   UNL     1       1.269   8.877  19.805  0.00  0.00    +0.000 N 
ATOM      4  C   UNL     1       1.671   7.978  20.888  0.00  0.00    +0.000 C 
ATOM      5  C   UNL     1       1.842   6.540  20.375  0.00  0.00    +0.000 C 
ATOM      6  N   UNL     1       2.689   6.499  19.173  0.00  0.00    +0.000 N 
ATOM      7  C   UNL     1       3.627   5.473  19.049  0.00  0.00    +0.000 C 
ATOM      8  O   UNL     1       3.723   4.591  19.903  0.00  0.00    +0.000 OA
ATOM      9  C   UNL     1       2.246   7.401  18.097  0.00  0.00    +0.000 C 
ATOM     10  C   UNL     1       2.130   8.839  18.617  0.00  0.00    +0.000 C 
ENDROOT
BRANCH   7  11
ATOM     11  C   UNL     1       4.511   5.447  17.872  0.00  0.00    +0.000 A 
ATOM     12  C   UNL     1       4.360   4.518  16.853  0.00  0.00    +0.000 A 
ATOM     13  S   UNL     1       5.540   4.756  15.634  0.00  0.00    +0.000 S 
ATOM     14  C   UNL     1       6.206   6.033  16.559  0.00  0.00    +0.000 A 
ATOM     15  N   UNL     1       5.611   6.294  17.702  0.00  0.00    +0.000 NA
ENDBRANCH   7  11
BRANCH   1  17
ATOM     16  O   UNL     1      -0.491   9.997  17.720  0.00  0.00    +0.000 OA
ATOM     17  C   UNL     1      -0.229  10.573  18.778  0.00  0.00    +0.000 C 
BRANCH  17  18
ATOM     18  C   UNL     1      -0.238  12.031  18.890  0.00  0.00    +0.000 A 
ATOM     19  C   UNL     1      -1.375  12.751  19.224  0.00  0.00    +0.000 A 
ATOM     20  N   UNL     1      -1.066  14.081  19.250  0.00  0.00    +0.000 N 
ATOM     21  C   UNL     1       0.256  14.260  18.914  0.00  0.00    +0.000 A 
ATOM     22  C   UNL     1       0.995  15.445  18.797  0.00  0.00    +0.000 A 
ATOM     23  C   UNL     1       2.341  15.351  18.430  0.00  0.00    +0.000 A 
ATOM     24  C   UNL     1       2.921  14.113  18.185  0.00  0.00    +0.000 A 
ATOM     25  C   UNL     1       2.167  12.946  18.306  0.00  0.00    +0.000 A 
ATOM     26  F   UNL     1       2.773  11.785  18.035  0.00  0.00    +0.000 F 
ATOM     27  C   UNL     1       0.807  12.993  18.682  0.00  0.00    +0.000 A 
ATOM     28  H   UNL     1      -1.709  14.828  19.475  0.00  0.00    +0.000 HD
ENDBRANCH  17  18
ENDBRANCH   1  17
TORSDOF 3
ENDMDL
MODEL 4
REMARK VINA RESULT:      -7.5      3.936      8.698
REMARK  Name = 
REMARK  3 active torsions:
REMARK  status: ('A' for Active; 'I' for Inactive)
REMARK    1  A    between atoms: C_2  and  C_3
REMARK    2  A    between atoms: C_2  and  C_18
REMARK    3  A    between atoms: C_9  and  C_11
REMARK                            x       y       z     vdW  Elec       q    Type
REMARK                         _______ _______ _______ _____ _____    ______ ____
ROOT
ATOM      1  C   UNL     1       3.085   4.245  18.765  0.00  0.00    +0.000 C 
ATOM      2  O   UNL     1       3.338   3.280  19.479  0.00  0.00    +0.000 OA
ATOM      3  N   UNL     1       2.241   5.293  19.114  0.00  0.00    +0.000 N 
ATOM      4  C   UNL     1       1.575   5.289  20.416  0.00  0.00    +0.000 C 
ATOM      5  C   UNL     1       1.824   6.608  21.164  0.00  0.00    +0.000 C 
ATOM      6  N   UNL     1       1.535   7.770  20.310  0.00  0.00    +0.000 N 
ATOM      7  C   UNL     1       0.877   8.866  20.869  0.00  0.00    +0.000 C 
ATOM      8  O   UNL     1       0.575   8.887  22.063  0.00  0.00    +0.000 OA
ATOM      9  C   UNL     1       2.236   7.750  19.016  0.00  0.00    +0.000 C 
ATOM     10  C   UNL     1       1.936   6.449  18.263  0.00  0.00    +0.000 C 
ENDROOT
BRANCH   7  11
ATOM     11  C   UNL     1       0.543  10.016  20.013  0.00  0.00    +0.000 A 
ATOM     12  C   UNL     1       1.240  11.214  20.077  0.00  0.00    +0.000 A 
ATOM     13  S   UNL     1       0.609  12.344  18.955  0.00  0.00    +0.000 S 
ATOM     14  C   UNL     1      -0.578  11.198  18.500  0.00  0.00    +0.000 A 
ATOM     15  N   UNL     1      -0.533  10.039  19.119  0.00  0.00    +0.000 NA
ENDBRANCH   7  11
BRANCH   1  17
ATOM     16  O   UNL     1       3.461   3.462  16.586  0.00  0.00    +0.000 OA
ATOM     17  C   UNL     1       3.770   4.327  17.408  0.00  0.00    +0.000 C 
BRANCH  17  18
ATOM     18  C   UNL     1       4.771   5.353  17.117  0.00  0.00    +0.000 A 
ATOM     19  C   UNL     1       4.738   6.129  15.968  0.00  0.00    +0.000 A 
ATOM     20  N   UNL     1       5.797   6.990  15.984  0.00  0.00    +0.000 N 
ATOM     21  C   UNL     1       6.550   6.783  17.117  0.00  0.00    +0.000 A 
ATOM     22  C   UNL     1       7.727   7.421  17.536  0.00  0.00    +0.000 A 
ATOM     23  C   UNL     1       8.306   7.012  18.741  0.00  0.00    +0.000 A 
ATOM     24  C   UNL     1       7.728   5.998  19.494  0.00  0.00    +0.000 A 
ATOM     25  C   UNL     1       6.559   5.376  19.058  0.00  0.00    +0.000 A 
ATOM     26  F   UNL     1       6.061   4.391  19.812  0.00  0.00    +0.000 F 
ATOM     27  C   UNL     1       5.935   5.761  17.851  0.00  0.00    +0.000 A 
ATOM     28  H   UNL     1       6.007   7.676  15.271  0.00  0.00    +0.000 HD
ENDBRANCH  17  18
ENDBRANCH   1  17
TORSDOF 3
ENDMDL
MODEL 5
REMARK VINA RESULT:      -7.3      3.090      4.086
REMARK  Name = 
REMARK  3 active torsions:
REMARK  status: ('A' for Active; 'I' for Inactive)
REMARK    1  A    between atoms: C_2  and  C_3
REMARK    2  A    between atoms: C_2  and  C_18
REMARK    3  A    between atoms: C_9  and  C_11
REMARK                            x       y       z     vdW  Elec       q    Type
REMARK                         _______ _______ _______ _____ _____    ______ ____
ROOT
ATOM      1  C   UNL     1       0.507   9.482  19.834  0.00  0.00    +0.000 C 
ATOM      2  O   UNL     1      -0.280   9.653  20.758  0.00  0.00    +0.000 OA
ATOM      3  N   UNL     1       1.506   8.517  19.807  0.00  0.00    +0.000 N 
ATOM      4  C   UNL     1       1.678   7.614  20.946  0.00  0.00    +0.000 C 
ATOM      5  C   UNL     1       1.682   6.147  20.488  0.00  0.00    +0.000 C 
ATOM      6  N   UNL     1       2.614   5.939  19.370  0.00  0.00    +0.000 N 
ATOM      7  C   UNL     1       3.401   4.786  19.359  0.00  0.00    +0.000 C 
ATOM      8  O   UNL     1       3.293   3.933  20.241  0.00  0.00    +0.000 OA
ATOM      9  C   UNL     1       2.402   6.852  18.235  0.00  0.00    +0.000 C 
ATOM     10  C   UNL     1       2.451   8.310  18.703  0.00  0.00    +0.000 C 
ENDROOT
BRANCH   7  11
ATOM     11  C   UNL     1       4.370   4.588  18.268  0.00  0.00    +0.000 A 
ATOM     12  C   UNL     1       5.664   5.083  18.328  0.00  0.00    +0.000 A 
ATOM     13  S   UNL     1       6.535   4.681  16.909  0.00  0.00    +0.000 S 
ATOM     14  C   UNL     1       5.128   3.930  16.285  0.00  0.00    +0.000 A 
ATOM     15  N   UNL     1       4.066   3.954  17.058  0.00  0.00    +0.000 NA
ENDBRANCH   7  11
BRANCH   1  17
ATOM     16  O   UNL     1      -0.352   9.935  17.698  0.00  0.00    +0.000 OA
ATOM     17  C   UNL     1       0.364  10.368  18.603  0.00  0.00    +0.000 C 
BRANCH  17  18
ATOM     18  C   UNL     1       1.075  11.640  18.490  0.00  0.00    +0.000 A 
ATOM     19  C   UNL     1       2.379  11.734  18.023  0.00  0.00    +0.000 A 
ATOM     20  N   UNL     1       2.760  13.044  18.033  0.00  0.00    +0.000 N 
ATOM     21  C   UNL     1       1.738  13.825  18.522  0.00  0.00    +0.000 A 
ATOM     22  C   UNL     1       1.692  15.211  18.725  0.00  0.00    +0.000 A 
ATOM     23  C   UNL     1       0.519  15.763  19.249  0.00  0.00    +0.000 A 
ATOM     24  C   UNL     1      -0.565  14.953  19.561  0.00  0.00    +0.000 A 
ATOM     25  C   UNL     1      -0.497  13.576  19.354  0.00  0.00    +0.000 A 
ATOM     26  F   UNL     1      -1.562  12.844  19.695  0.00  0.00    +0.000 F 
ATOM     27  C   UNL     1       0.664  12.976  18.820  0.00  0.00    +0.000 A 
ATOM     28  H   UNL     1       3.660  13.395  17.734  0.00  0.00    +0.000 HD
ENDBRANCH  17  18
ENDBRANCH   1  17
TORSDOF 3
ENDMDL
MODEL 6
REMARK VINA RESULT:      -7.3      3.034      4.191
REMARK  Name = 
REMARK  3 active torsions:
REMARK  status: ('A' for Active; 'I' for Inactive)
REMARK    1  A    between atoms: C_2  and  C_3
REMARK    2  A    between atoms: C_2  and  C_18
REMARK    3  A    between atoms: C_9  and  C_11
REMARK                            x       y       z     vdW  Elec       q    Type
REMARK                         _______ _______ _______ _____ _____    ______ ____
ROOT
ATOM      1  C   UNL     1       0.306   9.707  20.476  0.00  0.00    +0.000 C 
ATOM      2  O   UNL     1      -0.446   9.650  21.442  0.00  0.00    +0.000 OA
ATOM      3  N   UNL     1       1.320   8.797  20.201  0.00  0.00    +0.000 N 
ATOM      4  C   UNL     1       1.554   7.671  21.106  0.00  0.00    +0.000 C 
ATOM      5  C   UNL     1       1.565   6.341  20.337  0.00  0.00    +0.000 C 
ATOM      6  N   UNL     1       2.455   6.407  19.168  0.00  0.00    +0.000 N 
ATOM      7  C   UNL     1       3.260   5.306  18.875  0.00  0.00    +0.000 C 
ATOM      8  O   UNL     1       3.204   4.277  19.552  0.00  0.00    +0.000 OA
ATOM      9  C   UNL     1       2.181   7.541  18.270  0.00  0.00    +0.000 C 
ATOM     10  C   UNL     1       2.223   8.862  19.046  0.00  0.00    +0.000 C 
ENDROOT
BRANCH   7  11
ATOM     11  C   UNL     1       4.187   5.377  17.734  0.00  0.00    +0.000 A 
ATOM     12  C   UNL     1       4.285   4.361  16.795  0.00  0.00    +0.000 A 
ATOM     13  S   UNL     1       5.447   4.749  15.598  0.00  0.00    +0.000 S 
ATOM     14  C   UNL     1       5.785   6.206  16.430  0.00  0.00    +0.000 A 
ATOM     15  N   UNL     1       5.093   6.423  17.527  0.00  0.00    +0.000 NA
ENDBRANCH   7  11
BRANCH   1  17
ATOM     16  O   UNL     1       1.116  11.392  19.059  0.00  0.00    +0.000 OA
ATOM     17  C   UNL     1       0.098  10.837  19.476  0.00  0.00    +0.000 C 
BRANCH  17  18
ATOM     18  C   UNL     1      -1.240  11.263  19.071  0.00  0.00    +0.000 A 
ATOM     19  C   UNL     1      -1.986  12.184  19.792  0.00  0.00    +0.000 A 
ATOM     20  N   UNL     1      -3.183  12.374  19.163  0.00  0.00    +0.000 N 
ATOM     21  C   UNL     1      -3.256  11.576  18.046  0.00  0.00    +0.000 A 
ATOM     22  C   UNL     1      -4.297  11.432  17.117  0.00  0.00    +0.000 A 
ATOM     23  C   UNL     1      -4.120  10.534  16.060  0.00  0.00    +0.000 A 
ATOM     24  C   UNL     1      -2.943   9.806  15.942  0.00  0.00    +0.000 A 
ATOM     25  C   UNL     1      -1.921   9.963  16.877  0.00  0.00    +0.000 A 
ATOM     26  F   UNL     1      -0.822   9.218  16.725  0.00  0.00    +0.000 F 
ATOM     27  C   UNL     1      -2.054  10.863  17.957  0.00  0.00    +0.000 A 
ATOM     28  H   UNL     1      -3.913  13.002  19.471  0.00  0.00    +0.000 HD
ENDBRANCH  17  18
ENDBRANCH   1  17
TORSDOF 3
ENDMDL
MODEL 7
REMARK VINA RESULT:      -7.1      1.453      1.985
REMARK  Name = 
REMARK  3 active torsions:
REMARK  status: ('A' for Active; 'I' for Inactive)
REMARK    1  A    between atoms: C_2  and  C_3
REMARK    2  A    between atoms: C_2  and  C_18
REMARK    3  A    between atoms: C_9  and  C_11
REMARK                            x       y       z     vdW  Elec       q    Type
REMARK                         _______ _______ _______ _____ _____    ______ ____
ROOT
ATOM      1  C   UNL     1       1.120  11.023  19.310  0.00  0.00    +0.000 C 
ATOM      2  O   UNL     1       1.459  11.914  18.539  0.00  0.00    +0.000 OA
ATOM      3  N   UNL     1       1.194   9.663  19.036  0.00  0.00    +0.000 N 
ATOM      4  C   UNL     1       1.703   9.206  17.743  0.00  0.00    +0.000 C 
ATOM      5  C   UNL     1       2.830   8.177  17.927  0.00  0.00    +0.000 C 
ATOM      6  N   UNL     1       2.434   7.113  18.861  0.00  0.00    +0.000 N 
ATOM      7  C   UNL     1       2.789   5.796  18.566  0.00  0.00    +0.000 C 
ATOM      8  O   UNL     1       3.456   5.525  17.567  0.00  0.00    +0.000 OA
ATOM      9  C   UNL     1       1.944   7.607  20.159  0.00  0.00    +0.000 C 
ATOM     10  C   UNL     1       0.788   8.593  19.956  0.00  0.00    +0.000 C 
ENDROOT
BRANCH   7  11
ATOM     11  C   UNL     1       2.360   4.717  19.471  0.00  0.00    +0.000 A 
ATOM     12  C   UNL     1       3.221   4.133  20.389  0.00  0.00    +0.000 A 
ATOM     13  S   UNL     1       2.418   2.917  21.288  0.00  0.00    +0.000 S 
ATOM     14  C   UNL     1       1.003   3.202  20.367  0.00  0.00    +0.000 A 
ATOM     15  N   UNL     1       1.087   4.137  19.448  0.00  0.00    +0.000 NA
ENDBRANCH   7  11
BRANCH   1  17
ATOM     16  O   UNL     1       1.347  11.170  21.641  0.00  0.00    +0.000 OA
ATOM     17  C   UNL     1       0.610  11.427  20.687  0.00  0.00    +0.000 C 
BRANCH  17  18
ATOM     18  C   UNL     1      -0.703  12.046  20.865  0.00  0.00    +0.000 A 
ATOM     19  C   UNL     1      -1.008  12.861  21.946  0.00  0.00    +0.000 A 
ATOM     20  N   UNL     1      -2.301  13.284  21.830  0.00  0.00    +0.000 N 
ATOM     21  C   UNL     1      -2.870  12.744  20.700  0.00  0.00    +0.000 A 
ATOM     22  C   UNL     1      -4.172  12.889  20.198  0.00  0.00    +0.000 A 
ATOM     23  C   UNL     1      -4.503  12.218  19.017  0.00  0.00    +0.000 A 
ATOM     24  C   UNL     1      -3.565  11.428  18.367  0.00  0.00    +0.000 A 
ATOM     25  C   UNL     1      -2.276  11.295  18.884  0.00  0.00    +0.000 A 
ATOM     26  F   UNL     1      -1.423  10.502  18.228  0.00  0.00    +0.000 F 
ATOM     27  C   UNL     1      -1.895  11.960  20.070  0.00  0.00    +0.000 A 
ATOM     28  H   UNL     1      -2.777  13.897  22.477  0.00  0.00    +0.000 HD
ENDBRANCH  17  18
ENDBRANCH   1  17
TORSDOF 3
ENDMDL
MODEL 8
REMARK VINA RESULT:      -7.0      3.758      8.741
REMARK  Name = 
REMARK  3 active torsions:
REMARK  status: ('A' for Active; 'I' for Inactive)
REMARK    1  A    between atoms: C_2  and  C_3
REMARK    2  A    between atoms: C_2  and  C_18
REMARK    3  A    between atoms: C_9  and  C_11
REMARK                            x       y       z     vdW  Elec       q    Type
REMARK                         _______ _______ _______ _____ _____    ______ ____
ROOT
ATOM      1  C   UNL     1       0.353  12.333  21.076  0.00  0.00    +0.000 C 
ATOM      2  O   UNL     1       1.434  12.905  21.163  0.00  0.00    +0.000 OA
ATOM      3  N   UNL     1      -0.786  12.668  21.799  0.00  0.00    +0.000 N 
ATOM      4  C   UNL     1      -0.743  13.775  22.755  0.00  0.00    +0.000 C 
ATOM      5  C   UNL     1      -1.877  14.777  22.487  0.00  0.00    +0.000 C 
ATOM      6  N   UNL     1      -3.174  14.096  22.367  0.00  0.00    +0.000 N 
ATOM      7  C   UNL     1      -4.295  14.681  22.957  0.00  0.00    +0.000 C 
ATOM      8  O   UNL     1      -4.219  15.767  23.533  0.00  0.00    +0.000 OA
ATOM      9  C   UNL     1      -3.187  13.000  21.385  0.00  0.00    +0.000 C 
ATOM     10  C   UNL     1      -2.081  11.985  21.698  0.00  0.00    +0.000 C 
ENDROOT
BRANCH   7  11
ATOM     11  C   UNL     1      -5.591  13.986  22.882  0.00  0.00    +0.000 A 
ATOM     12  C   UNL     1      -5.966  13.017  23.801  0.00  0.00    +0.000 A 
ATOM     13  S   UNL     1      -7.526  12.408  23.439  0.00  0.00    +0.000 S 
ATOM     14  C   UNL     1      -7.578  13.423  22.062  0.00  0.00    +0.000 A 
ATOM     15  N   UNL     1      -6.524  14.181  21.858  0.00  0.00    +0.000 NA
ENDBRANCH   7  11
BRANCH   1  17
ATOM     16  O   UNL     1      -0.361  11.445  19.025  0.00  0.00    +0.000 OA
ATOM     17  C   UNL     1       0.229  11.191  20.077  0.00  0.00    +0.000 C 
BRANCH  17  18
ATOM     18  C   UNL     1       0.747   9.856  20.373  0.00  0.00    +0.000 A 
ATOM     19  C   UNL     1       0.619   9.260  21.619  0.00  0.00    +0.000 A 
ATOM     20  N   UNL     1       1.197   8.024  21.580  0.00  0.00    +0.000 N 
ATOM     21  C   UNL     1       1.731   7.796  20.333  0.00  0.00    +0.000 A 
ATOM     22  C   UNL     1       2.428   6.680  19.849  0.00  0.00    +0.000 A 
ATOM     23  C   UNL     1       2.877   6.704  18.525  0.00  0.00    +0.000 A 
ATOM     24  C   UNL     1       2.639   7.809  17.719  0.00  0.00    +0.000 A 
ATOM     25  C   UNL     1       1.946   8.910  18.220  0.00  0.00    +0.000 A 
ATOM     26  F   UNL     1       1.768   9.955  17.405  0.00  0.00    +0.000 F 
ATOM     27  C   UNL     1       1.467   8.927  19.549  0.00  0.00    +0.000 A 
ATOM     28  H   UNL     1       1.237   7.371  22.351  0.00  0.00    +0.000 HD
ENDBRANCH  17  18
ENDBRANCH   1  17
TORSDOF 3
ENDMDL
MODEL 9
REMARK VINA RESULT:      -6.9      4.366      8.668
REMARK  Name = 
REMARK  3 active torsions:
REMARK  status: ('A' for Active; 'I' for Inactive)
REMARK    1  A    between atoms: C_2  and  C_3
REMARK    2  A    between atoms: C_2  and  C_18
REMARK    3  A    between atoms: C_9  and  C_11
REMARK                            x       y       z     vdW  Elec       q    Type
REMARK                         _______ _______ _______ _____ _____    ______ ____
ROOT
ATOM      1  C   UNL     1      -1.851  11.547  18.517  0.00  0.00    +0.000 C 
ATOM      2  O   UNL     1      -1.722  10.935  17.462  0.00  0.00    +0.000 OA
ATOM      3  N   UNL     1      -3.037  12.111  18.971  0.00  0.00    +0.000 N 
ATOM      4  C   UNL     1      -4.253  12.000  18.164  0.00  0.00    +0.000 C 
ATOM      5  C   UNL     1      -5.413  11.430  18.995  0.00  0.00    +0.000 C 
ATOM      6  N   UNL     1      -5.564  12.150  20.267  0.00  0.00    +0.000 N 
ATOM      7  C   UNL     1      -6.849  12.448  20.721  0.00  0.00    +0.000 C 
ATOM      8  O   UNL     1      -7.846  12.082  20.097  0.00  0.00    +0.000 OA
ATOM      9  C   UNL     1      -4.327  12.228  21.062  0.00  0.00    +0.000 C 
ATOM     10  C   UNL     1      -3.195  12.844  20.233  0.00  0.00    +0.000 C 
ENDROOT
BRANCH   7  11
ATOM     11  C   UNL     1      -7.012  13.207  21.972  0.00  0.00    +0.000 A 
ATOM     12  C   UNL     1      -6.856  14.584  22.028  0.00  0.00    +0.000 A 
ATOM     13  S   UNL     1      -7.113  15.161  23.620  0.00  0.00    +0.000 S 
ATOM     14  C   UNL     1      -7.357  13.549  24.141  0.00  0.00    +0.000 A 
ATOM     15  N   UNL     1      -7.266  12.619  23.216  0.00  0.00    +0.000 NA
ENDBRANCH   7  11
BRANCH   1  17
ATOM     16  O   UNL     1      -0.085  12.778  19.452  0.00  0.00    +0.000 OA
ATOM     17  C   UNL     1      -0.632  11.673  19.421  0.00  0.00    +0.000 C 
BRANCH  17  18
ATOM     18  C   UNL     1      -0.117  10.532  20.175  0.00  0.00    +0.000 A 
ATOM     19  C   UNL     1      -0.410  10.323  21.515  0.00  0.00    +0.000 A 
ATOM     20  N   UNL     1       0.211   9.181  21.932  0.00  0.00    +0.000 N 
ATOM     21  C   UNL     1       0.935   8.638  20.896  0.00  0.00    +0.000 A 
ATOM     22  C   UNL     1       1.737   7.488  20.873  0.00  0.00    +0.000 A 
ATOM     23  C   UNL     1       2.380   7.155  19.677  0.00  0.00    +0.000 A 
ATOM     24  C   UNL     1       2.226   7.949  18.548  0.00  0.00    +0.000 A 
ATOM     25  C   UNL     1       1.426   9.090  18.593  0.00  0.00    +0.000 A 
ATOM     26  F   UNL     1       1.336   9.829  17.482  0.00  0.00    +0.000 F 
ATOM     27  C   UNL     1       0.752   9.461  19.777  0.00  0.00    +0.000 A 
ATOM     28  H   UNL     1       0.158   8.791  22.863  0.00  0.00    +0.000 HD
ENDBRANCH  17  18
ENDBRANCH   1  17
TORSDOF 3
ENDMDL
