MODEL 1
REMARK VINA RESULT:      -7.4      0.000      0.000
REMARK  Name = 
REMARK  8 active torsions:
REMARK  status: ('A' for Active; 'I' for Inactive)
REMARK    1  A    between atoms: C_2  and  C_3
REMARK    2  A    between atoms: C_3  and  C_4
REMARK    3  A    between atoms: C_4  and  N_5
REMARK    4  A    between atoms: N_5  and  C_6
REMARK    5  A    between atoms: N_5  and  S_12
REMARK    6  A    between atoms: C_6  and  C_7
REMARK    7  A    between atoms: S_12  and  C_15
REMARK    8  A    between atoms: C_18  and  C_19
REMARK                            x       y       z     vdW  Elec       q    Type
REMARK                         _______ _______ _______ _____ _____    ______ ____
ROOT
ATOM      1  S   UNL     1       6.530   5.365  18.029  0.00  0.00    +0.000 S 
ATOM      2  O   UNL     1       6.823   6.783  18.008  0.00  0.00    +0.000 OA
ATOM      3  O   UNL     1       7.447   4.416  18.620  0.00  0.00    +0.000 OA
ENDROOT
BRANCH   1   4
ATOM      4  C   UNL     1       6.293   4.889  16.325  0.00  0.00    +0.000 A 
ATOM      5  C   UNL     1       7.170   5.389  15.354  0.00  0.00    +0.000 A 
ATOM      6  C   UNL     1       7.095   4.922  14.042  0.00  0.00    +0.000 A 
ATOM      7  C   UNL     1       6.146   3.952  13.685  0.00  0.00    +0.000 A 
ATOM      8  C   UNL     1       5.277   3.454  14.671  0.00  0.00    +0.000 A 
ATOM      9  C   UNL     1       5.359   3.906  15.992  0.00  0.00    +0.000 A 
BRANCH   7  10
ATOM     10  C   UNL     1       6.065   3.428  12.269  0.00  0.00    +0.000 C 
ATOM     11  F   UNL     1       6.175   2.074  12.182  0.00  0.00    +0.000 F 
ATOM     12  F   UNL     1       4.890   3.747  11.662  0.00  0.00    +0.000 F 
ATOM     13  F   UNL     1       7.048   3.934  11.475  0.00  0.00    +0.000 F 
ENDBRANCH   7  10
ENDBRANCH   1   4
BRANCH   1  14
ATOM     14  N   UNL     1       4.979   5.135  18.737  0.00  0.00    +0.000 NA
BRANCH  14  15
ATOM     15  C   UNL     1       3.860   5.851  18.034  0.00  0.00    +0.000 C 
BRANCH  15  16
ATOM     16  C   UNL     1       3.053   6.793  18.932  0.00  0.00    +0.000 C 
BRANCH  16  18
ATOM     17  N   UNL     1       2.165   8.964  17.438  0.00  0.00    +0.000 NA
ATOM     18  C   UNL     1       2.567   7.980  18.116  0.00  0.00    +0.000 C 
ENDBRANCH  16  18
ENDBRANCH  15  16
ENDBRANCH  14  15
BRANCH  14  19
ATOM     19  C   UNL     1       4.708   3.720  19.129  0.00  0.00    +0.000 C 
BRANCH  19  20
ATOM     20  C   UNL     1       3.245   3.390  19.232  0.00  0.00    +0.000 A 
ATOM     21  C   UNL     1       2.414   2.873  18.255  0.00  0.00    +0.000 A 
ATOM     22  C   UNL     1       1.088   2.652  18.721  0.00  0.00    +0.000 A 
ATOM     23  C   UNL     1       0.946   2.991  20.046  0.00  0.00    +0.000 A 
ATOM     24  S   UNL     1       2.408   3.560  20.721  0.00  0.00    +0.000 S 
ENDBRANCH  19  20
ENDBRANCH  14  19
ENDBRANCH   1  14
TORSDOF 8
ENDMDL
MODEL 2
REMARK VINA RESULT:      -7.2      4.052      5.974
REMARK  Name = 
REMARK  8 active torsions:
REMARK  status: ('A' for Active; 'I' for Inactive)
REMARK    1  A    between atoms: C_2  and  C_3
REMARK    2  A    between atoms: C_3  and  C_4
REMARK    3  A    between atoms: C_4  and  N_5
REMARK    4  A    between atoms: N_5  and  C_6
REMARK    5  A    between atoms: N_5  and  S_12
REMARK    6  A    between atoms: C_6  and  C_7
REMARK    7  A    between atoms: S_12  and  C_15
REMARK    8  A    between atoms: C_18  and  C_19
REMARK                            x       y       z     vdW  Elec       q    Type
REMARK                         _______ _______ _______ _____ _____    ______ ____
ROOT
ATOM      1  S   UNL     1       5.334   5.312  18.448  0.00  0.00    +0.000 S 
ATOM      2  O   UNL     1       5.483   4.881  19.823  0.00  0.00    +0.000 OA
ATOM      3  O   UNL     1       6.421   5.943  17.734  0.00  0.00    +0.000 OA
ENDROOT
BRANCH   1   4
ATOM      4  C   UNL     1       3.957   6.449  18.440  0.00  0.00    +0.000 A 
ATOM      5  C   UNL     1       3.088   6.468  19.537  0.00  0.00    +0.000 A 
ATOM      6  C   UNL     1       2.092   7.442  19.619  0.00  0.00    +0.000 A 
ATOM      7  C   UNL     1       1.954   8.405  18.609  0.00  0.00    +0.000 A 
ATOM      8  C   UNL     1       2.838   8.378  17.516  0.00  0.00    +0.000 A 
ATOM      9  C   UNL     1       3.848   7.415  17.437  0.00  0.00    +0.000 A 
BRANCH   7  10
ATOM     10  C   UNL     1       0.888   9.474  18.694  0.00  0.00    +0.000 C 
ATOM     11  F   UNL     1       0.016   9.459  17.649  0.00  0.00    +0.000 F 
ATOM     12  F   UNL     1       0.128   9.362  19.817  0.00  0.00    +0.000 F 
ATOM     13  F   UNL     1       1.417  10.728  18.722  0.00  0.00    +0.000 F 
ENDBRANCH   7  10
ENDBRANCH   1   4
BRANCH   1  14
ATOM     14  N   UNL     1       4.770   3.981  17.513  0.00  0.00    +0.000 NA
BRANCH  14  15
ATOM     15  C   UNL     1       5.618   3.658  16.316  0.00  0.00    +0.000 C 
BRANCH  15  16
ATOM     16  C   UNL     1       5.309   4.506  15.079  0.00  0.00    +0.000 C 
BRANCH  16  18
ATOM     17  N   UNL     1       7.688   5.379  13.933  0.00  0.00    +0.000 NA
ATOM     18  C   UNL     1       6.609   4.983  14.452  0.00  0.00    +0.000 C 
ENDBRANCH  16  18
ENDBRANCH  15  16
ENDBRANCH  14  15
BRANCH  14  19
ATOM     19  C   UNL     1       4.330   2.818  18.339  0.00  0.00    +0.000 C 
BRANCH  19  20
ATOM     20  C   UNL     1       2.949   2.971  18.913  0.00  0.00    +0.000 A 
ATOM     21  C   UNL     1       1.763   3.193  18.238  0.00  0.00    +0.000 A 
ATOM     22  C   UNL     1       0.638   3.248  19.108  0.00  0.00    +0.000 A 
ATOM     23  C   UNL     1       0.994   3.050  20.422  0.00  0.00    +0.000 A 
ATOM     24  S   UNL     1       2.672   2.788  20.597  0.00  0.00    +0.000 S 
ENDBRANCH  19  20
ENDBRANCH  14  19
ENDBRANCH   1  14
TORSDOF 8
ENDMDL
MODEL 3
REMARK VINA RESULT:      -7.2      3.898      5.663
REMARK  Name = 
REMARK  8 active torsions:
REMARK  status: ('A' for Active; 'I' for Inactive)
REMARK    1  A    between atoms: C_2  and  C_3
REMARK    2  A    between atoms: C_3  and  C_4
REMARK    3  A    between atoms: C_4  and  N_5
REMARK    4  A    between atoms: N_5  and  C_6
REMARK    5  A    between atoms: N_5  and  S_12
REMARK    6  A    between atoms: C_6  and  C_7
REMARK    7  A    between atoms: S_12  and  C_15
REMARK    8  A    between atoms: C_18  and  C_19
REMARK                            x       y       z     vdW  Elec       q    Type
REMARK                         _______ _______ _______ _____ _____    ______ ____
ROOT
ATOM      1  S   UNL     1       5.544   4.691  18.237  0.00  0.00    +0.000 S 
ATOM      2  O   UNL     1       5.504   4.012  19.515  0.00  0.00    +0.000 OA
ATOM      3  O   UNL     1       6.781   5.214  17.700  0.00  0.00    +0.000 OA
ENDROOT
BRANCH   1   4
ATOM      4  C   UNL     1       4.402   6.057  18.374  0.00  0.00    +0.000 A 
ATOM      5  C   UNL     1       4.368   7.016  17.354  0.00  0.00    +0.000 A 
ATOM      6  C   UNL     1       3.390   8.011  17.367  0.00  0.00    +0.000 A 
ATOM      7  C   UNL     1       2.435   8.058  18.395  0.00  0.00    +0.000 A 
ATOM      8  C   UNL     1       2.477   7.084  19.408  0.00  0.00    +0.000 A 
ATOM      9  C   UNL     1       3.445   6.075  19.391  0.00  0.00    +0.000 A 
BRANCH   7  10
ATOM     10  C   UNL     1       1.362   9.122  18.410  0.00  0.00    +0.000 C 
ATOM     11  F   UNL     1       0.398   8.938  17.466  0.00  0.00    +0.000 F 
ATOM     12  F   UNL     1       0.710   9.185  19.603  0.00  0.00    +0.000 F 
ATOM     13  F   UNL     1       1.867  10.366  18.191  0.00  0.00    +0.000 F 
ENDBRANCH   7  10
ENDBRANCH   1   4
BRANCH   1  14
ATOM     14  N   UNL     1       4.824   3.674  17.051  0.00  0.00    +0.000 NA
BRANCH  14  15
ATOM     15  C   UNL     1       5.673   3.437  15.834  0.00  0.00    +0.000 C 
BRANCH  15  16
ATOM     16  C   UNL     1       5.450   4.447  14.705  0.00  0.00    +0.000 C 
BRANCH  16  18
ATOM     17  N   UNL     1       7.900   5.477  13.885  0.00  0.00    +0.000 NA
ATOM     18  C   UNL     1       6.789   5.010  14.256  0.00  0.00    +0.000 C 
ENDBRANCH  16  18
ENDBRANCH  15  16
ENDBRANCH  14  15
BRANCH  14  19
ATOM     19  C   UNL     1       4.152   2.471  17.627  0.00  0.00    +0.000 C 
BRANCH  19  20
ATOM     20  C   UNL     1       2.855   2.777  18.321  0.00  0.00    +0.000 A 
ATOM     21  C   UNL     1       1.700   3.310  17.780  0.00  0.00    +0.000 A 
ATOM     22  C   UNL     1       0.650   3.428  18.732  0.00  0.00    +0.000 A 
ATOM     23  C   UNL     1       1.026   2.966  19.971  0.00  0.00    +0.000 A 
ATOM     24  S   UNL     1       2.630   2.384  19.977  0.00  0.00    +0.000 S 
ENDBRANCH  19  20
ENDBRANCH  14  19
ENDBRANCH   1  14
TORSDOF 8
ENDMDL
MODEL 4
REMARK VINA RESULT:      -7.2      1.231      1.721
REMARK  Name = 
REMARK  8 active torsions:
REMARK  status: ('A' for Active; 'I' for Inactive)
REMARK    1  A    between atoms: C_2  and  C_3
REMARK    2  A    between atoms: C_3  and  C_4
REMARK    3  A    between atoms: C_4  and  N_5
REMARK    4  A    between atoms: N_5  and  C_6
REMARK    5  A    between atoms: N_5  and  S_12
REMARK    6  A    between atoms: C_6  and  C_7
REMARK    7  A    between atoms: S_12  and  C_15
REMARK    8  A    between atoms: C_18  and  C_19
REMARK                            x       y       z     vdW  Elec       q    Type
REMARK                         _______ _______ _______ _____ _____    ______ ____
ROOT
ATOM      1  S   UNL     1       5.854   5.188  18.230  0.00  0.00    +0.000 S 
ATOM      2  O   UNL     1       6.692   6.359  18.388  0.00  0.00    +0.000 OA
ATOM      3  O   UNL     1       6.007   4.031  19.082  0.00  0.00    +0.000 OA
ENDROOT
BRANCH   1   4
ATOM      4  C   UNL     1       6.086   4.646  16.544  0.00  0.00    +0.000 A 
ATOM      5  C   UNL     1       5.186   3.721  16.001  0.00  0.00    +0.000 A 
ATOM      6  C   UNL     1       5.260   3.391  14.648  0.00  0.00    +0.000 A 
ATOM      7  C   UNL     1       6.231   3.979  13.823  0.00  0.00    +0.000 A 
ATOM      8  C   UNL     1       7.123   4.912  14.381  0.00  0.00    +0.000 A 
ATOM      9  C   UNL     1       7.043   5.259  15.733  0.00  0.00    +0.000 A 
BRANCH   7  10
ATOM     10  C   UNL     1       6.311   3.640  12.352  0.00  0.00    +0.000 C 
ATOM     11  F   UNL     1       6.841   2.411  12.105  0.00  0.00    +0.000 F 
ATOM     12  F   UNL     1       5.092   3.650  11.749  0.00  0.00    +0.000 F 
ATOM     13  F   UNL     1       7.081   4.525  11.661  0.00  0.00    +0.000 F 
ENDBRANCH   7  10
ENDBRANCH   1   4
BRANCH   1  14
ATOM     14  N   UNL     1       4.206   5.682  18.276  0.00  0.00    +0.000 NA
BRANCH  14  15
ATOM     15  C   UNL     1       3.931   7.001  17.611  0.00  0.00    +0.000 C 
BRANCH  15  16
ATOM     16  C   UNL     1       2.484   7.484  17.744  0.00  0.00    +0.000 C 
BRANCH  16  18
ATOM     17  N   UNL     1       1.871   7.847  20.432  0.00  0.00    +0.000 NA
ATOM     18  C   UNL     1       2.148   7.682  19.213  0.00  0.00    +0.000 C 
ENDBRANCH  16  18
ENDBRANCH  15  16
ENDBRANCH  14  15
BRANCH  14  19
ATOM     19  C   UNL     1       3.246   4.580  17.970  0.00  0.00    +0.000 C 
BRANCH  19  20
ATOM     20  C   UNL     1       2.566   4.016  19.186  0.00  0.00    +0.000 A 
ATOM     21  C   UNL     1       2.824   4.291  20.516  0.00  0.00    +0.000 A 
ATOM     22  C   UNL     1       1.953   3.596  21.401  0.00  0.00    +0.000 A 
ATOM     23  C   UNL     1       1.041   2.822  20.722  0.00  0.00    +0.000 A 
ATOM     24  S   UNL     1       1.232   2.946  19.030  0.00  0.00    +0.000 S 
ENDBRANCH  19  20
ENDBRANCH  14  19
ENDBRANCH   1  14
TORSDOF 8
ENDMDL
MODEL 5
REMARK VINA RESULT:      -7.2      4.418      6.517
REMARK  Name = 
REMARK  8 active torsions:
REMARK  status: ('A' for Active; 'I' for Inactive)
REMARK    1  A    between atoms: C_2  and  C_3
REMARK    2  A    between atoms: C_3  and  C_4
REMARK    3  A    between atoms: C_4  and  N_5
REMARK    4  A    between atoms: N_5  and  C_6
REMARK    5  A    between atoms: N_5  and  S_12
REMARK    6  A    between atoms: C_6  and  C_7
REMARK    7  A    between atoms: S_12  and  C_15
REMARK    8  A    between atoms: C_18  and  C_19
REMARK                            x       y       z     vdW  Elec       q    Type
REMARK                         _______ _______ _______ _____ _____    ______ ____
ROOT
ATOM      1  S   UNL     1       5.195   6.000  17.769  0.00  0.00    +0.000 S 
ATOM      2  O   UNL     1       5.542   5.233  18.948  0.00  0.00    +0.000 OA
ATOM      3  O   UNL     1       6.137   6.912  17.160  0.00  0.00    +0.000 OA
ENDROOT
BRANCH   1   4
ATOM      4  C   UNL     1       3.745   6.945  18.210  0.00  0.00    +0.000 A 
ATOM      5  C   UNL     1       3.113   6.683  19.432  0.00  0.00    +0.000 A 
ATOM      6  C   UNL     1       2.068   7.501  19.863  0.00  0.00    +0.000 A 
ATOM      7  C   UNL     1       1.645   8.587  19.082  0.00  0.00    +0.000 A 
ATOM      8  C   UNL     1       2.294   8.842  17.862  0.00  0.00    +0.000 A 
ATOM      9  C   UNL     1       3.353   8.036  17.432  0.00  0.00    +0.000 A 
BRANCH   7  10
ATOM     10  C   UNL     1       0.524   9.489  19.547  0.00  0.00    +0.000 C 
ATOM     11  F   UNL     1      -0.232   8.950  20.542  0.00  0.00    +0.000 F 
ATOM     12  F   UNL     1       0.977  10.679  20.025  0.00  0.00    +0.000 F 
ATOM     13  F   UNL     1      -0.343   9.793  18.542  0.00  0.00    +0.000 F 
ENDBRANCH   7  10
ENDBRANCH   1   4
BRANCH   1  14
ATOM     14  N   UNL     1       4.624   4.919  16.558  0.00  0.00    +0.000 NA
BRANCH  14  15
ATOM     15  C   UNL     1       5.270   5.094  15.212  0.00  0.00    +0.000 C 
BRANCH  15  16
ATOM     16  C   UNL     1       6.281   4.001  14.853  0.00  0.00    +0.000 C 
BRANCH  16  18
ATOM     17  N   UNL     1       6.135   3.460  12.129  0.00  0.00    +0.000 NA
ATOM     18  C   UNL     1       6.201   3.705  13.364  0.00  0.00    +0.000 C 
ENDBRANCH  16  18
ENDBRANCH  15  16
ENDBRANCH  14  15
BRANCH  14  19
ATOM     19  C   UNL     1       4.476   3.513  17.037  0.00  0.00    +0.000 C 
BRANCH  19  20
ATOM     20  C   UNL     1       3.194   3.259  17.779  0.00  0.00    +0.000 A 
ATOM     21  C   UNL     1       1.954   3.832  17.566  0.00  0.00    +0.000 A 
ATOM     22  C   UNL     1       0.955   3.321  18.440  0.00  0.00    +0.000 A 
ATOM     23  C   UNL     1       1.455   2.359  19.286  0.00  0.00    +0.000 A 
ATOM     24  S   UNL     1       3.115   2.070  19.015  0.00  0.00    +0.000 S 
ENDBRANCH  19  20
ENDBRANCH  14  19
ENDBRANCH   1  14
TORSDOF 8
ENDMDL
MODEL 6
REMARK VINA RESULT:      -7.2      1.317      1.517
REMARK  Name = 
REMARK  8 active torsions:
REMARK  status: ('A' for Active; 'I' for Inactive)
REMARK    1  A    between atoms: C_2  and  C_3
REMARK    2  A    between atoms: C_3  and  C_4
REMARK    3  A    between atoms: C_4  and  N_5
REMARK    4  A    between atoms: N_5  and  C_6
REMARK    5  A    between atoms: N_5  and  S_12
REMARK    6  A    between atoms: C_6  and  C_7
REMARK    7  A    between atoms: S_12  and  C_15
REMARK    8  A    between atoms: C_18  and  C_19
REMARK                            x       y       z     vdW  Elec       q    Type
REMARK                         _______ _______ _______ _____ _____    ______ ____
ROOT
ATOM      1  S   UNL     1       5.671   5.086  18.240  0.00  0.00    +0.000 S 
ATOM      2  O   UNL     1       6.659   6.098  18.552  0.00  0.00    +0.000 OA
ATOM      3  O   UNL     1       5.674   3.801  18.903  0.00  0.00    +0.000 OA
ENDROOT
BRANCH   1   4
ATOM      4  C   UNL     1       5.817   4.783  16.486  0.00  0.00    +0.000 A 
ATOM      5  C   UNL     1       6.944   5.264  15.808  0.00  0.00    +0.000 A 
ATOM      6  C   UNL     1       7.152   4.920  14.472  0.00  0.00    +0.000 A 
ATOM      7  C   UNL     1       6.239   4.093  13.800  0.00  0.00    +0.000 A 
ATOM      8  C   UNL     1       5.117   3.611  14.496  0.00  0.00    +0.000 A 
ATOM      9  C   UNL     1       4.912   3.939  15.840  0.00  0.00    +0.000 A 
BRANCH   7  10
ATOM     10  C   UNL     1       6.462   3.701  12.357  0.00  0.00    +0.000 C 
ATOM     11  F   UNL     1       6.874   2.413  12.200  0.00  0.00    +0.000 F 
ATOM     12  F   UNL     1       5.337   3.828  11.604  0.00  0.00    +0.000 F 
ATOM     13  F   UNL     1       7.408   4.472  11.754  0.00  0.00    +0.000 F 
ENDBRANCH   7  10
ENDBRANCH   1   4
BRANCH   1  14
ATOM     14  N   UNL     1       4.104   5.778  18.405  0.00  0.00    +0.000 NA
BRANCH  14  15
ATOM     15  C   UNL     1       3.936   7.109  17.730  0.00  0.00    +0.000 C 
BRANCH  15  16
ATOM     16  C   UNL     1       2.509   7.664  17.778  0.00  0.00    +0.000 C 
BRANCH  16  18
ATOM     17  N   UNL     1       1.781   8.129  20.421  0.00  0.00    +0.000 NA
ATOM     18  C   UNL     1       2.112   7.918  19.223  0.00  0.00    +0.000 C 
ENDBRANCH  16  18
ENDBRANCH  15  16
ENDBRANCH  14  15
BRANCH  14  19
ATOM     19  C   UNL     1       2.996   4.796  18.206  0.00  0.00    +0.000 C 
BRANCH  19  20
ATOM     20  C   UNL     1       2.606   4.062  19.458  0.00  0.00    +0.000 A 
ATOM     21  C   UNL     1       2.468   4.566  20.738  0.00  0.00    +0.000 A 
ATOM     22  C   UNL     1       2.047   3.581  21.674  0.00  0.00    +0.000 A 
ATOM     23  C   UNL     1       1.858   2.355  21.081  0.00  0.00    +0.000 A 
ATOM     24  S   UNL     1       2.176   2.400  19.404  0.00  0.00    +0.000 S 
ENDBRANCH  19  20
ENDBRANCH  14  19
ENDBRANCH   1  14
TORSDOF 8
ENDMDL
MODEL 7
REMARK VINA RESULT:      -7.2      0.787      1.239
REMARK  Name = 
REMARK  8 active torsions:
REMARK  status: ('A' for Active; 'I' for Inactive)
REMARK    1  A    between atoms: C_2  and  C_3
REMARK    2  A    between atoms: C_3  and  C_4
REMARK    3  A    between atoms: C_4  and  N_5
REMARK    4  A    between atoms: N_5  and  C_6
REMARK    5  A    between atoms: N_5  and  S_12
REMARK    6  A    between atoms: C_6  and  C_7
REMARK    7  A    between atoms: S_12  and  C_15
REMARK    8  A    between atoms: C_18  and  C_19
REMARK                            x       y       z     vdW  Elec       q    Type
REMARK                         _______ _______ _______ _____ _____    ______ ____
ROOT
ATOM      1  S   UNL     1       6.605   5.371  17.953  0.00  0.00    +0.000 S 
ATOM      2  O   UNL     1       7.065   6.744  17.917  0.00  0.00    +0.000 OA
ATOM      3  O   UNL     1       7.389   4.330  18.578  0.00  0.00    +0.000 OA
ENDROOT
BRANCH   1   4
ATOM      4  C   UNL     1       6.349   4.897  16.250  0.00  0.00    +0.000 A 
ATOM      5  C   UNL     1       7.141   5.487  15.257  0.00  0.00    +0.000 A 
ATOM      6  C   UNL     1       7.059   5.031  13.941  0.00  0.00    +0.000 A 
ATOM      7  C   UNL     1       6.189   3.984  13.603  0.00  0.00    +0.000 A 
ATOM      8  C   UNL     1       5.405   3.397  14.611  0.00  0.00    +0.000 A 
ATOM      9  C   UNL     1       5.495   3.838  15.935  0.00  0.00    +0.000 A 
BRANCH   7  10
ATOM     10  C   UNL     1       6.103   3.473  12.183  0.00  0.00    +0.000 C 
ATOM     11  F   UNL     1       4.869   3.615  11.626  0.00  0.00    +0.000 F 
ATOM     12  F   UNL     1       6.966   4.111  11.347  0.00  0.00    +0.000 F 
ATOM     13  F   UNL     1       6.404   2.148  12.093  0.00  0.00    +0.000 F 
ENDBRANCH   7  10
ENDBRANCH   1   4
BRANCH   1  14
ATOM     14  N   UNL     1       5.022   5.339  18.628  0.00  0.00    +0.000 NA
BRANCH  14  15
ATOM     15  C   UNL     1       3.941   5.827  17.705  0.00  0.00    +0.000 C 
BRANCH  15  16
ATOM     16  C   UNL     1       4.014   7.323  17.385  0.00  0.00    +0.000 C 
BRANCH  16  18
ATOM     17  N   UNL     1       1.701   8.578  18.283  0.00  0.00    +0.000 NA
ATOM     18  C   UNL     1       2.750   8.009  17.876  0.00  0.00    +0.000 C 
ENDBRANCH  16  18
ENDBRANCH  15  16
ENDBRANCH  14  15
BRANCH  14  19
ATOM     19  C   UNL     1       4.723   4.087  19.384  0.00  0.00    +0.000 C 
BRANCH  19  20
ATOM     20  C   UNL     1       3.260   3.882  19.661  0.00  0.00    +0.000 A 
ATOM     21  C   UNL     1       2.446   4.587  20.527  0.00  0.00    +0.000 A 
ATOM     22  C   UNL     1       1.097   4.137  20.503  0.00  0.00    +0.000 A 
ATOM     23  C   UNL     1       0.913   3.111  19.606  0.00  0.00    +0.000 A 
ATOM     24  S   UNL     1       2.358   2.706  18.793  0.00  0.00    +0.000 S 
ENDBRANCH  19  20
ENDBRANCH  14  19
ENDBRANCH   1  14
TORSDOF 8
ENDMDL
MODEL 8
REMARK VINA RESULT:      -7.2      0.806      1.078
REMARK  Name = 
REMARK  8 active torsions:
REMARK  status: ('A' for Active; 'I' for Inactive)
REMARK    1  A    between atoms: C_2  and  C_3
REMARK    2  A    between atoms: C_3  and  C_4
REMARK    3  A    between atoms: C_4  and  N_5
REMARK    4  A    between atoms: N_5  and  C_6
REMARK    5  A    between atoms: N_5  and  S_12
REMARK    6  A    between atoms: C_6  and  C_7
REMARK    7  A    between atoms: S_12  and  C_15
REMARK    8  A    between atoms: C_18  and  C_19
REMARK                            x       y       z     vdW  Elec       q    Type
REMARK                         _______ _______ _______ _____ _____    ______ ____
ROOT
ATOM      1  S   UNL     1       6.746   5.445  17.937  0.00  0.00    +0.000 S 
ATOM      2  O   UNL     1       7.163   6.832  17.915  0.00  0.00    +0.000 OA
ATOM      3  O   UNL     1       7.552   4.426  18.572  0.00  0.00    +0.000 OA
ENDROOT
BRANCH   1   4
ATOM      4  C   UNL     1       6.532   4.971  16.229  0.00  0.00    +0.000 A 
ATOM      5  C   UNL     1       7.284   5.626  15.246  0.00  0.00    +0.000 A 
ATOM      6  C   UNL     1       7.241   5.179  13.925  0.00  0.00    +0.000 A 
ATOM      7  C   UNL     1       6.451   4.075  13.572  0.00  0.00    +0.000 A 
ATOM      8  C   UNL     1       5.708   3.422  14.571  0.00  0.00    +0.000 A 
ATOM      9  C   UNL     1       5.759   3.855  15.900  0.00  0.00    +0.000 A 
BRANCH   7  10
ATOM     10  C   UNL     1       6.409   3.572  12.147  0.00  0.00    +0.000 C 
ATOM     11  F   UNL     1       5.156   3.546  11.615  0.00  0.00    +0.000 F 
ATOM     12  F   UNL     1       7.157   4.335  11.305  0.00  0.00    +0.000 F 
ATOM     13  F   UNL     1       6.890   2.304  12.034  0.00  0.00    +0.000 F 
ENDBRANCH   7  10
ENDBRANCH   1   4
BRANCH   1  14
ATOM     14  N   UNL     1       5.154   5.360  18.587  0.00  0.00    +0.000 NA
BRANCH  14  15
ATOM     15  C   UNL     1       4.065   5.711  17.613  0.00  0.00    +0.000 C 
BRANCH  15  16
ATOM     16  C   UNL     1       3.628   7.178  17.659  0.00  0.00    +0.000 C 
BRANCH  16  18
ATOM     17  N   UNL     1       2.017   7.598  19.887  0.00  0.00    +0.000 NA
ATOM     18  C   UNL     1       2.748   7.408  18.877  0.00  0.00    +0.000 C 
ENDBRANCH  16  18
ENDBRANCH  15  16
ENDBRANCH  14  15
BRANCH  14  19
ATOM     19  C   UNL     1       4.918   4.149  19.427  0.00  0.00    +0.000 C 
BRANCH  19  20
ATOM     20  C   UNL     1       3.586   3.496  19.186  0.00  0.00    +0.000 A 
ATOM     21  C   UNL     1       3.262   2.538  18.243  0.00  0.00    +0.000 A 
ATOM     22  C   UNL     1       1.905   2.119  18.329  0.00  0.00    +0.000 A 
ATOM     23  C   UNL     1       1.234   2.756  19.347  0.00  0.00    +0.000 A 
ATOM     24  S   UNL     1       2.242   3.841  20.197  0.00  0.00    +0.000 S 
ENDBRANCH  19  20
ENDBRANCH  14  19
ENDBRANCH   1  14
TORSDOF 8
ENDMDL
MODEL 9
REMARK VINA RESULT:      -7.2      4.456      6.534
REMARK  Name = 
REMARK  8 active torsions:
REMARK  status: ('A' for Active; 'I' for Inactive)
REMARK    1  A    between atoms: C_2  and  C_3
REMARK    2  A    between atoms: C_3  and  C_4
REMARK    3  A    between atoms: C_4  and  N_5
REMARK    4  A    between atoms: N_5  and  C_6
REMARK    5  A    between atoms: N_5  and  S_12
REMARK    6  A    between atoms: C_6  and  C_7
REMARK    7  A    between atoms: S_12  and  C_15
REMARK    8  A    between atoms: C_18  and  C_19
REMARK                            x       y       z     vdW  Elec       q    Type
REMARK                         _______ _______ _______ _____ _____    ______ ____
ROOT
ATOM      1  S   UNL     1       4.838   5.875  18.173  0.00  0.00    +0.000 S 
ATOM      2  O   UNL     1       5.278   5.398  19.468  0.00  0.00    +0.000 OA
ATOM      3  O   UNL     1       5.735   6.581  17.285  0.00  0.00    +0.000 OA
ENDROOT
BRANCH   1   4
ATOM      4  C   UNL     1       3.450   6.951  18.496  0.00  0.00    +0.000 A 
ATOM      5  C   UNL     1       2.798   6.862  19.732  0.00  0.00    +0.000 A 
ATOM      6  C   UNL     1       1.805   7.785  20.062  0.00  0.00    +0.000 A 
ATOM      7  C   UNL     1       1.454   8.805  19.165  0.00  0.00    +0.000 A 
ATOM      8  C   UNL     1       2.122   8.886  17.931  0.00  0.00    +0.000 A 
ATOM      9  C   UNL     1       3.129   7.974  17.601  0.00  0.00    +0.000 A 
BRANCH   7  10
ATOM     10  C   UNL     1       0.391   9.820  19.519  0.00  0.00    +0.000 C 
ATOM     11  F   UNL     1       0.772  10.693  20.491  0.00  0.00    +0.000 F 
ATOM     12  F   UNL     1       0.025  10.584  18.454  0.00  0.00    +0.000 F 
ATOM     13  F   UNL     1      -0.751   9.233  19.970  0.00  0.00    +0.000 F 
ENDBRANCH   7  10
ENDBRANCH   1   4
BRANCH   1  14
ATOM     14  N   UNL     1       4.143   4.559  17.309  0.00  0.00    +0.000 NA
BRANCH  14  15
ATOM     15  C   UNL     1       4.554   4.474  15.867  0.00  0.00    +0.000 C 
BRANCH  15  16
ATOM     16  C   UNL     1       5.847   3.690  15.626  0.00  0.00    +0.000 C 
BRANCH  16  18
ATOM     17  N   UNL     1       7.700   5.323  14.348  0.00  0.00    +0.000 NA
ATOM     18  C   UNL     1       6.860   4.583  14.928  0.00  0.00    +0.000 C 
ENDBRANCH  16  18
ENDBRANCH  15  16
ENDBRANCH  14  15
BRANCH  14  19
ATOM     19  C   UNL     1       4.153   3.275  18.072  0.00  0.00    +0.000 C 
BRANCH  19  20
ATOM     20  C   UNL     1       3.009   3.135  19.036  0.00  0.00    +0.000 A 
ATOM     21  C   UNL     1       3.056   2.803  20.377  0.00  0.00    +0.000 A 
ATOM     22  C   UNL     1       1.772   2.801  20.989  0.00  0.00    +0.000 A 
ATOM     23  C   UNL     1       0.780   3.149  20.103  0.00  0.00    +0.000 A 
ATOM     24  S   UNL     1       1.401   3.486  18.549  0.00  0.00    +0.000 S 
ENDBRANCH  19  20
ENDBRANCH  14  19
ENDBRANCH   1  14
TORSDOF 8
ENDMDL
