MODEL 1
REMARK VINA RESULT:      -6.9      0.000      0.000
REMARK  Name = 
REMARK  5 active torsions:
REMARK  status: ('A' for Active; 'I' for Inactive)
REMARK    1  A    between atoms: C_3  and  C_4
REMARK    2  A    between atoms: C_4  and  C_5
REMARK    3  A    between atoms: C_16  and  C_17
REMARK    4  A    between atoms: N_24  and  C_25
REMARK    5  A    between atoms: C_25  and  C_26
REMARK                            x       y       z     vdW  Elec       q    Type
REMARK                         _______ _______ _______ _____ _____    ______ ____
ROOT
ATOM      1  O   UNL     1      -0.796  13.510  18.856  0.00  0.00    +0.000 OA
ATOM      2  C   UNL     1      -0.395  12.707  19.702  0.00  0.00    +0.000 C 
ATOM      3  C   UNL     1      -0.168  11.200  19.352  0.00  0.00    +0.000 C 
ATOM      4  N   UNL     1       0.824  10.465  20.195  0.00  0.00    +0.000 NA
ATOM      5  C   UNL     1       0.706  10.421  21.645  0.00  0.00    +0.000 C 
ATOM      6  C   UNL     1      -0.655  10.227  22.227  0.00  0.00    +0.000 C 
ATOM      7  C   UNL     1      -1.371  11.142  22.902  0.00  0.00    +0.000 C 
ATOM      8  C   UNL     1      -0.999  12.584  23.161  0.00  0.00    +0.000 C 
ATOM      9  C   UNL     1      -1.038  13.564  21.946  0.00  0.00    +0.000 C 
ATOM     10  N   UNL     1      -0.017  13.185  20.940  0.00  0.00    +0.000 N 
ATOM     11  H   UNL     1       1.758  10.797  19.958  0.00  0.00    +0.000 HD
ENDROOT
BRANCH   9  12
ATOM     12  C   UNL     1      -2.458  13.814  21.432  0.00  0.00    +0.000 A 
ATOM     13  C   UNL     1      -2.890  15.116  21.128  0.00  0.00    +0.000 A 
ATOM     14  C   UNL     1      -4.199  15.352  20.675  0.00  0.00    +0.000 A 
ATOM     15  C   UNL     1      -5.083  14.290  20.503  0.00  0.00    +0.000 A 
ATOM     16 CL   UNL     1      -6.687  14.574  19.951  0.00  0.00    +0.000 Cl
ATOM     17  C   UNL     1      -4.676  12.998  20.783  0.00  0.00    +0.000 A 
ATOM     18  C   UNL     1      -3.381  12.773  21.251  0.00  0.00    +0.000 A 
ENDBRANCH   9  12
BRANCH   3  19
ATOM     19  C   UNL     1      -1.427  10.324  19.106  0.00  0.00    +0.000 C 
BRANCH  19  20
ATOM     20  C   UNL     1      -2.324  10.509  17.896  0.00  0.00    +0.000 A 
ATOM     21  C   UNL     1      -3.509  11.246  17.897  0.00  0.00    +0.000 A 
ATOM     22  C   UNL     1      -4.366  11.231  16.792  0.00  0.00    +0.000 A 
ATOM     23  C   UNL     1      -4.011  10.544  15.637  0.00  0.00    +0.000 A 
ATOM     24  C   UNL     1      -2.784   9.894  15.576  0.00  0.00    +0.000 A 
ATOM     25  C   UNL     1      -1.949   9.875  16.697  0.00  0.00    +0.000 A 
ENDBRANCH  19  20
ENDBRANCH   3  19
BRANCH  10  26
ATOM     26  C   UNL     1       1.319  13.775  21.050  0.00  0.00    +0.000 C 
BRANCH  26  27
ATOM     27  C   UNL     1       1.735  14.714  19.937  0.00  0.00    +0.000 A 
ATOM     28  C   UNL     1       2.668  14.333  18.966  0.00  0.00    +0.000 A 
ATOM     29  C   UNL     1       3.001  15.203  17.920  0.00  0.00    +0.000 A 
ATOM     30  C   UNL     1       2.407  16.461  17.842  0.00  0.00    +0.000 A 
ATOM     31 CL   UNL     1       2.808  17.521  16.547  0.00  0.00    +0.000 Cl
ATOM     32  C   UNL     1       1.485  16.865  18.803  0.00  0.00    +0.000 A 
ATOM     33  C   UNL     1       1.152  15.993  19.847  0.00  0.00    +0.000 A 
ENDBRANCH  26  27
ENDBRANCH  10  26
TORSDOF 5
ENDMDL
MODEL 2
REMARK VINA RESULT:      -6.9      0.148      1.212
REMARK  Name = 
REMARK  5 active torsions:
REMARK  status: ('A' for Active; 'I' for Inactive)
REMARK    1  A    between atoms: C_3  and  C_4
REMARK    2  A    between atoms: C_4  and  C_5
REMARK    3  A    between atoms: C_16  and  C_17
REMARK    4  A    between atoms: N_24  and  C_25
REMARK    5  A    between atoms: C_25  and  C_26
REMARK                            x       y       z     vdW  Elec       q    Type
REMARK                         _______ _______ _______ _____ _____    ______ ____
ROOT
ATOM      1  O   UNL     1      -0.941  13.480  18.843  0.00  0.00    +0.000 OA
ATOM      2  C   UNL     1      -0.501  12.700  19.690  0.00  0.00    +0.000 C 
ATOM      3  C   UNL     1      -0.230  11.197  19.354  0.00  0.00    +0.000 C 
ATOM      4  N   UNL     1       0.798  10.505  20.189  0.00  0.00    +0.000 NA
ATOM      5  C   UNL     1       0.704  10.473  21.641  0.00  0.00    +0.000 C 
ATOM      6  C   UNL     1      -0.640  10.242  22.246  0.00  0.00    +0.000 C 
ATOM      7  C   UNL     1      -1.376  11.141  22.923  0.00  0.00    +0.000 C 
ATOM      8  C   UNL     1      -1.047  12.597  23.160  0.00  0.00    +0.000 C 
ATOM      9  C   UNL     1      -1.137  13.562  21.935  0.00  0.00    +0.000 C 
ATOM     10  N   UNL     1      -0.120  13.205  20.917  0.00  0.00    +0.000 N 
ATOM     11  H   UNL     1       1.717  10.864  19.933  0.00  0.00    +0.000 HD
ENDROOT
BRANCH   9  12
ATOM     12  C   UNL     1      -2.572  13.760  21.441  0.00  0.00    +0.000 A 
ATOM     13  C   UNL     1      -3.037  15.037  21.088  0.00  0.00    +0.000 A 
ATOM     14  C   UNL     1      -4.360  15.227  20.654  0.00  0.00    +0.000 A 
ATOM     15  C   UNL     1      -5.225  14.141  20.549  0.00  0.00    +0.000 A 
ATOM     16 CL   UNL     1      -6.846  14.367  20.019  0.00  0.00    +0.000 Cl
ATOM     17  C   UNL     1      -4.785  12.871  20.878  0.00  0.00    +0.000 A 
ATOM     18  C   UNL     1      -3.476  12.693  21.327  0.00  0.00    +0.000 A 
ENDBRANCH   9  12
BRANCH   3  19
ATOM     19  C   UNL     1      -1.464  10.278  19.137  0.00  0.00    +0.000 C 
BRANCH  19  20
ATOM     20  C   UNL     1      -2.329  10.356  17.893  0.00  0.00    +0.000 A 
ATOM     21  C   UNL     1      -2.017   9.750  16.675  0.00  0.00    +0.000 A 
ATOM     22  C   UNL     1      -2.776  10.006  15.529  0.00  0.00    +0.000 A 
ATOM     23  C   UNL     1      -3.909  10.807  15.601  0.00  0.00    +0.000 A 
ATOM     24  C   UNL     1      -4.301  11.332  16.828  0.00  0.00    +0.000 A 
ATOM     25  C   UNL     1      -3.516  11.109  17.963  0.00  0.00    +0.000 A 
ENDBRANCH  19  20
ENDBRANCH   3  19
BRANCH  10  26
ATOM     26  C   UNL     1       1.198  13.839  20.999  0.00  0.00    +0.000 C 
BRANCH  26  27
ATOM     27  C   UNL     1       1.585  14.740  19.846  0.00  0.00    +0.000 A 
ATOM     28  C   UNL     1       1.023  16.012  19.688  0.00  0.00    +0.000 A 
ATOM     29  C   UNL     1       1.434  16.845  18.639  0.00  0.00    +0.000 A 
ATOM     30  C   UNL     1       2.405  16.410  17.740  0.00  0.00    +0.000 A 
ATOM     31 CL   UNL     1       2.918  17.441  16.462  0.00  0.00    +0.000 Cl
ATOM     32  C   UNL     1       2.970  15.144  17.873  0.00  0.00    +0.000 A 
ATOM     33  C   UNL     1       2.560  14.314  18.923  0.00  0.00    +0.000 A 
ENDBRANCH  26  27
ENDBRANCH  10  26
TORSDOF 5
ENDMDL
MODEL 3
REMARK VINA RESULT:      -6.7      3.161      5.957
REMARK  Name = 
REMARK  5 active torsions:
REMARK  status: ('A' for Active; 'I' for Inactive)
REMARK    1  A    between atoms: C_3  and  C_4
REMARK    2  A    between atoms: C_4  and  C_5
REMARK    3  A    between atoms: C_16  and  C_17
REMARK    4  A    between atoms: N_24  and  C_25
REMARK    5  A    between atoms: C_25  and  C_26
REMARK                            x       y       z     vdW  Elec       q    Type
REMARK                         _______ _______ _______ _____ _____    ______ ____
ROOT
ATOM      1  O   UNL     1      -1.494  10.784  21.732  0.00  0.00    +0.000 OA
ATOM      2  C   UNL     1      -0.816  11.777  21.460  0.00  0.00    +0.000 C 
ATOM      3  C   UNL     1      -0.820  13.043  22.379  0.00  0.00    +0.000 C 
ATOM      4  N   UNL     1       0.398  13.908  22.322  0.00  0.00    +0.000 NA
ATOM      5  C   UNL     1       0.886  14.453  21.064  0.00  0.00    +0.000 C 
ATOM      6  C   UNL     1      -0.120  14.978  20.095  0.00  0.00    +0.000 C 
ATOM      7  C   UNL     1      -0.453  14.428  18.914  0.00  0.00    +0.000 C 
ATOM      8  C   UNL     1       0.056  13.128  18.336  0.00  0.00    +0.000 C 
ATOM      9  C   UNL     1      -0.437  11.805  19.003  0.00  0.00    +0.000 C 
ATOM     10  N   UNL     1       0.060  11.708  20.396  0.00  0.00    +0.000 N 
ATOM     11  H   UNL     1       1.164  13.417  22.780  0.00  0.00    +0.000 HD
ENDROOT
BRANCH   9  12
ATOM     12  C   UNL     1      -1.930  11.550  18.781  0.00  0.00    +0.000 A 
ATOM     13  C   UNL     1      -2.363  10.438  18.041  0.00  0.00    +0.000 A 
ATOM     14  C   UNL     1      -3.732  10.212  17.817  0.00  0.00    +0.000 A 
ATOM     15  C   UNL     1      -4.682  11.083  18.345  0.00  0.00    +0.000 A 
ATOM     16 CL   UNL     1      -6.358  10.812  18.073  0.00  0.00    +0.000 Cl
ATOM     17  C   UNL     1      -4.278  12.178  19.089  0.00  0.00    +0.000 A 
ATOM     18  C   UNL     1      -2.917  12.407  19.291  0.00  0.00    +0.000 A 
ENDBRANCH   9  12
BRANCH   3  19
ATOM     19  C   UNL     1      -2.106  13.915  22.390  0.00  0.00    +0.000 C 
BRANCH  19  20
ATOM     20  C   UNL     1      -3.426  13.411  22.944  0.00  0.00    +0.000 A 
ATOM     21  C   UNL     1      -4.672  13.659  22.366  0.00  0.00    +0.000 A 
ATOM     22  C   UNL     1      -5.854  13.306  23.024  0.00  0.00    +0.000 A 
ATOM     23  C   UNL     1      -5.807  12.624  24.234  0.00  0.00    +0.000 A 
ATOM     24  C   UNL     1      -4.576  12.270  24.775  0.00  0.00    +0.000 A 
ATOM     25  C   UNL     1      -3.396  12.662  24.135  0.00  0.00    +0.000 A 
ENDBRANCH  19  20
ENDBRANCH   3  19
BRANCH  10  26
ATOM     26  C   UNL     1       1.347  11.049  20.631  0.00  0.00    +0.000 C 
BRANCH  26  27
ATOM     27  C   UNL     1       1.553   9.711  19.955  0.00  0.00    +0.000 A 
ATOM     28  C   UNL     1       1.786   9.612  18.578  0.00  0.00    +0.000 A 
ATOM     29  C   UNL     1       2.020   8.366  17.984  0.00  0.00    +0.000 A 
ATOM     30  C   UNL     1       2.019   7.210  18.762  0.00  0.00    +0.000 A 
ATOM     31 CL   UNL     1       2.322   5.681  18.032  0.00  0.00    +0.000 Cl
ATOM     32  C   UNL     1       1.779   7.284  20.132  0.00  0.00    +0.000 A 
ATOM     33  C   UNL     1       1.547   8.531  20.723  0.00  0.00    +0.000 A 
ENDBRANCH  26  27
ENDBRANCH  10  26
TORSDOF 5
ENDMDL
MODEL 4
REMARK VINA RESULT:      -6.6      6.653     10.734
REMARK  Name = 
REMARK  5 active torsions:
REMARK  status: ('A' for Active; 'I' for Inactive)
REMARK    1  A    between atoms: C_3  and  C_4
REMARK    2  A    between atoms: C_4  and  C_5
REMARK    3  A    between atoms: C_16  and  C_17
REMARK    4  A    between atoms: N_24  and  C_25
REMARK    5  A    between atoms: C_25  and  C_26
REMARK                            x       y       z     vdW  Elec       q    Type
REMARK                         _______ _______ _______ _____ _____    ______ ____
ROOT
ATOM      1  O   UNL     1       7.314  14.379  18.824  0.00  0.00    +0.000 OA
ATOM      2  C   UNL     1       7.692  15.543  18.967  0.00  0.00    +0.000 C 
ATOM      3  C   UNL     1       9.058  16.035  18.385  0.00  0.00    +0.000 C 
ATOM      4  N   UNL     1       9.167  17.496  18.089  0.00  0.00    +0.000 NA
ATOM      5  C   UNL     1       8.897  18.501  19.107  0.00  0.00    +0.000 C 
ATOM      6  C   UNL     1       9.413  18.252  20.484  0.00  0.00    +0.000 C 
ATOM      7  C   UNL     1       8.675  17.970  21.573  0.00  0.00    +0.000 C 
ATOM      8  C   UNL     1       7.178  17.770  21.636  0.00  0.00    +0.000 C 
ATOM      9  C   UNL     1       6.601  16.464  21.003  0.00  0.00    +0.000 C 
ATOM     10  N   UNL     1       6.826  16.454  19.538  0.00  0.00    +0.000 N 
ATOM     11  H   UNL     1       8.594  17.703  17.272  0.00  0.00    +0.000 HD
ENDROOT
BRANCH   9  12
ATOM     12  C   UNL     1       7.002  15.205  21.775  0.00  0.00    +0.000 A 
ATOM     13  C   UNL     1       6.037  14.252  22.140  0.00  0.00    +0.000 A 
ATOM     14  C   UNL     1       6.398  13.105  22.866  0.00  0.00    +0.000 A 
ATOM     15  C   UNL     1       7.728  12.888  23.219  0.00  0.00    +0.000 A 
ATOM     16 CL   UNL     1       8.175  11.485  24.109  0.00  0.00    +0.000 Cl
ATOM     17  C   UNL     1       8.698  13.806  22.858  0.00  0.00    +0.000 A 
ATOM     18  C   UNL     1       8.330  14.952  22.154  0.00  0.00    +0.000 A 
ENDBRANCH   9  12
BRANCH   3  19
ATOM     19  C   UNL     1      10.355  15.521  19.070  0.00  0.00    +0.000 C 
BRANCH  19  20
ATOM     20  C   UNL     1      10.772  14.062  19.034  0.00  0.00    +0.000 A 
ATOM     21  C   UNL     1      11.210  13.338  20.143  0.00  0.00    +0.000 A 
ATOM     22  C   UNL     1      11.737  12.051  19.999  0.00  0.00    +0.000 A 
ATOM     23  C   UNL     1      11.758  11.436  18.753  0.00  0.00    +0.000 A 
ATOM     24  C   UNL     1      11.226  12.097  17.652  0.00  0.00    +0.000 A 
ATOM     25  C   UNL     1      10.740  13.401  17.792  0.00  0.00    +0.000 A 
ENDBRANCH  19  20
ENDBRANCH   3  19
BRANCH  10  26
ATOM     26  C   UNL     1       5.794  17.028  18.672  0.00  0.00    +0.000 C 
BRANCH  26  27
ATOM     27  C   UNL     1       4.423  16.390  18.742  0.00  0.00    +0.000 A 
ATOM     28  C   UNL     1       3.379  16.971  19.471  0.00  0.00    +0.000 A 
ATOM     29  C   UNL     1       2.108  16.385  19.481  0.00  0.00    +0.000 A 
ATOM     30  C   UNL     1       1.872  15.213  18.766  0.00  0.00    +0.000 A 
ATOM     31 CL   UNL     1       0.304  14.504  18.768  0.00  0.00    +0.000 Cl
ATOM     32  C   UNL     1       2.899  14.612  18.042  0.00  0.00    +0.000 A 
ATOM     33  C   UNL     1       4.169  15.200  18.032  0.00  0.00    +0.000 A 
ENDBRANCH  26  27
ENDBRANCH  10  26
TORSDOF 5
ENDMDL
MODEL 5
REMARK VINA RESULT:      -6.5      6.674     10.736
REMARK  Name = 
REMARK  5 active torsions:
REMARK  status: ('A' for Active; 'I' for Inactive)
REMARK    1  A    between atoms: C_3  and  C_4
REMARK    2  A    between atoms: C_4  and  C_5
REMARK    3  A    between atoms: C_16  and  C_17
REMARK    4  A    between atoms: N_24  and  C_25
REMARK    5  A    between atoms: C_25  and  C_26
REMARK                            x       y       z     vdW  Elec       q    Type
REMARK                         _______ _______ _______ _____ _____    ______ ____
ROOT
ATOM      1  O   UNL     1       7.342  14.437  18.825  0.00  0.00    +0.000 OA
ATOM      2  C   UNL     1       7.737  15.595  18.976  0.00  0.00    +0.000 C 
ATOM      3  C   UNL     1       9.103  16.074  18.385  0.00  0.00    +0.000 C 
ATOM      4  N   UNL     1       9.228  17.537  18.103  0.00  0.00    +0.000 NA
ATOM      5  C   UNL     1       8.982  18.535  19.134  0.00  0.00    +0.000 C 
ATOM      6  C   UNL     1       9.508  18.264  20.504  0.00  0.00    +0.000 C 
ATOM      7  C   UNL     1       8.778  17.981  21.597  0.00  0.00    +0.000 C 
ATOM      8  C   UNL     1       7.279  17.801  21.673  0.00  0.00    +0.000 C 
ATOM      9  C   UNL     1       6.679  16.509  21.033  0.00  0.00    +0.000 C 
ATOM     10  N   UNL     1       6.889  16.511  19.566  0.00  0.00    +0.000 N 
ATOM     11  H   UNL     1       8.650  17.760  17.294  0.00  0.00    +0.000 HD
ENDROOT
BRANCH   9  12
ATOM     12  C   UNL     1       7.071  15.236  21.788  0.00  0.00    +0.000 A 
ATOM     13  C   UNL     1       6.101  14.279  22.128  0.00  0.00    +0.000 A 
ATOM     14  C   UNL     1       6.454  13.120  22.839  0.00  0.00    +0.000 A 
ATOM     15  C   UNL     1       7.780  12.894  23.199  0.00  0.00    +0.000 A 
ATOM     16 CL   UNL     1       8.217  11.477  24.071  0.00  0.00    +0.000 Cl
ATOM     17  C   UNL     1       8.755  13.817  22.862  0.00  0.00    +0.000 A 
ATOM     18  C   UNL     1       8.395  14.975  22.174  0.00  0.00    +0.000 A 
ENDBRANCH   9  12
BRANCH   3  19
ATOM     19  C   UNL     1      10.400  15.536  19.052  0.00  0.00    +0.000 C 
BRANCH  19  20
ATOM     20  C   UNL     1      10.833  14.086  18.938  0.00  0.00    +0.000 A 
ATOM     21  C   UNL     1      10.842  13.356  17.749  0.00  0.00    +0.000 A 
ATOM     22  C   UNL     1      11.092  11.980  17.752  0.00  0.00    +0.000 A 
ATOM     23  C   UNL     1      11.417  11.328  18.936  0.00  0.00    +0.000 A 
ATOM     24  C   UNL     1      11.521  12.058  20.115  0.00  0.00    +0.000 A 
ATOM     25  C   UNL     1      11.229  13.425  20.115  0.00  0.00    +0.000 A 
ENDBRANCH  19  20
ENDBRANCH   3  19
BRANCH  10  26
ATOM     26  C   UNL     1       5.856  17.107  18.717  0.00  0.00    +0.000 C 
BRANCH  26  27
ATOM     27  C   UNL     1       4.498  16.438  18.735  0.00  0.00    +0.000 A 
ATOM     28  C   UNL     1       4.205  15.350  17.906  0.00  0.00    +0.000 A 
ATOM     29  C   UNL     1       2.957  14.719  17.975  0.00  0.00    +0.000 A 
ATOM     30  C   UNL     1       1.992  15.175  18.871  0.00  0.00    +0.000 A 
ATOM     31 CL   UNL     1       0.464  14.388  18.964  0.00  0.00    +0.000 Cl
ATOM     32  C   UNL     1       2.258  16.263  19.698  0.00  0.00    +0.000 A 
ATOM     33  C   UNL     1       3.507  16.891  19.628  0.00  0.00    +0.000 A 
ENDBRANCH  26  27
ENDBRANCH  10  26
TORSDOF 5
ENDMDL
MODEL 6
REMARK VINA RESULT:      -6.5      6.623     10.703
REMARK  Name = 
REMARK  5 active torsions:
REMARK  status: ('A' for Active; 'I' for Inactive)
REMARK    1  A    between atoms: C_3  and  C_4
REMARK    2  A    between atoms: C_4  and  C_5
REMARK    3  A    between atoms: C_16  and  C_17
REMARK    4  A    between atoms: N_24  and  C_25
REMARK    5  A    between atoms: C_25  and  C_26
REMARK                            x       y       z     vdW  Elec       q    Type
REMARK                         _______ _______ _______ _____ _____    ______ ____
ROOT
ATOM      1  O   UNL     1       7.270  14.396  18.797  0.00  0.00    +0.000 OA
ATOM      2  C   UNL     1       7.674  15.553  18.931  0.00  0.00    +0.000 C 
ATOM      3  C   UNL     1       9.033  16.019  18.313  0.00  0.00    +0.000 C 
ATOM      4  N   UNL     1       9.161  17.478  18.015  0.00  0.00    +0.000 NA
ATOM      5  C   UNL     1       8.938  18.487  19.040  0.00  0.00    +0.000 C 
ATOM      6  C   UNL     1       9.485  18.226  20.403  0.00  0.00    +0.000 C 
ATOM      7  C   UNL     1       8.772  17.957  21.511  0.00  0.00    +0.000 C 
ATOM      8  C   UNL     1       7.273  17.786  21.614  0.00  0.00    +0.000 C 
ATOM      9  C   UNL     1       6.655  16.492  20.996  0.00  0.00    +0.000 C 
ATOM     10  N   UNL     1       6.841  16.479  19.525  0.00  0.00    +0.000 N 
ATOM     11  H   UNL     1       8.571  17.696  17.213  0.00  0.00    +0.000 HD
ENDROOT
BRANCH   9  12
ATOM     12  C   UNL     1       7.053  15.224  21.756  0.00  0.00    +0.000 A 
ATOM     13  C   UNL     1       8.396  14.978  22.083  0.00  0.00    +0.000 A 
ATOM     14  C   UNL     1       8.768  13.806  22.763  0.00  0.00    +0.000 A 
ATOM     15  C   UNL     1       7.801  12.877  23.139  0.00  0.00    +0.000 A 
ATOM     16 CL   UNL     1       8.250  11.440  23.970  0.00  0.00    +0.000 Cl
ATOM     17  C   UNL     1       6.469  13.105  22.839  0.00  0.00    +0.000 A 
ATOM     18  C   UNL     1       6.109  14.262  22.147  0.00  0.00    +0.000 A 
ENDBRANCH   9  12
BRANCH   3  19
ATOM     19  C   UNL     1      10.338  15.480  18.963  0.00  0.00    +0.000 C 
BRANCH  19  20
ATOM     20  C   UNL     1      10.745  14.020  18.882  0.00  0.00    +0.000 A 
ATOM     21  C   UNL     1      10.597  13.221  17.748  0.00  0.00    +0.000 A 
ATOM     22  C   UNL     1      10.838  11.845  17.801  0.00  0.00    +0.000 A 
ATOM     23  C   UNL     1      11.311  11.259  18.970  0.00  0.00    +0.000 A 
ATOM     24  C   UNL     1      11.570  12.056  20.080  0.00  0.00    +0.000 A 
ATOM     25  C   UNL     1      11.287  13.424  20.036  0.00  0.00    +0.000 A 
ENDBRANCH  19  20
ENDBRANCH   3  19
BRANCH  10  26
ATOM     26  C   UNL     1       5.797  17.073  18.687  0.00  0.00    +0.000 C 
BRANCH  26  27
ATOM     27  C   UNL     1       4.428  16.431  18.758  0.00  0.00    +0.000 A 
ATOM     28  C   UNL     1       3.415  16.950  19.573  0.00  0.00    +0.000 A 
ATOM     29  C   UNL     1       2.143  16.365  19.584  0.00  0.00    +0.000 A 
ATOM     30  C   UNL     1       1.876  15.255  18.785  0.00  0.00    +0.000 A 
ATOM     31 CL   UNL     1       0.307  14.549  18.790  0.00  0.00    +0.000 Cl
ATOM     32  C   UNL     1       2.872  14.717  17.974  0.00  0.00    +0.000 A 
ATOM     33  C   UNL     1       4.142  15.304  17.963  0.00  0.00    +0.000 A 
ENDBRANCH  26  27
ENDBRANCH  10  26
TORSDOF 5
ENDMDL
MODEL 7
REMARK VINA RESULT:      -6.4      3.152      5.917
REMARK  Name = 
REMARK  5 active torsions:
REMARK  status: ('A' for Active; 'I' for Inactive)
REMARK    1  A    between atoms: C_3  and  C_4
REMARK    2  A    between atoms: C_4  and  C_5
REMARK    3  A    between atoms: C_16  and  C_17
REMARK    4  A    between atoms: N_24  and  C_25
REMARK    5  A    between atoms: C_25  and  C_26
REMARK                            x       y       z     vdW  Elec       q    Type
REMARK                         _______ _______ _______ _____ _____    ______ ____
ROOT
ATOM      1  O   UNL     1      -1.483  10.772  21.741  0.00  0.00    +0.000 OA
ATOM      2  C   UNL     1      -0.807  11.768  21.476  0.00  0.00    +0.000 C 
ATOM      3  C   UNL     1      -0.844  13.044  22.380  0.00  0.00    +0.000 C 
ATOM      4  N   UNL     1       0.367  13.918  22.344  0.00  0.00    +0.000 NA
ATOM      5  C   UNL     1       0.881  14.455  21.092  0.00  0.00    +0.000 C 
ATOM      6  C   UNL     1      -0.106  14.962  20.095  0.00  0.00    +0.000 C 
ATOM      7  C   UNL     1      -0.406  14.397  18.912  0.00  0.00    +0.000 C 
ATOM      8  C   UNL     1       0.128  13.096  18.359  0.00  0.00    +0.000 C 
ATOM      9  C   UNL     1      -0.370  11.775  19.028  0.00  0.00    +0.000 C 
ATOM     10  N   UNL     1       0.094  11.697  20.433  0.00  0.00    +0.000 N 
ATOM     11  H   UNL     1       1.127  13.439  22.825  0.00  0.00    +0.000 HD
ENDROOT
BRANCH   9  12
ATOM     12  C   UNL     1      -1.855  11.505  18.772  0.00  0.00    +0.000 A 
ATOM     13  C   UNL     1      -2.836  12.386  19.258  0.00  0.00    +0.000 A 
ATOM     14  C   UNL     1      -4.201  12.131  19.043  0.00  0.00    +0.000 A 
ATOM     15  C   UNL     1      -4.600  11.006  18.327  0.00  0.00    +0.000 A 
ATOM     16 CL   UNL     1      -6.269  10.688  18.062  0.00  0.00    +0.000 Cl
ATOM     17  C   UNL     1      -3.651  10.131  17.827  0.00  0.00    +0.000 A 
ATOM     18  C   UNL     1      -2.298  10.380  18.060  0.00  0.00    +0.000 A 
ENDBRANCH   9  12
BRANCH   3  19
ATOM     19  C   UNL     1      -2.138  13.904  22.353  0.00  0.00    +0.000 C 
BRANCH  19  20
ATOM     20  C   UNL     1      -3.458  13.407  22.911  0.00  0.00    +0.000 A 
ATOM     21  C   UNL     1      -4.705  13.665  22.339  0.00  0.00    +0.000 A 
ATOM     22  C   UNL     1      -5.886  13.318  23.002  0.00  0.00    +0.000 A 
ATOM     23  C   UNL     1      -5.838  12.632  24.210  0.00  0.00    +0.000 A 
ATOM     24  C   UNL     1      -4.607  12.268  24.744  0.00  0.00    +0.000 A 
ATOM     25  C   UNL     1      -3.427  12.654  24.100  0.00  0.00    +0.000 A 
ENDBRANCH  19  20
ENDBRANCH   3  19
BRANCH  10  26
ATOM     26  C   UNL     1       1.381  11.052  20.705  0.00  0.00    +0.000 C 
BRANCH  26  27
ATOM     27  C   UNL     1       1.614   9.708  20.049  0.00  0.00    +0.000 A 
ATOM     28  C   UNL     1       1.568   8.516  20.780  0.00  0.00    +0.000 A 
ATOM     29  C   UNL     1       1.741   7.282  20.141  0.00  0.00    +0.000 A 
ATOM     30  C   UNL     1       1.964   7.232  18.767  0.00  0.00    +0.000 A 
ATOM     31 CL   UNL     1       2.161   5.714  17.982  0.00  0.00    +0.000 Cl
ATOM     32  C   UNL     1       2.023   8.406  18.021  0.00  0.00    +0.000 A 
ATOM     33  C   UNL     1       1.849   9.638  18.661  0.00  0.00    +0.000 A 
ENDBRANCH  26  27
ENDBRANCH  10  26
TORSDOF 5
ENDMDL
MODEL 8
REMARK VINA RESULT:      -6.4      3.109      4.561
REMARK  Name = 
REMARK  5 active torsions:
REMARK  status: ('A' for Active; 'I' for Inactive)
REMARK    1  A    between atoms: C_3  and  C_4
REMARK    2  A    between atoms: C_4  and  C_5
REMARK    3  A    between atoms: C_16  and  C_17
REMARK    4  A    between atoms: N_24  and  C_25
REMARK    5  A    between atoms: C_25  and  C_26
REMARK                            x       y       z     vdW  Elec       q    Type
REMARK                         _______ _______ _______ _____ _____    ______ ____
ROOT
ATOM      1  O   UNL     1      -1.810  14.726  20.536  0.00  0.00    +0.000 OA
ATOM      2  C   UNL     1      -1.747  15.064  21.720  0.00  0.00    +0.000 C 
ATOM      3  C   UNL     1      -0.888  14.262  22.752  0.00  0.00    +0.000 C 
ATOM      4  N   UNL     1      -0.405  15.021  23.946  0.00  0.00    +0.000 NA
ATOM      5  C   UNL     1      -1.326  15.737  24.816  0.00  0.00    +0.000 C 
ATOM      6  C   UNL     1      -2.617  15.073  25.161  0.00  0.00    +0.000 C 
ATOM      7  C   UNL     1      -3.840  15.440  24.740  0.00  0.00    +0.000 C 
ATOM      8  C   UNL     1      -4.178  16.553  23.774  0.00  0.00    +0.000 C 
ATOM      9  C   UNL     1      -3.813  16.333  22.271  0.00  0.00    +0.000 C 
ATOM     10  N   UNL     1      -2.343  16.249  22.102  0.00  0.00    +0.000 N 
ATOM     11  H   UNL     1       0.322  15.667  23.644  0.00  0.00    +0.000 HD
ENDROOT
BRANCH   9  12
ATOM     12  C   UNL     1      -4.651  15.235  21.612  0.00  0.00    +0.000 A 
ATOM     13  C   UNL     1      -5.274  15.458  20.373  0.00  0.00    +0.000 A 
ATOM     14  C   UNL     1      -6.062  14.460  19.774  0.00  0.00    +0.000 A 
ATOM     15  C   UNL     1      -6.219  13.225  20.396  0.00  0.00    +0.000 A 
ATOM     16 CL   UNL     1      -7.183  12.000  19.669  0.00  0.00    +0.000 Cl
ATOM     17  C   UNL     1      -5.603  12.978  21.611  0.00  0.00    +0.000 A 
ATOM     18  C   UNL     1      -4.839  13.980  22.209  0.00  0.00    +0.000 A 
ENDBRANCH   9  12
BRANCH   3  19
ATOM     19  C   UNL     1      -1.402  12.856  23.172  0.00  0.00    +0.000 C 
BRANCH  19  20
ATOM     20  C   UNL     1      -0.825  11.574  22.601  0.00  0.00    +0.000 A 
ATOM     21  C   UNL     1      -0.945  10.319  23.199  0.00  0.00    +0.000 A 
ATOM     22  C   UNL     1      -0.244   9.216  22.702  0.00  0.00    +0.000 A 
ATOM     23  C   UNL     1       0.523   9.332  21.549  0.00  0.00    +0.000 A 
ATOM     24  C   UNL     1       0.568  10.548  20.875  0.00  0.00    +0.000 A 
ATOM     25  C   UNL     1      -0.098  11.659  21.399  0.00  0.00    +0.000 A 
ENDBRANCH  19  20
ENDBRANCH   3  19
BRANCH  10  26
ATOM     26  C   UNL     1      -1.601  17.484  21.840  0.00  0.00    +0.000 C 
BRANCH  26  27
ATOM     27  C   UNL     1      -1.127  17.698  20.418  0.00  0.00    +0.000 A 
ATOM     28  C   UNL     1      -2.017  18.031  19.390  0.00  0.00    +0.000 A 
ATOM     29  C   UNL     1      -1.547  18.270  18.093  0.00  0.00    +0.000 A 
ATOM     30  C   UNL     1      -0.185  18.174  17.814  0.00  0.00    +0.000 A 
ATOM     31 CL   UNL     1       0.390  18.483  16.222  0.00  0.00    +0.000 Cl
ATOM     32  C   UNL     1       0.716  17.834  18.819  0.00  0.00    +0.000 A 
ATOM     33  C   UNL     1       0.245  17.598  20.116  0.00  0.00    +0.000 A 
ENDBRANCH  26  27
ENDBRANCH  10  26
TORSDOF 5
ENDMDL
MODEL 9
REMARK VINA RESULT:      -6.4      2.066      3.016
REMARK  Name = 
REMARK  5 active torsions:
REMARK  status: ('A' for Active; 'I' for Inactive)
REMARK    1  A    between atoms: C_3  and  C_4
REMARK    2  A    between atoms: C_4  and  C_5
REMARK    3  A    between atoms: C_16  and  C_17
REMARK    4  A    between atoms: N_24  and  C_25
REMARK    5  A    between atoms: C_25  and  C_26
REMARK                            x       y       z     vdW  Elec       q    Type
REMARK                         _______ _______ _______ _____ _____    ______ ____
ROOT
ATOM      1  O   UNL     1      -1.288  13.946  19.244  0.00  0.00    +0.000 OA
ATOM      2  C   UNL     1      -0.794  12.826  19.097  0.00  0.00    +0.000 C 
ATOM      3  C   UNL     1      -1.472  11.749  18.188  0.00  0.00    +0.000 C 
ATOM      4  N   UNL     1      -0.571  10.703  17.614  0.00  0.00    +0.000 NA
ATOM      5  C   UNL     1       0.281   9.883  18.463  0.00  0.00    +0.000 C 
ATOM      6  C   UNL     1      -0.295   9.371  19.740  0.00  0.00    +0.000 C 
ATOM      7  C   UNL     1       0.045   9.761  20.981  0.00  0.00    +0.000 C 
ATOM      8  C   UNL     1       1.025  10.848  21.362  0.00  0.00    +0.000 C 
ATOM      9  C   UNL     1       0.594  12.326  21.099  0.00  0.00    +0.000 C 
ATOM     10  N   UNL     1       0.447  12.574  19.645  0.00  0.00    +0.000 N 
ATOM     11  H   UNL     1       0.008  11.134  16.896  0.00  0.00    +0.000 HD
ENDROOT
BRANCH   9  12
ATOM     12  C   UNL     1      -0.560  12.775  21.999  0.00  0.00    +0.000 A 
ATOM     13  C   UNL     1      -0.535  14.036  22.617  0.00  0.00    +0.000 A 
ATOM     14  C   UNL     1      -1.582  14.444  23.461  0.00  0.00    +0.000 A 
ATOM     15  C   UNL     1      -2.673  13.606  23.679  0.00  0.00    +0.000 A 
ATOM     16 CL   UNL     1      -3.957  14.100  24.711  0.00  0.00    +0.000 Cl
ATOM     17  C   UNL     1      -2.725  12.365  23.069  0.00  0.00    +0.000 A 
ATOM     18  C   UNL     1      -1.673  11.958  22.248  0.00  0.00    +0.000 A 
ENDBRANCH   9  12
BRANCH   3  19
ATOM     19  C   UNL     1      -2.793  11.109  18.699  0.00  0.00    +0.000 C 
BRANCH  19  20
ATOM     20  C   UNL     1      -4.135  11.807  18.580  0.00  0.00    +0.000 A 
ATOM     21  C   UNL     1      -4.924  11.812  17.429  0.00  0.00    +0.000 A 
ATOM     22  C   UNL     1      -6.064  12.616  17.342  0.00  0.00    +0.000 A 
ATOM     23  C   UNL     1      -6.480  13.365  18.436  0.00  0.00    +0.000 A 
ATOM     24  C   UNL     1      -5.770  13.290  19.629  0.00  0.00    +0.000 A 
ATOM     25  C   UNL     1      -4.606  12.519  19.699  0.00  0.00    +0.000 A 
ENDBRANCH  19  20
ENDBRANCH   3  19
BRANCH  10  26
ATOM     26  C   UNL     1       1.615  13.048  18.899  0.00  0.00    +0.000 C 
BRANCH  26  27
ATOM     27  C   UNL     1       2.284  14.303  19.419  0.00  0.00    +0.000 A 
ATOM     28  C   UNL     1       3.402  14.246  20.258  0.00  0.00    +0.000 A 
ATOM     29  C   UNL     1       4.030  15.421  20.687  0.00  0.00    +0.000 A 
ATOM     30  C   UNL     1       3.542  16.662  20.283  0.00  0.00    +0.000 A 
ATOM     31 CL   UNL     1       4.325  18.104  20.799  0.00  0.00    +0.000 Cl
ATOM     32  C   UNL     1       2.424  16.743  19.456  0.00  0.00    +0.000 A 
ATOM     33  C   UNL     1       1.799  15.566  19.027  0.00  0.00    +0.000 A 
ENDBRANCH  26  27
ENDBRANCH  10  26
TORSDOF 5
ENDMDL
