MODEL 1
REMARK VINA RESULT:      -8.1      0.000      0.000
REMARK  Name = 
REMARK  5 active torsions:
REMARK  status: ('A' for Active; 'I' for Inactive)
REMARK    1  A    between atoms: C_1  and  C_2
REMARK    2  A    between atoms: C_2  and  O_3
REMARK    3  A    between atoms: C_2  and  C_10
REMARK    4  A    between atoms: O_3  and  C_4
REMARK    5  A    between atoms: C_17  and  C_18
REMARK                            x       y       z     vdW  Elec       q    Type
REMARK                         _______ _______ _______ _____ _____    ______ ____
ROOT
ATOM      1  C   UNL     1       5.002   3.970  18.576  0.00  0.00    +0.000 C 
ATOM      2  O   UNL     1       5.363   3.522  19.671  0.00  0.00    +0.000 OA
ATOM      3  N   UNL     1       5.922   4.618  17.754  0.00  0.00    +0.000 N 
ATOM      4  C   UNL     1       7.334   4.619  18.150  0.00  0.00    +0.000 C 
ATOM      5  C   UNL     1       7.791   6.004  18.599  0.00  0.00    +0.000 C 
ATOM      6  C   UNL     1       7.446   7.076  17.569  0.00  0.00    +0.000 C 
ATOM      7  C   UNL     1       5.978   6.988  17.131  0.00  0.00    +0.000 C 
ATOM      8  C   UNL     1       5.575   5.570  16.679  0.00  0.00    +0.000 C 
ENDROOT
BRANCH   8   9
ATOM      9  C   UNL     1       6.174   5.144  15.364  0.00  0.00    +0.000 A 
ATOM     10  N   UNL     1       5.637   4.148  14.578  0.00  0.00    +0.000 NA
ATOM     11  C   UNL     1       6.474   4.115  13.574  0.00  0.00    +0.000 A 
ATOM     12  O   UNL     1       7.489   5.012  13.674  0.00  0.00    +0.000 OA
ATOM     13  N   UNL     1       7.294   5.694  14.876  0.00  0.00    +0.000 NA
ENDBRANCH   8   9
BRANCH   1  15
ATOM     14  C   UNL     1       3.415   2.177  17.833  0.00  0.00    +0.000 C 
ATOM     15  C   UNL     1       3.555   3.693  18.054  0.00  0.00    +0.000 C 
BRANCH  15  16
ATOM     16  O   UNL     1       2.543   4.125  18.968  0.00  0.00    +0.000 OA
BRANCH  16  17
ATOM     17  C   UNL     1       2.351   5.472  19.122  0.00  0.00    +0.000 A 
ATOM     18  C   UNL     1       2.486   6.450  18.140  0.00  0.00    +0.000 A 
ATOM     19  C   UNL     1       2.212   7.785  18.440  0.00  0.00    +0.000 A 
ATOM     20  C   UNL     1       1.834   8.107  19.730  0.00  0.00    +0.000 A 
ATOM     21  N   UNL     1       1.703   7.196  20.716  0.00  0.00    +0.000 NA
ATOM     22  C   UNL     1       1.951   5.904  20.384  0.00  0.00    +0.000 A 
ENDBRANCH  16  17
ENDBRANCH  15  16
ENDBRANCH   1  15
TORSDOF 4
ENDMDL
MODEL 2
REMARK VINA RESULT:      -7.9      0.602      1.024
REMARK  Name = 
REMARK  5 active torsions:
REMARK  status: ('A' for Active; 'I' for Inactive)
REMARK    1  A    between atoms: C_1  and  C_2
REMARK    2  A    between atoms: C_2  and  O_3
REMARK    3  A    between atoms: C_2  and  C_10
REMARK    4  A    between atoms: O_3  and  C_4
REMARK    5  A    between atoms: C_17  and  C_18
REMARK                            x       y       z     vdW  Elec       q    Type
REMARK                         _______ _______ _______ _____ _____    ______ ____
ROOT
ATOM      1  C   UNL     1       4.999   3.965  18.619  0.00  0.00    +0.000 C 
ATOM      2  O   UNL     1       5.367   3.520  19.713  0.00  0.00    +0.000 OA
ATOM      3  N   UNL     1       5.911   4.614  17.790  0.00  0.00    +0.000 N 
ATOM      4  C   UNL     1       7.326   4.620  18.177  0.00  0.00    +0.000 C 
ATOM      5  C   UNL     1       7.781   6.007  18.621  0.00  0.00    +0.000 C 
ATOM      6  C   UNL     1       7.426   7.077  17.591  0.00  0.00    +0.000 C 
ATOM      7  C   UNL     1       5.956   6.983  17.162  0.00  0.00    +0.000 C 
ATOM      8  C   UNL     1       5.554   5.563  16.716  0.00  0.00    +0.000 C 
ENDROOT
BRANCH   8   9
ATOM      9  C   UNL     1       6.146   5.136  15.397  0.00  0.00    +0.000 A 
ATOM     10  N   UNL     1       5.597   4.150  14.607  0.00  0.00    +0.000 NA
ATOM     11  C   UNL     1       6.432   4.112  13.602  0.00  0.00    +0.000 A 
ATOM     12  O   UNL     1       7.458   4.996  13.705  0.00  0.00    +0.000 OA
ATOM     13  N   UNL     1       7.273   5.675  14.911  0.00  0.00    +0.000 NA
ENDBRANCH   8   9
BRANCH   1  15
ATOM     14  C   UNL     1       3.459   2.189  17.747  0.00  0.00    +0.000 C 
ATOM     15  C   UNL     1       3.549   3.682  18.107  0.00  0.00    +0.000 C 
BRANCH  15  16
ATOM     16  O   UNL     1       2.547   3.988  19.081  0.00  0.00    +0.000 OA
BRANCH  16  17
ATOM     17  C   UNL     1       2.286   5.307  19.340  0.00  0.00    +0.000 A 
ATOM     18  C   UNL     1       1.877   5.852  20.553  0.00  0.00    +0.000 A 
ATOM     19  C   UNL     1       1.693   7.230  20.674  0.00  0.00    +0.000 A 
ATOM     20  C   UNL     1       1.901   8.024  19.562  0.00  0.00    +0.000 A 
ATOM     21  N   UNL     1       2.286   7.539  18.363  0.00  0.00    +0.000 NA
ATOM     22  C   UNL     1       2.482   6.199  18.287  0.00  0.00    +0.000 A 
ENDBRANCH  16  17
ENDBRANCH  15  16
ENDBRANCH   1  15
TORSDOF 4
ENDMDL
MODEL 3
REMARK VINA RESULT:      -7.4      1.801      6.206
REMARK  Name = 
REMARK  5 active torsions:
REMARK  status: ('A' for Active; 'I' for Inactive)
REMARK    1  A    between atoms: C_1  and  C_2
REMARK    2  A    between atoms: C_2  and  O_3
REMARK    3  A    between atoms: C_2  and  C_10
REMARK    4  A    between atoms: O_3  and  C_4
REMARK    5  A    between atoms: C_17  and  C_18
REMARK                            x       y       z     vdW  Elec       q    Type
REMARK                         _______ _______ _______ _____ _____    ______ ____
ROOT
ATOM      1  C   UNL     1       6.474   5.008  17.705  0.00  0.00    +0.000 C 
ATOM      2  O   UNL     1       7.396   4.313  18.149  0.00  0.00    +0.000 OA
ATOM      3  N   UNL     1       5.202   4.915  18.266  0.00  0.00    +0.000 N 
ATOM      4  C   UNL     1       5.028   4.097  19.472  0.00  0.00    +0.000 C 
ATOM      5  C   UNL     1       4.246   2.821  19.177  0.00  0.00    +0.000 C 
ATOM      6  C   UNL     1       2.939   3.113  18.444  0.00  0.00    +0.000 C 
ATOM      7  C   UNL     1       3.162   4.031  17.235  0.00  0.00    +0.000 C 
ATOM      8  C   UNL     1       3.948   5.308  17.593  0.00  0.00    +0.000 C 
ENDROOT
BRANCH   8   9
ATOM      9  C   UNL     1       3.175   6.300  18.423  0.00  0.00    +0.000 A 
ATOM     10  N   UNL     1       2.675   6.009  19.673  0.00  0.00    +0.000 NA
ATOM     11  C   UNL     1       2.083   7.130  19.995  0.00  0.00    +0.000 A 
ATOM     12  O   UNL     1       2.175   8.094  19.043  0.00  0.00    +0.000 OA
ATOM     13  N   UNL     1       2.898   7.536  17.986  0.00  0.00    +0.000 NA
ENDBRANCH   8   9
BRANCH   1  15
ATOM     14  C   UNL     1       7.392   7.306  17.304  0.00  0.00    +0.000 C 
ATOM     15  C   UNL     1       6.763   6.086  16.610  0.00  0.00    +0.000 C 
BRANCH  15  16
ATOM     16  O   UNL     1       7.653   5.619  15.592  0.00  0.00    +0.000 OA
BRANCH  16  17
ATOM     17  C   UNL     1       7.115   4.932  14.537  0.00  0.00    +0.000 A 
ATOM     18  C   UNL     1       5.978   4.128  14.559  0.00  0.00    +0.000 A 
ATOM     19  C   UNL     1       5.526   3.525  13.385  0.00  0.00    +0.000 A 
ATOM     20  C   UNL     1       6.245   3.723  12.221  0.00  0.00    +0.000 A 
ATOM     21  N   UNL     1       7.358   4.482  12.155  0.00  0.00    +0.000 NA
ATOM     22  C   UNL     1       7.755   5.076  13.309  0.00  0.00    +0.000 A 
ENDBRANCH  16  17
ENDBRANCH  15  16
ENDBRANCH   1  15
TORSDOF 4
ENDMDL
MODEL 4
REMARK VINA RESULT:      -7.4      0.884      1.331
REMARK  Name = 
REMARK  5 active torsions:
REMARK  status: ('A' for Active; 'I' for Inactive)
REMARK    1  A    between atoms: C_1  and  C_2
REMARK    2  A    between atoms: C_2  and  O_3
REMARK    3  A    between atoms: C_2  and  C_10
REMARK    4  A    between atoms: O_3  and  C_4
REMARK    5  A    between atoms: C_17  and  C_18
REMARK                            x       y       z     vdW  Elec       q    Type
REMARK                         _______ _______ _______ _____ _____    ______ ____
ROOT
ATOM      1  C   UNL     1       4.882   3.653  18.074  0.00  0.00    +0.000 C 
ATOM      2  O   UNL     1       5.189   3.274  19.211  0.00  0.00    +0.000 OA
ATOM      3  N   UNL     1       5.760   4.456  17.348  0.00  0.00    +0.000 N 
ATOM      4  C   UNL     1       7.095   4.708  17.901  0.00  0.00    +0.000 C 
ATOM      5  C   UNL     1       7.244   6.151  18.372  0.00  0.00    +0.000 C 
ATOM      6  C   UNL     1       6.834   7.146  17.289  0.00  0.00    +0.000 C 
ATOM      7  C   UNL     1       5.465   6.798  16.692  0.00  0.00    +0.000 C 
ATOM      8  C   UNL     1       5.374   5.332  16.224  0.00  0.00    +0.000 C 
ENDROOT
BRANCH   8   9
ATOM      9  C   UNL     1       6.185   5.022  14.992  0.00  0.00    +0.000 A 
ATOM     10  N   UNL     1       5.798   4.096  14.048  0.00  0.00    +0.000 NA
ATOM     11  C   UNL     1       6.787   4.150  13.195  0.00  0.00    +0.000 A 
ATOM     12  O   UNL     1       7.758   5.037  13.533  0.00  0.00    +0.000 OA
ATOM     13  N   UNL     1       7.360   5.614  14.742  0.00  0.00    +0.000 NA
ENDBRANCH   8   9
BRANCH   1  15
ATOM     14  C   UNL     1       3.084   1.911  18.208  0.00  0.00    +0.000 C 
ATOM     15  C   UNL     1       3.576   3.122  17.398  0.00  0.00    +0.000 C 
BRANCH  15  16
ATOM     16  O   UNL     1       2.537   4.104  17.351  0.00  0.00    +0.000 OA
BRANCH  16  17
ATOM     17  C   UNL     1       2.233   4.772  18.507  0.00  0.00    +0.000 A 
ATOM     18  C   UNL     1       1.645   4.235  19.649  0.00  0.00    +0.000 A 
ATOM     19  C   UNL     1       1.437   5.038  20.771  0.00  0.00    +0.000 A 
ATOM     20  C   UNL     1       1.803   6.370  20.708  0.00  0.00    +0.000 A 
ATOM     21  N   UNL     1       2.364   6.936  19.619  0.00  0.00    +0.000 NA
ATOM     22  C   UNL     1       2.577   6.121  18.555  0.00  0.00    +0.000 A 
ENDBRANCH  16  17
ENDBRANCH  15  16
ENDBRANCH   1  15
TORSDOF 4
ENDMDL
MODEL 5
REMARK VINA RESULT:      -7.4      1.431      1.795
REMARK  Name = 
REMARK  5 active torsions:
REMARK  status: ('A' for Active; 'I' for Inactive)
REMARK    1  A    between atoms: C_1  and  C_2
REMARK    2  A    between atoms: C_2  and  O_3
REMARK    3  A    between atoms: C_2  and  C_10
REMARK    4  A    between atoms: O_3  and  C_4
REMARK    5  A    between atoms: C_17  and  C_18
REMARK                            x       y       z     vdW  Elec       q    Type
REMARK                         _______ _______ _______ _____ _____    ______ ____
ROOT
ATOM      1  C   UNL     1       4.283   5.458  18.988  0.00  0.00    +0.000 C 
ATOM      2  O   UNL     1       4.312   5.031  20.148  0.00  0.00    +0.000 OA
ATOM      3  N   UNL     1       5.448   5.479  18.226  0.00  0.00    +0.000 N 
ATOM      4  C   UNL     1       6.655   4.851  18.776  0.00  0.00    +0.000 C 
ATOM      5  C   UNL     1       7.702   5.891  19.163  0.00  0.00    +0.000 C 
ATOM      6  C   UNL     1       7.987   6.861  18.019  0.00  0.00    +0.000 C 
ATOM      7  C   UNL     1       6.692   7.434  17.428  0.00  0.00    +0.000 C 
ATOM      8  C   UNL     1       5.675   6.340  17.047  0.00  0.00    +0.000 C 
ENDROOT
BRANCH   8   9
ATOM      9  C   UNL     1       6.067   5.520  15.845  0.00  0.00    +0.000 A 
ATOM     10  N   UNL     1       5.284   4.507  15.336  0.00  0.00    +0.000 NA
ATOM     11  C   UNL     1       6.010   4.082  14.335  0.00  0.00    +0.000 A 
ATOM     12  O   UNL     1       7.182   4.751  14.181  0.00  0.00    +0.000 OA
ATOM     13  N   UNL     1       7.225   5.707  15.198  0.00  0.00    +0.000 NA
ENDBRANCH   8   9
BRANCH   1  15
ATOM     14  C   UNL     1       2.234   4.551  17.864  0.00  0.00    +0.000 C 
ATOM     15  C   UNL     1       2.918   5.847  18.332  0.00  0.00    +0.000 C 
BRANCH  15  16
ATOM     16  O   UNL     1       2.046   6.536  19.231  0.00  0.00    +0.000 OA
BRANCH  16  17
ATOM     17  C   UNL     1       1.866   7.881  19.045  0.00  0.00    +0.000 A 
ATOM     18  C   UNL     1       2.172   8.611  17.900  0.00  0.00    +0.000 A 
ATOM     19  C   UNL     1       1.888   9.976  17.844  0.00  0.00    +0.000 A 
ATOM     20  C   UNL     1       1.326  10.579  18.954  0.00  0.00    +0.000 A 
ATOM     21  N   UNL     1       1.023   9.915  20.088  0.00  0.00    +0.000 NA
ATOM     22  C   UNL     1       1.287   8.584  20.099  0.00  0.00    +0.000 A 
ENDBRANCH  16  17
ENDBRANCH  15  16
ENDBRANCH   1  15
TORSDOF 4
ENDMDL
MODEL 6
REMARK VINA RESULT:      -7.3      0.953      1.105
REMARK  Name = 
REMARK  5 active torsions:
REMARK  status: ('A' for Active; 'I' for Inactive)
REMARK    1  A    between atoms: C_1  and  C_2
REMARK    2  A    between atoms: C_2  and  O_3
REMARK    3  A    between atoms: C_2  and  C_10
REMARK    4  A    between atoms: O_3  and  C_4
REMARK    5  A    between atoms: C_17  and  C_18
REMARK                            x       y       z     vdW  Elec       q    Type
REMARK                         _______ _______ _______ _____ _____    ______ ____
ROOT
ATOM      1  C   UNL     1       4.848   3.647  18.078  0.00  0.00    +0.000 C 
ATOM      2  O   UNL     1       5.154   3.290  19.222  0.00  0.00    +0.000 OA
ATOM      3  N   UNL     1       5.716   4.456  17.347  0.00  0.00    +0.000 N 
ATOM      4  C   UNL     1       7.042   4.741  17.905  0.00  0.00    +0.000 C 
ATOM      5  C   UNL     1       7.162   6.193  18.357  0.00  0.00    +0.000 C 
ATOM      6  C   UNL     1       6.741   7.165  17.258  0.00  0.00    +0.000 C 
ATOM      7  C   UNL     1       5.383   6.783  16.656  0.00  0.00    +0.000 C 
ATOM      8  C   UNL     1       5.321   5.310  16.208  0.00  0.00    +0.000 C 
ENDROOT
BRANCH   8   9
ATOM      9  C   UNL     1       6.146   4.998  14.986  0.00  0.00    +0.000 A 
ATOM     10  N   UNL     1       5.766   4.076  14.035  0.00  0.00    +0.000 NA
ATOM     11  C   UNL     1       6.767   4.127  13.195  0.00  0.00    +0.000 A 
ATOM     12  O   UNL     1       7.739   5.007  13.548  0.00  0.00    +0.000 OA
ATOM     13  N   UNL     1       7.329   5.583  14.753  0.00  0.00    +0.000 NA
ENDBRANCH   8   9
BRANCH   1  15
ATOM     14  C   UNL     1       3.101   1.854  18.205  0.00  0.00    +0.000 C 
ATOM     15  C   UNL     1       3.556   3.083  17.402  0.00  0.00    +0.000 C 
BRANCH  15  16
ATOM     16  O   UNL     1       2.489   4.035  17.362  0.00  0.00    +0.000 OA
BRANCH  16  17
ATOM     17  C   UNL     1       2.273   4.802  18.475  0.00  0.00    +0.000 A 
ATOM     18  C   UNL     1       2.654   6.128  18.660  0.00  0.00    +0.000 A 
ATOM     19  C   UNL     1       2.321   6.793  19.841  0.00  0.00    +0.000 A 
ATOM     20  C   UNL     1       1.634   6.099  20.819  0.00  0.00    +0.000 A 
ATOM     21  N   UNL     1       1.255   4.811  20.689  0.00  0.00    +0.000 NA
ATOM     22  C   UNL     1       1.571   4.202  19.518  0.00  0.00    +0.000 A 
ENDBRANCH  16  17
ENDBRANCH  15  16
ENDBRANCH   1  15
TORSDOF 4
ENDMDL
MODEL 7
REMARK VINA RESULT:      -7.2      1.664      2.283
REMARK  Name = 
REMARK  5 active torsions:
REMARK  status: ('A' for Active; 'I' for Inactive)
REMARK    1  A    between atoms: C_1  and  C_2
REMARK    2  A    between atoms: C_2  and  O_3
REMARK    3  A    between atoms: C_2  and  C_10
REMARK    4  A    between atoms: O_3  and  C_4
REMARK    5  A    between atoms: C_17  and  C_18
REMARK                            x       y       z     vdW  Elec       q    Type
REMARK                         _______ _______ _______ _____ _____    ______ ____
ROOT
ATOM      1  C   UNL     1       4.188   5.529  19.019  0.00  0.00    +0.000 C 
ATOM      2  O   UNL     1       4.197   5.108  20.182  0.00  0.00    +0.000 OA
ATOM      3  N   UNL     1       5.352   5.486  18.255  0.00  0.00    +0.000 N 
ATOM      4  C   UNL     1       6.525   4.801  18.807  0.00  0.00    +0.000 C 
ATOM      5  C   UNL     1       7.625   5.788  19.186  0.00  0.00    +0.000 C 
ATOM      6  C   UNL     1       7.957   6.736  18.037  0.00  0.00    +0.000 C 
ATOM      7  C   UNL     1       6.692   7.370  17.445  0.00  0.00    +0.000 C 
ATOM      8  C   UNL     1       5.620   6.328  17.071  0.00  0.00    +0.000 C 
ENDROOT
BRANCH   8   9
ATOM      9  C   UNL     1       5.967   5.483  15.873  0.00  0.00    +0.000 A 
ATOM     10  N   UNL     1       7.097   5.683  15.110  0.00  0.00    +0.000 NA
ATOM     11  C   UNL     1       6.977   4.754  14.199  0.00  0.00    +0.000 A 
ATOM     12  O   UNL     1       5.861   3.991  14.334  0.00  0.00    +0.000 OA
ATOM     13  N   UNL     1       5.180   4.485  15.448  0.00  0.00    +0.000 NA
ENDBRANCH   8   9
BRANCH   1  15
ATOM     14  C   UNL     1       2.141   4.731  17.812  0.00  0.00    +0.000 C 
ATOM     15  C   UNL     1       2.843   5.983  18.362  0.00  0.00    +0.000 C 
BRANCH  15  16
ATOM     16  O   UNL     1       1.970   6.641  19.284  0.00  0.00    +0.000 OA
BRANCH  16  17
ATOM     17  C   UNL     1       1.744   7.980  19.109  0.00  0.00    +0.000 A 
ATOM     18  C   UNL     1       1.149   8.850  20.018  0.00  0.00    +0.000 A 
ATOM     19  C   UNL     1       1.027  10.206  19.712  0.00  0.00    +0.000 A 
ATOM     20  C   UNL     1       1.485  10.650  18.485  0.00  0.00    +0.000 A 
ATOM     21  N   UNL     1       2.057   9.842  17.568  0.00  0.00    +0.000 NA
ATOM     22  C   UNL     1       2.184   8.534  17.908  0.00  0.00    +0.000 A 
ENDBRANCH  16  17
ENDBRANCH  15  16
ENDBRANCH   1  15
TORSDOF 4
ENDMDL
MODEL 8
REMARK VINA RESULT:      -7.1      2.320      4.166
REMARK  Name = 
REMARK  5 active torsions:
REMARK  status: ('A' for Active; 'I' for Inactive)
REMARK    1  A    between atoms: C_1  and  C_2
REMARK    2  A    between atoms: C_2  and  O_3
REMARK    3  A    between atoms: C_2  and  C_10
REMARK    4  A    between atoms: O_3  and  C_4
REMARK    5  A    between atoms: C_17  and  C_18
REMARK                            x       y       z     vdW  Elec       q    Type
REMARK                         _______ _______ _______ _____ _____    ______ ____
ROOT
ATOM      1  C   UNL     1       3.389   6.919  17.742  0.00  0.00    +0.000 C 
ATOM      2  O   UNL     1       2.951   7.828  17.026  0.00  0.00    +0.000 OA
ATOM      3  N   UNL     1       4.562   6.258  17.385  0.00  0.00    +0.000 N 
ATOM      4  C   UNL     1       5.328   6.762  16.240  0.00  0.00    +0.000 C 
ATOM      5  C   UNL     1       5.239   5.818  15.045  0.00  0.00    +0.000 C 
ATOM      6  C   UNL     1       5.590   4.383  15.429  0.00  0.00    +0.000 C 
ATOM      7  C   UNL     1       4.820   3.927  16.674  0.00  0.00    +0.000 C 
ATOM      8  C   UNL     1       4.952   4.912  17.852  0.00  0.00    +0.000 C 
ENDROOT
BRANCH   8   9
ATOM      9  C   UNL     1       6.316   4.935  18.492  0.00  0.00    +0.000 A 
ATOM     10  N   UNL     1       6.562   5.502  19.723  0.00  0.00    +0.000 NA
ATOM     11  C   UNL     1       7.848   5.307  19.859  0.00  0.00    +0.000 A 
ATOM     12  O   UNL     1       8.421   4.663  18.809  0.00  0.00    +0.000 OA
ATOM     13  N   UNL     1       7.398   4.423  17.889  0.00  0.00    +0.000 NA
ENDBRANCH   8   9
BRANCH   1  15
ATOM     14  C   UNL     1       2.132   7.918  19.667  0.00  0.00    +0.000 C 
ATOM     15  C   UNL     1       2.706   6.604  19.112  0.00  0.00    +0.000 C 
BRANCH  15  16
ATOM     16  O   UNL     1       1.650   5.646  18.999  0.00  0.00    +0.000 OA
BRANCH  16  17
ATOM     17  C   UNL     1       1.751   4.491  19.727  0.00  0.00    +0.000 A 
ATOM     18  C   UNL     1       1.555   3.193  19.263  0.00  0.00    +0.000 A 
ATOM     19  C   UNL     1       1.739   2.108  20.121  0.00  0.00    +0.000 A 
ATOM     20  C   UNL     1       2.090   2.357  21.435  0.00  0.00    +0.000 A 
ATOM     21  N   UNL     1       2.278   3.597  21.932  0.00  0.00    +0.000 NA
ATOM     22  C   UNL     1       2.118   4.628  21.064  0.00  0.00    +0.000 A 
ENDBRANCH  16  17
ENDBRANCH  15  16
ENDBRANCH   1  15
TORSDOF 4
ENDMDL
MODEL 9
REMARK VINA RESULT:      -7.1      3.182      5.813
REMARK  Name = 
REMARK  5 active torsions:
REMARK  status: ('A' for Active; 'I' for Inactive)
REMARK    1  A    between atoms: C_1  and  C_2
REMARK    2  A    between atoms: C_2  and  O_3
REMARK    3  A    between atoms: C_2  and  C_10
REMARK    4  A    between atoms: O_3  and  C_4
REMARK    5  A    between atoms: C_17  and  C_18
REMARK                            x       y       z     vdW  Elec       q    Type
REMARK                         _______ _______ _______ _____ _____    ______ ____
ROOT
ATOM      1  C   UNL     1       3.112   6.838  18.180  0.00  0.00    +0.000 C 
ATOM      2  O   UNL     1       4.120   7.299  17.631  0.00  0.00    +0.000 OA
ATOM      3  N   UNL     1       3.053   5.483  18.497  0.00  0.00    +0.000 N 
ATOM      4  C   UNL     1       4.256   4.666  18.303  0.00  0.00    +0.000 C 
ATOM      5  C   UNL     1       4.096   3.700  17.134  0.00  0.00    +0.000 C 
ATOM      6  C   UNL     1       2.814   2.879  17.248  0.00  0.00    +0.000 C 
ATOM      7  C   UNL     1       1.596   3.770  17.523  0.00  0.00    +0.000 C 
ATOM      8  C   UNL     1       1.809   4.718  18.720  0.00  0.00    +0.000 C 
ENDROOT
BRANCH   8   9
ATOM      9  C   UNL     1       1.828   4.030  20.061  0.00  0.00    +0.000 A 
ATOM     10  N   UNL     1       1.166   2.849  20.312  0.00  0.00    +0.000 NA
ATOM     11  C   UNL     1       1.445   2.645  21.573  0.00  0.00    +0.000 A 
ATOM     12  O   UNL     1       2.228   3.607  22.126  0.00  0.00    +0.000 OA
ATOM     13  N   UNL     1       2.477   4.540  21.117  0.00  0.00    +0.000 NA
ENDBRANCH   8   9
BRANCH   1  15
ATOM     14  C   UNL     1       1.966   7.829  20.177  0.00  0.00    +0.000 C 
ATOM     15  C   UNL     1       1.964   7.794  18.640  0.00  0.00    +0.000 C 
BRANCH  15  16
ATOM     16  O   UNL     1       2.119   9.127  18.144  0.00  0.00    +0.000 OA
BRANCH  16  17
ATOM     17  C   UNL     1       1.057   9.983  18.262  0.00  0.00    +0.000 A 
ATOM     18  C   UNL     1      -0.269   9.715  17.929  0.00  0.00    +0.000 A 
ATOM     19  C   UNL     1      -1.252  10.680  18.149  0.00  0.00    +0.000 A 
ATOM     20  C   UNL     1      -0.874  11.902  18.675  0.00  0.00    +0.000 A 
ATOM     21  N   UNL     1       0.399  12.209  19.000  0.00  0.00    +0.000 NA
ATOM     22  C   UNL     1       1.326  11.240  18.798  0.00  0.00    +0.000 A 
ENDBRANCH  16  17
ENDBRANCH  15  16
ENDBRANCH   1  15
TORSDOF 4
ENDMDL
