MODEL 1
REMARK VINA RESULT:      -6.6      0.000      0.000
REMARK  Name = 
REMARK  5 active torsions:
REMARK  status: ('A' for Active; 'I' for Inactive)
REMARK    1  A    between atoms: C_1  and  C_2
REMARK    2  A    between atoms: C_7  and  C_8
REMARK    3  A    between atoms: C_8  and  C_9
REMARK    4  A    between atoms: C_9  and  C_10
REMARK    5  A    between atoms: C_9  and  C_11
REMARK                            x       y       z     vdW  Elec       q    Type
REMARK                         _______ _______ _______ _____ _____    ______ ____
ROOT
ATOM      1  C   UNL     1       3.719   4.885  17.132  0.00  0.00    +0.000 C 
ENDROOT
BRANCH   1   8
ATOM      2  C   UNL     1       2.639   6.341  19.587  0.00  0.00    +0.000 C 
ATOM      3  C   UNL     1       2.220   4.939  19.233  0.00  0.00    +0.000 A 
ATOM      4  C   UNL     1       1.312   4.285  20.088  0.00  0.00    +0.000 A 
ATOM      5  C   UNL     1       0.865   2.994  19.809  0.00  0.00    +0.000 A 
ATOM      6  C   UNL     1       1.326   2.336  18.677  0.00  0.00    +0.000 A 
ATOM      7  C   UNL     1       2.243   2.962  17.833  0.00  0.00    +0.000 A 
ATOM      8  C   UNL     1       2.702   4.268  18.088  0.00  0.00    +0.000 A 
ENDBRANCH   1   8
BRANCH   1   9
ATOM      9  C   UNL     1       5.092   4.184  17.129  0.00  0.00    +0.000 C 
ATOM     10  C   UNL     1       5.542   3.798  15.720  0.00  0.00    +0.000 C 
BRANCH   9  11
ATOM     11  C   UNL     1       6.187   5.045  17.732  0.00  0.00    +0.000 C 
ATOM     12  N   UNL     1       6.373   6.300  17.406  0.00  0.00    +0.000 NA
ATOM     13  C   UNL     1       7.595   6.698  18.169  0.00  0.00    +0.000 C 
ATOM     14  C   UNL     1       7.852   5.589  19.194  0.00  0.00    +0.000 C 
ATOM     15  N   UNL     1       7.081   4.512  18.628  0.00  0.00    +0.000 N 
ATOM     16  H   UNL     1       6.764   3.761  19.229  0.00  0.00    +0.000 HD
ENDBRANCH   9  11
ENDBRANCH   1   9
TORSDOF 3
ENDMDL
MODEL 2
REMARK VINA RESULT:      -6.6      0.151      1.007
REMARK  Name = 
REMARK  5 active torsions:
REMARK  status: ('A' for Active; 'I' for Inactive)
REMARK    1  A    between atoms: C_1  and  C_2
REMARK    2  A    between atoms: C_7  and  C_8
REMARK    3  A    between atoms: C_8  and  C_9
REMARK    4  A    between atoms: C_9  and  C_10
REMARK    5  A    between atoms: C_9  and  C_11
REMARK                            x       y       z     vdW  Elec       q    Type
REMARK                         _______ _______ _______ _____ _____    ______ ____
ROOT
ATOM      1  C   UNL     1       3.794   4.808  17.085  0.00  0.00    +0.000 C 
ENDROOT
BRANCH   1   8
ATOM      2  C   UNL     1       2.802   6.346  19.527  0.00  0.00    +0.000 C 
ATOM      3  C   UNL     1       2.326   4.954  19.204  0.00  0.00    +0.000 A 
ATOM      4  C   UNL     1       1.407   4.349  20.082  0.00  0.00    +0.000 A 
ATOM      5  C   UNL     1       0.910   3.071  19.832  0.00  0.00    +0.000 A 
ATOM      6  C   UNL     1       1.330   2.377  18.706  0.00  0.00    +0.000 A 
ATOM      7  C   UNL     1       2.258   2.954  17.839  0.00  0.00    +0.000 A 
ATOM      8  C   UNL     1       2.768   4.246  18.064  0.00  0.00    +0.000 A 
ENDBRANCH   1   8
BRANCH   1   9
ATOM      9  C   UNL     1       5.176   4.131  17.155  0.00  0.00    +0.000 C 
ATOM     10  C   UNL     1       5.706   3.749  15.773  0.00  0.00    +0.000 C 
BRANCH   9  11
ATOM     11  C   UNL     1       6.224   5.011  17.813  0.00  0.00    +0.000 C 
ATOM     12  N   UNL     1       6.926   4.634  18.852  0.00  0.00    +0.000 NA
ATOM     13  C   UNL     1       7.742   5.838  19.198  0.00  0.00    +0.000 C 
ATOM     14  C   UNL     1       7.624   6.802  18.013  0.00  0.00    +0.000 C 
ATOM     15  N   UNL     1       6.444   6.290  17.362  0.00  0.00    +0.000 N 
ATOM     16  H   UNL     1       6.299   6.481  16.380  0.00  0.00    +0.000 HD
ENDBRANCH   9  11
ENDBRANCH   1   9
TORSDOF 3
ENDMDL
MODEL 3
REMARK VINA RESULT:      -6.5      1.586      2.199
REMARK  Name = 
REMARK  5 active torsions:
REMARK  status: ('A' for Active; 'I' for Inactive)
REMARK    1  A    between atoms: C_1  and  C_2
REMARK    2  A    between atoms: C_7  and  C_8
REMARK    3  A    between atoms: C_8  and  C_9
REMARK    4  A    between atoms: C_9  and  C_10
REMARK    5  A    between atoms: C_9  and  C_11
REMARK                            x       y       z     vdW  Elec       q    Type
REMARK                         _______ _______ _______ _____ _____    ______ ____
ROOT
ATOM      1  C   UNL     1       3.124   6.105  17.881  0.00  0.00    +0.000 C 
ENDROOT
BRANCH   1   8
ATOM      2  C   UNL     1       1.842   6.378  20.636  0.00  0.00    +0.000 C 
ATOM      3  C   UNL     1       1.757   5.109  19.831  0.00  0.00    +0.000 A 
ATOM      4  C   UNL     1       1.074   4.013  20.393  0.00  0.00    +0.000 A 
ATOM      5  C   UNL     1       0.939   2.816  19.694  0.00  0.00    +0.000 A 
ATOM      6  C   UNL     1       1.491   2.693  18.426  0.00  0.00    +0.000 A 
ATOM      7  C   UNL     1       2.190   3.762  17.864  0.00  0.00    +0.000 A 
ATOM      8  C   UNL     1       2.332   4.985  18.547  0.00  0.00    +0.000 A 
ENDBRANCH   1   8
BRANCH   1   9
ATOM      9  C   UNL     1       4.654   5.959  18.000  0.00  0.00    +0.000 C 
ATOM     10  C   UNL     1       5.061   5.065  19.172  0.00  0.00    +0.000 C 
BRANCH   9  11
ATOM     11  C   UNL     1       5.282   5.374  16.748  0.00  0.00    +0.000 C 
ATOM     12  N   UNL     1       5.433   6.054  15.638  0.00  0.00    +0.000 NA
ATOM     13  C   UNL     1       5.997   5.060  14.675  0.00  0.00    +0.000 C 
ATOM     14  C   UNL     1       6.432   3.846  15.503  0.00  0.00    +0.000 C 
ATOM     15  N   UNL     1       5.681   4.061  16.714  0.00  0.00    +0.000 N 
ATOM     16  H   UNL     1       6.000   3.636  17.575  0.00  0.00    +0.000 HD
ENDBRANCH   9  11
ENDBRANCH   1   9
TORSDOF 3
ENDMDL
MODEL 4
REMARK VINA RESULT:      -6.4      0.591      1.846
REMARK  Name = 
REMARK  5 active torsions:
REMARK  status: ('A' for Active; 'I' for Inactive)
REMARK    1  A    between atoms: C_1  and  C_2
REMARK    2  A    between atoms: C_7  and  C_8
REMARK    3  A    between atoms: C_8  and  C_9
REMARK    4  A    between atoms: C_9  and  C_10
REMARK    5  A    between atoms: C_9  and  C_11
REMARK                            x       y       z     vdW  Elec       q    Type
REMARK                         _______ _______ _______ _____ _____    ______ ____
ROOT
ATOM      1  C   UNL     1       3.805   4.879  17.111  0.00  0.00    +0.000 C 
ENDROOT
BRANCH   1   8
ATOM      2  C   UNL     1       2.362   2.247  17.659  0.00  0.00    +0.000 C 
ATOM      3  C   UNL     1       2.250   3.433  18.580  0.00  0.00    +0.000 A 
ATOM      4  C   UNL     1       1.430   3.312  19.718  0.00  0.00    +0.000 A 
ATOM      5  C   UNL     1       1.299   4.363  20.624  0.00  0.00    +0.000 A 
ATOM      6  C   UNL     1       1.978   5.553  20.400  0.00  0.00    +0.000 A 
ATOM      7  C   UNL     1       2.775   5.697  19.265  0.00  0.00    +0.000 A 
ATOM      8  C   UNL     1       2.932   4.647  18.340  0.00  0.00    +0.000 A 
ENDBRANCH   1   8
BRANCH   1   9
ATOM      9  C   UNL     1       5.194   4.215  17.185  0.00  0.00    +0.000 C 
ATOM     10  C   UNL     1       5.690   3.754  15.814  0.00  0.00    +0.000 C 
BRANCH   9  11
ATOM     11  C   UNL     1       6.252   5.140  17.759  0.00  0.00    +0.000 C 
ATOM     12  N   UNL     1       6.462   6.353  17.312  0.00  0.00    +0.000 NA
ATOM     13  C   UNL     1       7.635   6.836  18.103  0.00  0.00    +0.000 C 
ATOM     14  C   UNL     1       7.823   5.845  19.256  0.00  0.00    +0.000 C 
ATOM     15  N   UNL     1       7.086   4.710  18.762  0.00  0.00    +0.000 N 
ATOM     16  H   UNL     1       6.730   4.028  19.420  0.00  0.00    +0.000 HD
ENDBRANCH   9  11
ENDBRANCH   1   9
TORSDOF 3
ENDMDL
MODEL 5
REMARK VINA RESULT:      -6.4      1.173      1.481
REMARK  Name = 
REMARK  5 active torsions:
REMARK  status: ('A' for Active; 'I' for Inactive)
REMARK    1  A    between atoms: C_1  and  C_2
REMARK    2  A    between atoms: C_7  and  C_8
REMARK    3  A    between atoms: C_8  and  C_9
REMARK    4  A    between atoms: C_9  and  C_10
REMARK    5  A    between atoms: C_9  and  C_11
REMARK                            x       y       z     vdW  Elec       q    Type
REMARK                         _______ _______ _______ _____ _____    ______ ____
ROOT
ATOM      1  C   UNL     1       4.735   4.494  15.966  0.00  0.00    +0.000 C 
ENDROOT
BRANCH   1   8
ATOM      2  C   UNL     1       3.595   6.661  17.788  0.00  0.00    +0.000 C 
ATOM      3  C   UNL     1       3.474   5.194  18.108  0.00  0.00    +0.000 A 
ATOM      4  C   UNL     1       2.827   4.829  19.304  0.00  0.00    +0.000 A 
ATOM      5  C   UNL     1       2.661   3.490  19.650  0.00  0.00    +0.000 A 
ATOM      6  C   UNL     1       3.147   2.496  18.812  0.00  0.00    +0.000 A 
ATOM      7  C   UNL     1       3.811   2.842  17.635  0.00  0.00    +0.000 A 
ATOM      8  C   UNL     1       3.983   4.188  17.258  0.00  0.00    +0.000 A 
ENDBRANCH   1   8
BRANCH   1   9
ATOM      9  C   UNL     1       6.260   4.292  16.057  0.00  0.00    +0.000 C 
ATOM     10  C   UNL     1       6.958   4.540  14.720  0.00  0.00    +0.000 C 
BRANCH   9  11
ATOM     11  C   UNL     1       6.909   5.205  17.081  0.00  0.00    +0.000 C 
ATOM     12  N   UNL     1       7.081   6.489  16.889  0.00  0.00    +0.000 NA
ATOM     13  C   UNL     1       7.827   6.943  18.101  0.00  0.00    +0.000 C 
ATOM     14  C   UNL     1       7.750   5.799  19.117  0.00  0.00    +0.000 C 
ATOM     15  N   UNL     1       7.401   4.696  18.258  0.00  0.00    +0.000 N 
ATOM     16  H   UNL     1       6.944   3.885  18.655  0.00  0.00    +0.000 HD
ENDBRANCH   9  11
ENDBRANCH   1   9
TORSDOF 3
ENDMDL
MODEL 6
REMARK VINA RESULT:      -6.4      1.786      2.736
REMARK  Name = 
REMARK  5 active torsions:
REMARK  status: ('A' for Active; 'I' for Inactive)
REMARK    1  A    between atoms: C_1  and  C_2
REMARK    2  A    between atoms: C_7  and  C_8
REMARK    3  A    between atoms: C_8  and  C_9
REMARK    4  A    between atoms: C_9  and  C_10
REMARK    5  A    between atoms: C_9  and  C_11
REMARK                            x       y       z     vdW  Elec       q    Type
REMARK                         _______ _______ _______ _____ _____    ______ ____
ROOT
ATOM      1  C   UNL     1       4.240   3.160  18.125  0.00  0.00    +0.000 C 
ENDROOT
BRANCH   1   8
ATOM      2  C   UNL     1       1.453   4.318  17.674  0.00  0.00    +0.000 C 
ATOM      3  C   UNL     1       1.879   3.736  18.996  0.00  0.00    +0.000 A 
ATOM      4  C   UNL     1       0.952   3.753  20.056  0.00  0.00    +0.000 A 
ATOM      5  C   UNL     1       1.273   3.211  21.299  0.00  0.00    +0.000 A 
ATOM      6  C   UNL     1       2.527   2.652  21.504  0.00  0.00    +0.000 A 
ATOM      7  C   UNL     1       3.464   2.649  20.471  0.00  0.00    +0.000 A 
ATOM      8  C   UNL     1       3.161   3.181  19.203  0.00  0.00    +0.000 A 
ENDBRANCH   1   8
BRANCH   1   9
ATOM      9  C   UNL     1       4.897   4.529  17.858  0.00  0.00    +0.000 C 
ATOM     10  C   UNL     1       5.854   4.941  18.976  0.00  0.00    +0.000 C 
BRANCH   9  11
ATOM     11  C   UNL     1       5.682   4.555  16.559  0.00  0.00    +0.000 C 
ATOM     12  N   UNL     1       6.911   5.001  16.474  0.00  0.00    +0.000 NA
ATOM     13  C   UNL     1       7.229   4.919  15.016  0.00  0.00    +0.000 C 
ATOM     14  C   UNL     1       6.127   4.069  14.375  0.00  0.00    +0.000 C 
ATOM     15  N   UNL     1       5.101   4.149  15.383  0.00  0.00    +0.000 N 
ATOM     16  H   UNL     1       4.392   3.428  15.425  0.00  0.00    +0.000 HD
ENDBRANCH   9  11
ENDBRANCH   1   9
TORSDOF 3
ENDMDL
MODEL 7
REMARK VINA RESULT:      -6.4      0.609      2.110
REMARK  Name = 
REMARK  5 active torsions:
REMARK  status: ('A' for Active; 'I' for Inactive)
REMARK    1  A    between atoms: C_1  and  C_2
REMARK    2  A    between atoms: C_7  and  C_8
REMARK    3  A    between atoms: C_8  and  C_9
REMARK    4  A    between atoms: C_9  and  C_10
REMARK    5  A    between atoms: C_9  and  C_11
REMARK                            x       y       z     vdW  Elec       q    Type
REMARK                         _______ _______ _______ _____ _____    ______ ____
ROOT
ATOM      1  C   UNL     1       3.798   4.789  16.980  0.00  0.00    +0.000 C 
ENDROOT
BRANCH   1   8
ATOM      2  C   UNL     1       2.315   2.224  17.710  0.00  0.00    +0.000 C 
ATOM      3  C   UNL     1       2.250   3.463  18.564  0.00  0.00    +0.000 A 
ATOM      4  C   UNL     1       1.456   3.424  19.727  0.00  0.00    +0.000 A 
ATOM      5  C   UNL     1       1.369   4.527  20.574  0.00  0.00    +0.000 A 
ATOM      6  C   UNL     1       2.066   5.687  20.267  0.00  0.00    +0.000 A 
ATOM      7  C   UNL     1       2.838   5.749  19.107  0.00  0.00    +0.000 A 
ATOM      8  C   UNL     1       2.951   4.645  18.240  0.00  0.00    +0.000 A 
ENDBRANCH   1   8
BRANCH   1   9
ATOM      9  C   UNL     1       5.190   4.133  17.073  0.00  0.00    +0.000 C 
ATOM     10  C   UNL     1       5.749   3.763  15.699  0.00  0.00    +0.000 C 
BRANCH   9  11
ATOM     11  C   UNL     1       6.212   5.028  17.750  0.00  0.00    +0.000 C 
ATOM     12  N   UNL     1       6.922   4.649  18.784  0.00  0.00    +0.000 NA
ATOM     13  C   UNL     1       7.705   5.867  19.155  0.00  0.00    +0.000 C 
ATOM     14  C   UNL     1       7.564   6.850  17.988  0.00  0.00    +0.000 C 
ATOM     15  N   UNL     1       6.400   6.319  17.325  0.00  0.00    +0.000 N 
ATOM     16  H   UNL     1       6.252   6.526  16.345  0.00  0.00    +0.000 HD
ENDBRANCH   9  11
ENDBRANCH   1   9
TORSDOF 3
ENDMDL
MODEL 8
REMARK VINA RESULT:      -6.4      1.116      1.521
REMARK  Name = 
REMARK  5 active torsions:
REMARK  status: ('A' for Active; 'I' for Inactive)
REMARK    1  A    between atoms: C_1  and  C_2
REMARK    2  A    between atoms: C_7  and  C_8
REMARK    3  A    between atoms: C_8  and  C_9
REMARK    4  A    between atoms: C_9  and  C_10
REMARK    5  A    between atoms: C_9  and  C_11
REMARK                            x       y       z     vdW  Elec       q    Type
REMARK                         _______ _______ _______ _____ _____    ______ ____
ROOT
ATOM      1  C   UNL     1       3.440   6.034  18.113  0.00  0.00    +0.000 C 
ENDROOT
BRANCH   1   8
ATOM      2  C   UNL     1       1.697   5.980  20.616  0.00  0.00    +0.000 C 
ATOM      3  C   UNL     1       1.794   4.807  19.678  0.00  0.00    +0.000 A 
ATOM      4  C   UNL     1       1.063   3.645  19.993  0.00  0.00    +0.000 A 
ATOM      5  C   UNL     1       1.091   2.531  19.157  0.00  0.00    +0.000 A 
ATOM      6  C   UNL     1       1.855   2.558  17.999  0.00  0.00    +0.000 A 
ATOM      7  C   UNL     1       2.603   3.692  17.685  0.00  0.00    +0.000 A 
ATOM      8  C   UNL     1       2.584   4.835  18.508  0.00  0.00    +0.000 A 
ENDBRANCH   1   8
BRANCH   1   9
ATOM      9  C   UNL     1       4.699   5.675  17.299  0.00  0.00    +0.000 C 
ATOM     10  C   UNL     1       4.844   6.538  16.045  0.00  0.00    +0.000 C 
BRANCH   9  11
ATOM     11  C   UNL     1       5.977   5.830  18.103  0.00  0.00    +0.000 C 
ATOM     12  N   UNL     1       6.292   5.047  19.105  0.00  0.00    +0.000 NA
ATOM     13  C   UNL     1       7.562   5.627  19.636  0.00  0.00    +0.000 C 
ATOM     14  C   UNL     1       8.058   6.629  18.589  0.00  0.00    +0.000 C 
ATOM     15  N   UNL     1       6.850   6.856  17.837  0.00  0.00    +0.000 N 
ATOM     16  H   UNL     1       6.916   7.192  16.885  0.00  0.00    +0.000 HD
ENDBRANCH   9  11
ENDBRANCH   1   9
TORSDOF 3
ENDMDL
MODEL 9
REMARK VINA RESULT:      -6.4      1.514      2.973
REMARK  Name = 
REMARK  5 active torsions:
REMARK  status: ('A' for Active; 'I' for Inactive)
REMARK    1  A    between atoms: C_1  and  C_2
REMARK    2  A    between atoms: C_7  and  C_8
REMARK    3  A    between atoms: C_8  and  C_9
REMARK    4  A    between atoms: C_9  and  C_10
REMARK    5  A    between atoms: C_9  and  C_11
REMARK                            x       y       z     vdW  Elec       q    Type
REMARK                         _______ _______ _______ _____ _____    ______ ____
ROOT
ATOM      1  C   UNL     1       2.490   4.084  17.922  0.00  0.00    +0.000 C 
ENDROOT
BRANCH   1   8
ATOM      2  C   UNL     1       1.468   4.048  20.796  0.00  0.00    +0.000 C 
ATOM      3  C   UNL     1       1.779   5.329  20.069  0.00  0.00    +0.000 A 
ATOM      4  C   UNL     1       1.565   6.544  20.748  0.00  0.00    +0.000 A 
ATOM      5  C   UNL     1       1.852   7.765  20.141  0.00  0.00    +0.000 A 
ATOM      6  C   UNL     1       2.348   7.790  18.845  0.00  0.00    +0.000 A 
ATOM      7  C   UNL     1       2.543   6.596  18.151  0.00  0.00    +0.000 A 
ATOM      8  C   UNL     1       2.270   5.349  18.745  0.00  0.00    +0.000 A 
ENDBRANCH   1   8
BRANCH   1   9
ATOM      9  C   UNL     1       3.740   3.276  18.321  0.00  0.00    +0.000 C 
ATOM     10  C   UNL     1       3.594   1.788  18.004  0.00  0.00    +0.000 C 
BRANCH   9  11
ATOM     11  C   UNL     1       4.997   3.765  17.623  0.00  0.00    +0.000 C 
ATOM     12  N   UNL     1       5.064   3.973  16.331  0.00  0.00    +0.000 NA
ATOM     13  C   UNL     1       6.491   4.348  16.095  0.00  0.00    +0.000 C 
ATOM     14  C   UNL     1       7.103   4.629  17.471  0.00  0.00    +0.000 C 
ATOM     15  N   UNL     1       6.157   3.964  18.330  0.00  0.00    +0.000 N 
ATOM     16  H   UNL     1       6.082   4.249  19.298  0.00  0.00    +0.000 HD
ENDBRANCH   9  11
ENDBRANCH   1   9
TORSDOF 3
ENDMDL
