MODEL 1
REMARK VINA RESULT:      -7.1      0.000      0.000
REMARK  Name = 
REMARK  8 active torsions:
REMARK  status: ('A' for Active; 'I' for Inactive)
REMARK    1  A    between atoms: C_1  and  C_2
REMARK    2  A    between atoms: C_2  and  N_3
REMARK    3  A    between atoms: C_2  and  C_12
REMARK    4  A    between atoms: N_3  and  C_4
REMARK    5  A    between atoms: C_4  and  C_5
REMARK    6  A    between atoms: C_5  and  N_6
REMARK    7  A    between atoms: C_15  and  S_16
REMARK    8  A    between atoms: S_16  and  C_17
REMARK                            x       y       z     vdW  Elec       q    Type
REMARK                         _______ _______ _______ _____ _____    ______ ____
ROOT
ATOM      1  C   UNL     1       4.786   6.206  16.565  0.00  0.00    +0.000 C 
ATOM      2  C   UNL     1       3.914   5.639  17.705  0.00  0.00    +0.000 C 
ENDROOT
BRANCH   2   3
ATOM      3  C   UNL     1       3.154   6.757  18.453  0.00  0.00    +0.000 A 
ATOM      4  C   UNL     1       2.590   6.574  19.728  0.00  0.00    +0.000 A 
ATOM      5  C   UNL     1       1.754   7.533  20.308  0.00  0.00    +0.000 A 
ATOM      6  C   UNL     1       1.447   8.694  19.600  0.00  0.00    +0.000 A 
ATOM      7  C   UNL     1       2.028   8.912  18.354  0.00  0.00    +0.000 A 
ATOM      8  F   UNL     1       1.736  10.015  17.652  0.00  0.00    +0.000 F 
ATOM      9  C   UNL     1       2.896   7.974  17.799  0.00  0.00    +0.000 A 
BRANCH   6  10
ATOM     10  S   UNL     1       0.320   9.880  20.253  0.00  0.00    +0.000 S 
ATOM     11  C   UNL     1      -0.234   9.187  21.788  0.00  0.00    +0.000 C 
ATOM     12  O   UNL     1       1.059  11.095  20.521  0.00  0.00    +0.000 OA
ATOM     13  O   UNL     1      -0.836   9.901  19.368  0.00  0.00    +0.000 OA
ENDBRANCH   6  10
ENDBRANCH   2   3
BRANCH   2  14
ATOM     14  N   UNL     1       3.019   4.542  17.252  0.00  0.00    +0.000 NA
ATOM     15  H   UNL     1       2.284   4.427  17.955  0.00  0.00    +0.000 HD
BRANCH  14  16
ATOM     16  C   UNL     1       3.750   3.259  17.143  0.00  0.00    +0.000 C 
BRANCH  16  17
ATOM     17  C   UNL     1       3.205   2.078  17.970  0.00  0.00    +0.000 C 
BRANCH  17  18
ATOM     18  N   UNL     1       2.686   2.516  19.270  0.00  0.00    +0.000 N 
ATOM     19  C   UNL     1       1.275   2.569  19.568  0.00  0.00    +0.000 C 
ATOM     20  C   UNL     1       1.239   3.274  20.912  0.00  0.00    +0.000 C 
ATOM     21  C   UNL     1       2.510   2.788  21.598  0.00  0.00    +0.000 C 
ATOM     22  C   UNL     1       3.445   2.522  20.437  0.00  0.00    +0.000 C 
ATOM     23  O   UNL     1       4.638   2.291  20.524  0.00  0.00    +0.000 OA
ENDBRANCH  17  18
ENDBRANCH  16  17
ENDBRANCH  14  16
ENDBRANCH   2  14
TORSDOF 6
ENDMDL
MODEL 2
REMARK VINA RESULT:      -6.9      1.643      2.102
REMARK  Name = 
REMARK  8 active torsions:
REMARK  status: ('A' for Active; 'I' for Inactive)
REMARK    1  A    between atoms: C_1  and  C_2
REMARK    2  A    between atoms: C_2  and  N_3
REMARK    3  A    between atoms: C_2  and  C_12
REMARK    4  A    between atoms: N_3  and  C_4
REMARK    5  A    between atoms: C_4  and  C_5
REMARK    6  A    between atoms: C_5  and  N_6
REMARK    7  A    between atoms: C_15  and  S_16
REMARK    8  A    between atoms: S_16  and  C_17
REMARK                            x       y       z     vdW  Elec       q    Type
REMARK                         _______ _______ _______ _____ _____    ______ ____
ROOT
ATOM      1  C   UNL     1       5.278   5.803  18.140  0.00  0.00    +0.000 C 
ATOM      2  C   UNL     1       3.825   5.406  18.478  0.00  0.00    +0.000 C 
ENDROOT
BRANCH   2   3
ATOM      3  C   UNL     1       2.930   6.644  18.698  0.00  0.00    +0.000 A 
ATOM      4  C   UNL     1       2.863   7.710  17.782  0.00  0.00    +0.000 A 
ATOM      5  C   UNL     1       2.193   8.899  18.083  0.00  0.00    +0.000 A 
ATOM      6  C   UNL     1       1.590   9.050  19.331  0.00  0.00    +0.000 A 
ATOM      7  C   UNL     1       1.609   7.992  20.235  0.00  0.00    +0.000 A 
ATOM      8  F   UNL     1       1.047   8.122  21.444  0.00  0.00    +0.000 F 
ATOM      9  C   UNL     1       2.241   6.792  19.914  0.00  0.00    +0.000 A 
BRANCH   6  10
ATOM     10  S   UNL     1       0.821  10.568  19.785  0.00  0.00    +0.000 S 
ATOM     11  C   UNL     1      -0.919  10.249  19.678  0.00  0.00    +0.000 C 
ATOM     12  O   UNL     1       1.168  10.848  21.162  0.00  0.00    +0.000 OA
ATOM     13  O   UNL     1       1.129  11.532  18.739  0.00  0.00    +0.000 OA
ENDBRANCH   6  10
ENDBRANCH   2   3
BRANCH   2  14
ATOM     14  N   UNL     1       3.250   4.448  17.496  0.00  0.00    +0.000 NA
ATOM     15  H   UNL     1       2.299   4.222  17.801  0.00  0.00    +0.000 HD
BRANCH  14  16
ATOM     16  C   UNL     1       4.027   3.189  17.451  0.00  0.00    +0.000 C 
BRANCH  16  17
ATOM     17  C   UNL     1       3.373   1.948  18.092  0.00  0.00    +0.000 C 
BRANCH  17  18
ATOM     18  N   UNL     1       2.651   2.286  19.323  0.00  0.00    +0.000 N 
ATOM     19  C   UNL     1       3.324   2.619  20.555  0.00  0.00    +0.000 C 
ATOM     20  C   UNL     1       2.187   2.668  21.560  0.00  0.00    +0.000 C 
ATOM     21  C   UNL     1       1.019   3.206  20.742  0.00  0.00    +0.000 C 
ATOM     22  C   UNL     1       1.328   2.718  19.342  0.00  0.00    +0.000 C 
ATOM     23  O   UNL     1       0.567   2.761  18.391  0.00  0.00    +0.000 OA
ENDBRANCH  17  18
ENDBRANCH  16  17
ENDBRANCH  14  16
ENDBRANCH   2  14
TORSDOF 6
ENDMDL
MODEL 3
REMARK VINA RESULT:      -6.8      1.405      1.689
REMARK  Name = 
REMARK  8 active torsions:
REMARK  status: ('A' for Active; 'I' for Inactive)
REMARK    1  A    between atoms: C_1  and  C_2
REMARK    2  A    between atoms: C_2  and  N_3
REMARK    3  A    between atoms: C_2  and  C_12
REMARK    4  A    between atoms: N_3  and  C_4
REMARK    5  A    between atoms: C_4  and  C_5
REMARK    6  A    between atoms: C_5  and  N_6
REMARK    7  A    between atoms: C_15  and  S_16
REMARK    8  A    between atoms: S_16  and  C_17
REMARK                            x       y       z     vdW  Elec       q    Type
REMARK                         _______ _______ _______ _____ _____    ______ ____
ROOT
ATOM      1  C   UNL     1       4.955   6.615  15.928  0.00  0.00    +0.000 C 
ATOM      2  C   UNL     1       4.481   5.959  17.243  0.00  0.00    +0.000 C 
ENDROOT
BRANCH   2   3
ATOM      3  C   UNL     1       3.578   6.907  18.062  0.00  0.00    +0.000 A 
ATOM      4  C   UNL     1       3.032   6.553  19.308  0.00  0.00    +0.000 A 
ATOM      5  C   UNL     1       2.075   7.348  19.946  0.00  0.00    +0.000 A 
ATOM      6  C   UNL     1       1.627   8.513  19.325  0.00  0.00    +0.000 A 
ATOM      7  C   UNL     1       2.186   8.903  18.111  0.00  0.00    +0.000 A 
ATOM      8  F   UNL     1       1.760  10.012  17.493  0.00  0.00    +0.000 F 
ATOM      9  C   UNL     1       3.172   8.130  17.500  0.00  0.00    +0.000 A 
BRANCH   6  10
ATOM     10  S   UNL     1       0.352   9.490  20.049  0.00  0.00    +0.000 S 
ATOM     11  C   UNL     1       1.169  10.952  20.627  0.00  0.00    +0.000 C 
ATOM     12  O   UNL     1      -0.580   9.850  19.001  0.00  0.00    +0.000 OA
ATOM     13  O   UNL     1      -0.110   8.778  21.232  0.00  0.00    +0.000 OA
ENDBRANCH   6  10
ENDBRANCH   2   3
BRANCH   2  14
ATOM     14  N   UNL     1       3.864   4.623  17.028  0.00  0.00    +0.000 NA
ATOM     15  H   UNL     1       2.882   4.683  17.309  0.00  0.00    +0.000 HD
BRANCH  14  16
ATOM     16  C   UNL     1       4.515   3.587  17.861  0.00  0.00    +0.000 C 
BRANCH  16  17
ATOM     17  C   UNL     1       3.658   2.362  18.238  0.00  0.00    +0.000 C 
BRANCH  17  18
ATOM     18  N   UNL     1       2.628   2.699  19.226  0.00  0.00    +0.000 N 
ATOM     19  C   UNL     1       2.900   2.773  20.641  0.00  0.00    +0.000 C 
ATOM     20  C   UNL     1       1.516   2.928  21.245  0.00  0.00    +0.000 C 
ATOM     21  C   UNL     1       0.770   3.755  20.204  0.00  0.00    +0.000 C 
ATOM     22  C   UNL     1       1.448   3.365  18.907  0.00  0.00    +0.000 C 
ATOM     23  O   UNL     1       1.056   3.647  17.788  0.00  0.00    +0.000 OA
ENDBRANCH  17  18
ENDBRANCH  16  17
ENDBRANCH  14  16
ENDBRANCH   2  14
TORSDOF 6
ENDMDL
MODEL 4
REMARK VINA RESULT:      -6.8      2.222      3.703
REMARK  Name = 
REMARK  8 active torsions:
REMARK  status: ('A' for Active; 'I' for Inactive)
REMARK    1  A    between atoms: C_1  and  C_2
REMARK    2  A    between atoms: C_2  and  N_3
REMARK    3  A    between atoms: C_2  and  C_12
REMARK    4  A    between atoms: N_3  and  C_4
REMARK    5  A    between atoms: C_4  and  C_5
REMARK    6  A    between atoms: C_5  and  N_6
REMARK    7  A    between atoms: C_15  and  S_16
REMARK    8  A    between atoms: S_16  and  C_17
REMARK                            x       y       z     vdW  Elec       q    Type
REMARK                         _______ _______ _______ _____ _____    ______ ____
ROOT
ATOM      1  C   UNL     1       4.019   4.482  19.734  0.00  0.00    +0.000 C 
ATOM      2  C   UNL     1       2.924   5.000  18.778  0.00  0.00    +0.000 C 
ENDROOT
BRANCH   2   3
ATOM      3  C   UNL     1       2.498   6.443  19.125  0.00  0.00    +0.000 A 
ATOM      4  C   UNL     1       2.005   6.810  20.389  0.00  0.00    +0.000 A 
ATOM      5  C   UNL     1       1.455   8.074  20.627  0.00  0.00    +0.000 A 
ATOM      6  C   UNL     1       1.369   8.992  19.583  0.00  0.00    +0.000 A 
ATOM      7  C   UNL     1       1.890   8.663  18.334  0.00  0.00    +0.000 A 
ATOM      8  F   UNL     1       1.805   9.527  17.314  0.00  0.00    +0.000 F 
ATOM      9  C   UNL     1       2.476   7.419  18.113  0.00  0.00    +0.000 A 
BRANCH   6  10
ATOM     10  S   UNL     1       0.595  10.557  19.817  0.00  0.00    +0.000 S 
ATOM     11  C   UNL     1       0.246  10.639  21.552  0.00  0.00    +0.000 C 
ATOM     12  O   UNL     1       1.557  11.585  19.478  0.00  0.00    +0.000 OA
ATOM     13  O   UNL     1      -0.692  10.502  19.138  0.00  0.00    +0.000 OA
ENDBRANCH   6  10
ENDBRANCH   2   3
BRANCH   2  14
ATOM     14  N   UNL     1       3.289   4.837  17.346  0.00  0.00    +0.000 NA
ATOM     15  H   UNL     1       2.432   4.627  16.827  0.00  0.00    +0.000 HD
BRANCH  14  16
ATOM     16  C   UNL     1       4.227   3.708  17.153  0.00  0.00    +0.000 C 
BRANCH  16  17
ATOM     17  C   UNL     1       5.550   4.023  16.428  0.00  0.00    +0.000 C 
BRANCH  17  18
ATOM     18  N   UNL     1       6.322   5.058  17.125  0.00  0.00    +0.000 N 
ATOM     19  C   UNL     1       7.516   4.764  17.880  0.00  0.00    +0.000 C 
ATOM     20  C   UNL     1       7.811   6.081  18.574  0.00  0.00    +0.000 C 
ATOM     21  C   UNL     1       7.358   7.123  17.557  0.00  0.00    +0.000 C 
ATOM     22  C   UNL     1       6.248   6.412  16.812  0.00  0.00    +0.000 C 
ATOM     23  O   UNL     1       5.474   6.931  16.027  0.00  0.00    +0.000 OA
ENDBRANCH  17  18
ENDBRANCH  16  17
ENDBRANCH  14  16
ENDBRANCH   2  14
TORSDOF 6
ENDMDL
MODEL 5
REMARK VINA RESULT:      -6.8      2.469      4.099
REMARK  Name = 
REMARK  8 active torsions:
REMARK  status: ('A' for Active; 'I' for Inactive)
REMARK    1  A    between atoms: C_1  and  C_2
REMARK    2  A    between atoms: C_2  and  N_3
REMARK    3  A    between atoms: C_2  and  C_12
REMARK    4  A    between atoms: N_3  and  C_4
REMARK    5  A    between atoms: C_4  and  C_5
REMARK    6  A    between atoms: C_5  and  N_6
REMARK    7  A    between atoms: C_15  and  S_16
REMARK    8  A    between atoms: S_16  and  C_17
REMARK                            x       y       z     vdW  Elec       q    Type
REMARK                         _______ _______ _______ _____ _____    ______ ____
ROOT
ATOM      1  C   UNL     1       1.968   4.642  18.787  0.00  0.00    +0.000 C 
ATOM      2  C   UNL     1       2.924   5.851  18.858  0.00  0.00    +0.000 C 
ENDROOT
BRANCH   2   3
ATOM      3  C   UNL     1       2.161   7.169  19.111  0.00  0.00    +0.000 A 
ATOM      4  C   UNL     1       2.073   8.196  18.154  0.00  0.00    +0.000 A 
ATOM      5  C   UNL     1       1.538   9.449  18.466  0.00  0.00    +0.000 A 
ATOM      6  C   UNL     1       1.097   9.704  19.763  0.00  0.00    +0.000 A 
ATOM      7  C   UNL     1       1.136   8.688  20.714  0.00  0.00    +0.000 A 
ATOM      8  F   UNL     1       0.730   8.917  21.969  0.00  0.00    +0.000 F 
ATOM      9  C   UNL     1       1.630   7.426  20.387  0.00  0.00    +0.000 A 
BRANCH   6  10
ATOM     10  S   UNL     1       0.508  11.300  20.220  0.00  0.00    +0.000 S 
ATOM     11  C   UNL     1       0.803  12.320  18.802  0.00  0.00    +0.000 C 
ATOM     12  O   UNL     1      -0.920  11.200  20.442  0.00  0.00    +0.000 OA
ATOM     13  O   UNL     1       1.383  11.792  21.274  0.00  0.00    +0.000 OA
ENDBRANCH   6  10
ENDBRANCH   2   3
BRANCH   2  14
ATOM     14  N   UNL     1       4.043   5.643  19.815  0.00  0.00    +0.000 NA
ATOM     15  H   UNL     1       4.145   6.498  20.368  0.00  0.00    +0.000 HD
BRANCH  14  16
ATOM     16  C   UNL     1       5.321   5.401  19.108  0.00  0.00    +0.000 C 
BRANCH  16  17
ATOM     17  C   UNL     1       5.471   4.044  18.392  0.00  0.00    +0.000 C 
BRANCH  17  18
ATOM     18  N   UNL     1       5.806   4.210  16.974  0.00  0.00    +0.000 N 
ATOM     19  C   UNL     1       4.830   4.586  15.981  0.00  0.00    +0.000 C 
ATOM     20  C   UNL     1       5.588   4.413  14.677  0.00  0.00    +0.000 C 
ATOM     21  C   UNL     1       7.015   4.802  15.046  0.00  0.00    +0.000 C 
ATOM     22  C   UNL     1       7.101   4.431  16.512  0.00  0.00    +0.000 C 
ATOM     23  O   UNL     1       8.121   4.400  17.178  0.00  0.00    +0.000 OA
ENDBRANCH  17  18
ENDBRANCH  16  17
ENDBRANCH  14  16
ENDBRANCH   2  14
TORSDOF 6
ENDMDL
MODEL 6
REMARK VINA RESULT:      -6.8      1.618      2.089
REMARK  Name = 
REMARK  8 active torsions:
REMARK  status: ('A' for Active; 'I' for Inactive)
REMARK    1  A    between atoms: C_1  and  C_2
REMARK    2  A    between atoms: C_2  and  N_3
REMARK    3  A    between atoms: C_2  and  C_12
REMARK    4  A    between atoms: N_3  and  C_4
REMARK    5  A    between atoms: C_4  and  C_5
REMARK    6  A    between atoms: C_5  and  N_6
REMARK    7  A    between atoms: C_15  and  S_16
REMARK    8  A    between atoms: S_16  and  C_17
REMARK                            x       y       z     vdW  Elec       q    Type
REMARK                         _______ _______ _______ _____ _____    ______ ____
ROOT
ATOM      1  C   UNL     1       5.276   6.494  17.489  0.00  0.00    +0.000 C 
ATOM      2  C   UNL     1       4.017   5.887  18.144  0.00  0.00    +0.000 C 
ENDROOT
BRANCH   2   3
ATOM      3  C   UNL     1       2.949   6.963  18.436  0.00  0.00    +0.000 A 
ATOM      4  C   UNL     1       2.611   7.971  17.517  0.00  0.00    +0.000 A 
ATOM      5  C   UNL     1       1.779   9.039  17.867  0.00  0.00    +0.000 A 
ATOM      6  C   UNL     1       1.286   9.126  19.168  0.00  0.00    +0.000 A 
ATOM      7  C   UNL     1       1.575   8.116  20.082  0.00  0.00    +0.000 A 
ATOM      8  F   UNL     1       1.122   8.189  21.339  0.00  0.00    +0.000 F 
ATOM      9  C   UNL     1       2.368   7.031  19.715  0.00  0.00    +0.000 A 
BRANCH   6  10
ATOM     10  S   UNL     1       0.316  10.507  19.676  0.00  0.00    +0.000 S 
ATOM     11  C   UNL     1       1.326  11.366  20.852  0.00  0.00    +0.000 C 
ATOM     12  O   UNL     1       0.109  11.354  18.521  0.00  0.00    +0.000 OA
ATOM     13  O   UNL     1      -0.821   9.979  20.415  0.00  0.00    +0.000 OA
ENDBRANCH   6  10
ENDBRANCH   2   3
BRANCH   2  14
ATOM     14  N   UNL     1       3.475   4.731  17.382  0.00  0.00    +0.000 NA
ATOM     15  H   UNL     1       2.531   4.542  17.730  0.00  0.00    +0.000 HD
BRANCH  14  16
ATOM     16  C   UNL     1       4.291   3.514  17.593  0.00  0.00    +0.000 C 
BRANCH  16  17
ATOM     17  C   UNL     1       3.545   2.256  18.080  0.00  0.00    +0.000 C 
BRANCH  17  18
ATOM     18  N   UNL     1       2.717   2.533  19.258  0.00  0.00    +0.000 N 
ATOM     19  C   UNL     1       3.274   2.712  20.577  0.00  0.00    +0.000 C 
ATOM     20  C   UNL     1       2.042   2.750  21.463  0.00  0.00    +0.000 C 
ATOM     21  C   UNL     1       1.001   3.436  20.586  0.00  0.00    +0.000 C 
ATOM     22  C   UNL     1       1.427   3.051  19.185  0.00  0.00    +0.000 C 
ATOM     23  O   UNL     1       0.776   3.228  18.170  0.00  0.00    +0.000 OA
ENDBRANCH  17  18
ENDBRANCH  16  17
ENDBRANCH  14  16
ENDBRANCH   2  14
TORSDOF 6
ENDMDL
MODEL 7
REMARK VINA RESULT:      -6.7      3.500      6.439
REMARK  Name = 
REMARK  8 active torsions:
REMARK  status: ('A' for Active; 'I' for Inactive)
REMARK    1  A    between atoms: C_1  and  C_2
REMARK    2  A    between atoms: C_2  and  N_3
REMARK    3  A    between atoms: C_2  and  C_12
REMARK    4  A    between atoms: N_3  and  C_4
REMARK    5  A    between atoms: C_4  and  C_5
REMARK    6  A    between atoms: C_5  and  N_6
REMARK    7  A    between atoms: C_15  and  S_16
REMARK    8  A    between atoms: S_16  and  C_17
REMARK                            x       y       z     vdW  Elec       q    Type
REMARK                         _______ _______ _______ _____ _____    ______ ____
ROOT
ATOM      1  C   UNL     1       1.202   3.219  19.232  0.00  0.00    +0.000 C 
ATOM      2  C   UNL     1       2.432   3.551  20.104  0.00  0.00    +0.000 C 
ENDROOT
BRANCH   2   3
ATOM      3  C   UNL     1       3.656   3.930  19.243  0.00  0.00    +0.000 A 
ATOM      4  C   UNL     1       4.731   4.690  19.738  0.00  0.00    +0.000 A 
ATOM      5  C   UNL     1       5.738   5.176  18.898  0.00  0.00    +0.000 A 
ATOM      6  C   UNL     1       5.670   4.925  17.529  0.00  0.00    +0.000 A 
ATOM      7  C   UNL     1       4.637   4.139  17.025  0.00  0.00    +0.000 A 
ATOM      8  F   UNL     1       4.547   3.898  15.711  0.00  0.00    +0.000 F 
ATOM      9  C   UNL     1       3.660   3.620  17.872  0.00  0.00    +0.000 A 
BRANCH   6  10
ATOM     10  S   UNL     1       6.865   5.603  16.426  0.00  0.00    +0.000 S 
ATOM     11  C   UNL     1       7.607   6.940  17.321  0.00  0.00    +0.000 C 
ATOM     12  O   UNL     1       7.866   4.588  16.176  0.00  0.00    +0.000 OA
ATOM     13  O   UNL     1       6.132   6.202  15.320  0.00  0.00    +0.000 OA
ENDBRANCH   6  10
ENDBRANCH   2   3
BRANCH   2  14
ATOM     14  N   UNL     1       2.135   4.559  21.155  0.00  0.00    +0.000 NA
ATOM     15  H   UNL     1       1.650   4.081  21.920  0.00  0.00    +0.000 HD
BRANCH  14  16
ATOM     16  C   UNL     1       1.242   5.625  20.645  0.00  0.00    +0.000 C 
BRANCH  16  17
ATOM     17  C   UNL     1       1.661   7.079  20.939  0.00  0.00    +0.000 C 
BRANCH  17  18
ATOM     18  N   UNL     1       1.925   7.830  19.708  0.00  0.00    +0.000 N 
ATOM     19  C   UNL     1       2.434   7.208  18.509  0.00  0.00    +0.000 C 
ATOM     20  C   UNL     1       2.742   8.396  17.615  0.00  0.00    +0.000 C 
ATOM     21  C   UNL     1       1.655   9.401  17.980  0.00  0.00    +0.000 C 
ATOM     22  C   UNL     1       1.353   9.068  19.426  0.00  0.00    +0.000 C 
ATOM     23  O   UNL     1       0.671   9.738  20.182  0.00  0.00    +0.000 OA
ENDBRANCH  17  18
ENDBRANCH  16  17
ENDBRANCH  14  16
ENDBRANCH   2  14
TORSDOF 6
ENDMDL
MODEL 8
REMARK VINA RESULT:      -6.7      3.872      5.250
REMARK  Name = 
REMARK  8 active torsions:
REMARK  status: ('A' for Active; 'I' for Inactive)
REMARK    1  A    between atoms: C_1  and  C_2
REMARK    2  A    between atoms: C_2  and  N_3
REMARK    3  A    between atoms: C_2  and  C_12
REMARK    4  A    between atoms: N_3  and  C_4
REMARK    5  A    between atoms: C_4  and  C_5
REMARK    6  A    between atoms: C_5  and  N_6
REMARK    7  A    between atoms: C_15  and  S_16
REMARK    8  A    between atoms: S_16  and  C_17
REMARK                            x       y       z     vdW  Elec       q    Type
REMARK                         _______ _______ _______ _____ _____    ______ ____
ROOT
ATOM      1  C   UNL     1       1.333   7.082  20.759  0.00  0.00    +0.000 C 
ATOM      2  C   UNL     1       1.918   5.743  20.263  0.00  0.00    +0.000 C 
ENDROOT
BRANCH   2   3
ATOM      3  C   UNL     1       3.149   5.958  19.356  0.00  0.00    +0.000 A 
ATOM      4  C   UNL     1       3.048   6.406  18.027  0.00  0.00    +0.000 A 
ATOM      5  C   UNL     1       4.151   6.419  17.168  0.00  0.00    +0.000 A 
ATOM      6  C   UNL     1       5.383   5.956  17.626  0.00  0.00    +0.000 A 
ATOM      7  C   UNL     1       5.514   5.548  18.950  0.00  0.00    +0.000 A 
ATOM      8  F   UNL     1       6.686   5.087  19.406  0.00  0.00    +0.000 F 
ATOM      9  C   UNL     1       4.422   5.578  19.816  0.00  0.00    +0.000 A 
BRANCH   6  10
ATOM     10  S   UNL     1       6.772   5.864  16.546  0.00  0.00    +0.000 S 
ATOM     11  C   UNL     1       7.768   7.269  16.963  0.00  0.00    +0.000 C 
ATOM     12  O   UNL     1       7.503   4.655  16.864  0.00  0.00    +0.000 OA
ATOM     13  O   UNL     1       6.278   6.092  15.196  0.00  0.00    +0.000 OA
ENDBRANCH   6  10
ENDBRANCH   2   3
BRANCH   2  14
ATOM     14  N   UNL     1       2.183   4.788  21.372  0.00  0.00    +0.000 NA
ATOM     15  H   UNL     1       3.153   4.472  21.288  0.00  0.00    +0.000 HD
BRANCH  14  16
ATOM     16  C   UNL     1       1.306   3.598  21.280  0.00  0.00    +0.000 C 
BRANCH  16  17
ATOM     17  C   UNL     1       1.992   2.255  20.959  0.00  0.00    +0.000 C 
BRANCH  17  18
ATOM     18  N   UNL     1       2.515   2.223  19.589  0.00  0.00    +0.000 N 
ATOM     19  C   UNL     1       1.736   2.639  18.448  0.00  0.00    +0.000 C 
ATOM     20  C   UNL     1       2.605   2.222  17.275  0.00  0.00    +0.000 C 
ATOM     21  C   UNL     1       4.022   2.426  17.797  0.00  0.00    +0.000 C 
ATOM     22  C   UNL     1       3.873   2.199  19.287  0.00  0.00    +0.000 C 
ATOM     23  O   UNL     1       4.789   2.082  20.083  0.00  0.00    +0.000 OA
ENDBRANCH  17  18
ENDBRANCH  16  17
ENDBRANCH  14  16
ENDBRANCH   2  14
TORSDOF 6
ENDMDL
MODEL 9
REMARK VINA RESULT:      -6.6      2.091      3.726
REMARK  Name = 
REMARK  8 active torsions:
REMARK  status: ('A' for Active; 'I' for Inactive)
REMARK    1  A    between atoms: C_1  and  C_2
REMARK    2  A    between atoms: C_2  and  N_3
REMARK    3  A    between atoms: C_2  and  C_12
REMARK    4  A    between atoms: N_3  and  C_4
REMARK    5  A    between atoms: C_4  and  C_5
REMARK    6  A    between atoms: C_5  and  N_6
REMARK    7  A    between atoms: C_15  and  S_16
REMARK    8  A    between atoms: S_16  and  C_17
REMARK                            x       y       z     vdW  Elec       q    Type
REMARK                         _______ _______ _______ _____ _____    ______ ____
ROOT
ATOM      1  C   UNL     1       1.673   4.169  18.273  0.00  0.00    +0.000 C 
ATOM      2  C   UNL     1       2.796   5.206  18.059  0.00  0.00    +0.000 C 
ENDROOT
BRANCH   2   3
ATOM      3  C   UNL     1       2.446   6.568  18.698  0.00  0.00    +0.000 A 
ATOM      4  C   UNL     1       2.124   6.712  20.059  0.00  0.00    +0.000 A 
ATOM      5  C   UNL     1       1.634   7.915  20.576  0.00  0.00    +0.000 A 
ATOM      6  C   UNL     1       1.434   8.998  19.723  0.00  0.00    +0.000 A 
ATOM      7  C   UNL     1       1.786   8.889  18.380  0.00  0.00    +0.000 A 
ATOM      8  F   UNL     1       1.589   9.915  17.542  0.00  0.00    +0.000 F 
ATOM      9  C   UNL     1       2.316   7.702  17.878  0.00  0.00    +0.000 A 
BRANCH   6  10
ATOM     10  S   UNL     1       0.726  10.498  20.317  0.00  0.00    +0.000 S 
ATOM     11  C   UNL     1      -0.917  10.522  19.654  0.00  0.00    +0.000 C 
ATOM     12  O   UNL     1       0.654  10.415  21.760  0.00  0.00    +0.000 OA
ATOM     13  O   UNL     1       1.446  11.591  19.678  0.00  0.00    +0.000 OA
ENDBRANCH   6  10
ENDBRANCH   2   3
BRANCH   2  14
ATOM     14  N   UNL     1       4.130   4.701  18.479  0.00  0.00    +0.000 NA
ATOM     15  H   UNL     1       4.748   5.509  18.597  0.00  0.00    +0.000 HD
BRANCH  14  16
ATOM     16  C   UNL     1       4.724   3.820  17.448  0.00  0.00    +0.000 C 
BRANCH  16  17
ATOM     17  C   UNL     1       5.612   4.498  16.385  0.00  0.00    +0.000 C 
BRANCH  17  18
ATOM     18  N   UNL     1       6.422   5.578  16.959  0.00  0.00    +0.000 N 
ATOM     19  C   UNL     1       5.963   6.944  17.027  0.00  0.00    +0.000 C 
ATOM     20  C   UNL     1       7.202   7.695  17.480  0.00  0.00    +0.000 C 
ATOM     21  C   UNL     1       7.898   6.701  18.403  0.00  0.00    +0.000 C 
ATOM     22  C   UNL     1       7.480   5.360  17.837  0.00  0.00    +0.000 C 
ATOM     23  O   UNL     1       7.947   4.279  18.152  0.00  0.00    +0.000 OA
ENDBRANCH  17  18
ENDBRANCH  16  17
ENDBRANCH  14  16
ENDBRANCH   2  14
TORSDOF 6
ENDMDL
