MODEL 1
REMARK VINA RESULT:      -7.9      0.000      0.000
REMARK  Name = 
REMARK  6 active torsions:
REMARK  status: ('A' for Active; 'I' for Inactive)
REMARK    1  A    between atoms: C_1  and  C_2
REMARK    2  A    between atoms: C_2  and  N_3
REMARK    3  A    between atoms: C_2  and  C_17
REMARK    4  A    between atoms: C_4  and  C_6
REMARK    5  A    between atoms: C_10  and  C_11
REMARK    6  A    between atoms: C_17  and  C_19
REMARK                            x       y       z     vdW  Elec       q    Type
REMARK                         _______ _______ _______ _____ _____    ______ ____
ROOT
ATOM      1  N   UNL     1       5.654   5.564  17.636  0.00  0.00    +0.000 N 
ATOM      2  C   UNL     1       5.463   5.262  18.964  0.00  0.00    +0.000 C 
ATOM      3  O   UNL     1       6.401   5.165  19.750  0.00  0.00    +0.000 OA
ATOM      4  H   UNL     1       4.850   5.680  17.028  0.00  0.00    +0.000 HD
ENDROOT
BRANCH   2   5
ATOM      5  C   UNL     1       4.062   5.165  19.464  0.00  0.00    +0.000 A 
ATOM      6  C   UNL     1       3.386   6.392  19.593  0.00  0.00    +0.000 A 
ATOM      7  C   UNL     1       2.064   6.438  20.022  0.00  0.00    +0.000 A 
ATOM      8  C   UNL     1       1.400   5.254  20.326  0.00  0.00    +0.000 A 
ATOM      9  C   UNL     1       2.052   4.010  20.223  0.00  0.00    +0.000 A 
ATOM     10  C   UNL     1       3.397   3.971  19.804  0.00  0.00    +0.000 A 
ATOM     11 CL   UNL     1       4.216   2.439  19.766  0.00  0.00    +0.000 Cl
BRANCH   9  12
ATOM     12  C   UNL     1       1.285   2.752  20.546  0.00  0.00    +0.000 C 
ATOM     13  F   UNL     1       1.303   2.440  21.875  0.00  0.00    +0.000 F 
ATOM     14  F   UNL     1      -0.032   2.841  20.215  0.00  0.00    +0.000 F 
ATOM     15  F   UNL     1       1.769   1.648  19.913  0.00  0.00    +0.000 F 
ENDBRANCH   9  12
ENDBRANCH   2   5
BRANCH   1  17
ATOM     16  C   UNL     1       7.598   7.042  17.205  0.00  0.00    +0.000 C 
ATOM     17  C   UNL     1       6.981   5.658  17.035  0.00  0.00    +0.000 C 
BRANCH  17  18
ATOM     18  C   UNL     1       7.025   5.191  15.581  0.00  0.00    +0.000 C 
ATOM     19  O   UNL     1       7.757   5.658  14.712  0.00  0.00    +0.000 OA
BRANCH  18  20
ATOM     20  C   UNL     1       6.221   3.944  15.245  0.00  0.00    +0.000 C 
ATOM     21  N   UNL     1       6.288   3.550  13.937  0.00  0.00    +0.000 N 
ATOM     22  O   UNL     1       5.575   3.360  16.102  0.00  0.00    +0.000 OA
ATOM     23  H   UNL     1       6.877   4.044  13.276  0.00  0.00    +0.000 HD
ATOM     24  H   UNL     1       5.830   2.695  13.656  0.00  0.00    +0.000 HD
ENDBRANCH  18  20
ENDBRANCH  17  18
ENDBRANCH   1  17
TORSDOF 5
ENDMDL
MODEL 2
REMARK VINA RESULT:      -7.7      2.106      2.851
REMARK  Name = 
REMARK  6 active torsions:
REMARK  status: ('A' for Active; 'I' for Inactive)
REMARK    1  A    between atoms: C_1  and  C_2
REMARK    2  A    between atoms: C_2  and  N_3
REMARK    3  A    between atoms: C_2  and  C_17
REMARK    4  A    between atoms: C_4  and  C_6
REMARK    5  A    between atoms: C_10  and  C_11
REMARK    6  A    between atoms: C_17  and  C_19
REMARK                            x       y       z     vdW  Elec       q    Type
REMARK                         _______ _______ _______ _____ _____    ______ ____
ROOT
ATOM      1  N   UNL     1       5.067   4.048  15.949  0.00  0.00    +0.000 N 
ATOM      2  C   UNL     1       4.445   4.772  16.941  0.00  0.00    +0.000 C 
ATOM      3  O   UNL     1       4.208   5.970  16.819  0.00  0.00    +0.000 OA
ATOM      4  H   UNL     1       5.205   3.050  16.069  0.00  0.00    +0.000 HD
ENDROOT
BRANCH   2   5
ATOM      5  C   UNL     1       3.954   4.035  18.140  0.00  0.00    +0.000 A 
ATOM      6  C   UNL     1       4.946   3.367  18.880  0.00  0.00    +0.000 A 
ATOM      7  C   UNL     1       4.624   2.665  20.037  0.00  0.00    +0.000 A 
ATOM      8  C   UNL     1       3.302   2.625  20.469  0.00  0.00    +0.000 A 
ATOM      9  C   UNL     1       2.282   3.269  19.742  0.00  0.00    +0.000 A 
ATOM     10  C   UNL     1       2.612   3.965  18.562  0.00  0.00    +0.000 A 
ATOM     11 CL   UNL     1       1.334   4.680  17.628  0.00  0.00    +0.000 Cl
BRANCH   9  12
ATOM     12  C   UNL     1       0.866   3.213  20.260  0.00  0.00    +0.000 C 
ATOM     13  F   UNL     1       0.766   2.610  21.481  0.00  0.00    +0.000 F 
ATOM     14  F   UNL     1       0.317   4.447  20.422  0.00  0.00    +0.000 F 
ATOM     15  F   UNL     1       0.023   2.518  19.448  0.00  0.00    +0.000 F 
ENDBRANCH   9  12
ENDBRANCH   2   5
BRANCH   1  17
ATOM     16  C   UNL     1       5.399   3.814  13.503  0.00  0.00    +0.000 C 
ATOM     17  C   UNL     1       5.610   4.671  14.747  0.00  0.00    +0.000 C 
BRANCH  17  18
ATOM     18  C   UNL     1       7.066   5.110  14.893  0.00  0.00    +0.000 C 
ATOM     19  O   UNL     1       7.827   5.354  13.960  0.00  0.00    +0.000 OA
BRANCH  18  20
ATOM     20  C   UNL     1       7.540   5.426  16.304  0.00  0.00    +0.000 C 
ATOM     21  N   UNL     1       7.952   4.342  17.029  0.00  0.00    +0.000 N 
ATOM     22  O   UNL     1       7.542   6.572  16.727  0.00  0.00    +0.000 OA
ATOM     23  H   UNL     1       7.974   3.418  16.613  0.00  0.00    +0.000 HD
ATOM     24  H   UNL     1       8.338   4.485  17.951  0.00  0.00    +0.000 HD
ENDBRANCH  18  20
ENDBRANCH  17  18
ENDBRANCH   1  17
TORSDOF 5
ENDMDL
MODEL 3
REMARK VINA RESULT:      -7.7      2.101      3.066
REMARK  Name = 
REMARK  6 active torsions:
REMARK  status: ('A' for Active; 'I' for Inactive)
REMARK    1  A    between atoms: C_1  and  C_2
REMARK    2  A    between atoms: C_2  and  N_3
REMARK    3  A    between atoms: C_2  and  C_17
REMARK    4  A    between atoms: C_4  and  C_6
REMARK    5  A    between atoms: C_10  and  C_11
REMARK    6  A    between atoms: C_17  and  C_19
REMARK                            x       y       z     vdW  Elec       q    Type
REMARK                         _______ _______ _______ _____ _____    ______ ____
ROOT
ATOM      1  N   UNL     1       5.380   4.598  16.450  0.00  0.00    +0.000 N 
ATOM      2  C   UNL     1       4.290   5.137  17.095  0.00  0.00    +0.000 C 
ATOM      3  O   UNL     1       4.018   6.331  17.024  0.00  0.00    +0.000 OA
ATOM      4  H   UNL     1       5.545   3.598  16.496  0.00  0.00    +0.000 HD
ENDROOT
BRANCH   2   5
ATOM      5  C   UNL     1       3.364   4.204  17.799  0.00  0.00    +0.000 A 
ATOM      6  C   UNL     1       3.118   2.989  17.134  0.00  0.00    +0.000 A 
ATOM      7  C   UNL     1       2.295   2.020  17.697  0.00  0.00    +0.000 A 
ATOM      8  C   UNL     1       1.708   2.254  18.936  0.00  0.00    +0.000 A 
ATOM      9  C   UNL     1       1.921   3.466  19.621  0.00  0.00    +0.000 A 
ATOM     10  C   UNL     1       2.742   4.451  19.038  0.00  0.00    +0.000 A 
ATOM     11 CL   UNL     1       2.925   5.975  19.851  0.00  0.00    +0.000 Cl
BRANCH   9  12
ATOM     12  C   UNL     1       1.277   3.667  20.971  0.00  0.00    +0.000 C 
ATOM     13  F   UNL     1       0.610   2.562  21.416  0.00  0.00    +0.000 F 
ATOM     14  F   UNL     1       2.182   3.958  21.945  0.00  0.00    +0.000 F 
ATOM     15  F   UNL     1       0.357   4.671  20.985  0.00  0.00    +0.000 F 
ENDBRANCH   9  12
ENDBRANCH   2   5
BRANCH   1  17
ATOM     16  C   UNL     1       7.019   4.680  14.591  0.00  0.00    +0.000 C 
ATOM     17  C   UNL     1       6.364   5.420  15.753  0.00  0.00    +0.000 C 
BRANCH  17  18
ATOM     18  C   UNL     1       7.401   6.047  16.683  0.00  0.00    +0.000 C 
ATOM     19  O   UNL     1       7.843   7.189  16.580  0.00  0.00    +0.000 OA
BRANCH  18  20
ATOM     20  C   UNL     1       7.775   5.244  17.920  0.00  0.00    +0.000 C 
ATOM     21  N   UNL     1       7.484   5.851  19.111  0.00  0.00    +0.000 N 
ATOM     22  O   UNL     1       8.293   4.142  17.824  0.00  0.00    +0.000 OA
ATOM     23  H   UNL     1       7.011   6.747  19.134  0.00  0.00    +0.000 HD
ATOM     24  H   UNL     1       7.647   5.350  19.972  0.00  0.00    +0.000 HD
ENDBRANCH  18  20
ENDBRANCH  17  18
ENDBRANCH   1  17
TORSDOF 5
ENDMDL
MODEL 4
REMARK VINA RESULT:      -7.7      2.064      3.126
REMARK  Name = 
REMARK  6 active torsions:
REMARK  status: ('A' for Active; 'I' for Inactive)
REMARK    1  A    between atoms: C_1  and  C_2
REMARK    2  A    between atoms: C_2  and  N_3
REMARK    3  A    between atoms: C_2  and  C_17
REMARK    4  A    between atoms: C_4  and  C_6
REMARK    5  A    between atoms: C_10  and  C_11
REMARK    6  A    between atoms: C_17  and  C_19
REMARK                            x       y       z     vdW  Elec       q    Type
REMARK                         _______ _______ _______ _____ _____    ______ ____
ROOT
ATOM      1  N   UNL     1       5.061   4.009  15.700  0.00  0.00    +0.000 N 
ATOM      2  C   UNL     1       4.368   4.662  16.694  0.00  0.00    +0.000 C 
ATOM      3  O   UNL     1       4.202   5.878  16.680  0.00  0.00    +0.000 OA
ATOM      4  H   UNL     1       5.137   2.998  15.724  0.00  0.00    +0.000 HD
ENDROOT
BRANCH   2   5
ATOM      5  C   UNL     1       3.712   3.835  17.747  0.00  0.00    +0.000 A 
ATOM      6  C   UNL     1       3.886   2.445  17.611  0.00  0.00    +0.000 A 
ATOM      7  C   UNL     1       3.349   1.564  18.543  0.00  0.00    +0.000 A 
ATOM      8  C   UNL     1       2.631   2.062  19.625  0.00  0.00    +0.000 A 
ATOM      9  C   UNL     1       2.426   3.447  19.782  0.00  0.00    +0.000 A 
ATOM     10  C   UNL     1       2.958   4.334  18.826  0.00  0.00    +0.000 A 
ATOM     11 CL   UNL     1       2.622   6.031  18.983  0.00  0.00    +0.000 Cl
BRANCH   9  12
ATOM     12  C   UNL     1       1.656   3.941  20.982  0.00  0.00    +0.000 C 
ATOM     13  F   UNL     1       0.549   4.666  20.647  0.00  0.00    +0.000 F 
ATOM     14  F   UNL     1       1.199   2.927  21.766  0.00  0.00    +0.000 F 
ATOM     15  F   UNL     1       2.387   4.757  21.791  0.00  0.00    +0.000 F 
ENDBRANCH   9  12
ENDBRANCH   2   5
BRANCH   1  17
ATOM     16  C   UNL     1       5.698   3.981  13.304  0.00  0.00    +0.000 C 
ATOM     17  C   UNL     1       5.762   4.720  14.637  0.00  0.00    +0.000 C 
BRANCH  17  18
ATOM     18  C   UNL     1       7.195   5.105  15.003  0.00  0.00    +0.000 C 
ATOM     19  O   UNL     1       8.079   5.384  14.198  0.00  0.00    +0.000 OA
BRANCH  18  20
ATOM     20  C   UNL     1       7.481   5.318  16.483  0.00  0.00    +0.000 C 
ATOM     21  N   UNL     1       7.387   6.615  16.907  0.00  0.00    +0.000 N 
ATOM     22  O   UNL     1       7.768   4.380  17.211  0.00  0.00    +0.000 OA
ATOM     23  H   UNL     1       7.099   7.349  16.270  0.00  0.00    +0.000 HD
ATOM     24  H   UNL     1       7.502   6.821  17.889  0.00  0.00    +0.000 HD
ENDBRANCH  18  20
ENDBRANCH  17  18
ENDBRANCH   1  17
TORSDOF 5
ENDMDL
MODEL 5
REMARK VINA RESULT:      -7.6      1.582      2.405
REMARK  Name = 
REMARK  6 active torsions:
REMARK  status: ('A' for Active; 'I' for Inactive)
REMARK    1  A    between atoms: C_1  and  C_2
REMARK    2  A    between atoms: C_2  and  N_3
REMARK    3  A    between atoms: C_2  and  C_17
REMARK    4  A    between atoms: C_4  and  C_6
REMARK    5  A    between atoms: C_10  and  C_11
REMARK    6  A    between atoms: C_17  and  C_19
REMARK                            x       y       z     vdW  Elec       q    Type
REMARK                         _______ _______ _______ _____ _____    ______ ____
ROOT
ATOM      1  N   UNL     1       4.633   5.015  16.743  0.00  0.00    +0.000 N 
ATOM      2  C   UNL     1       4.029   6.031  17.447  0.00  0.00    +0.000 C 
ATOM      3  O   UNL     1       4.045   7.193  17.053  0.00  0.00    +0.000 OA
ATOM      4  H   UNL     1       4.559   4.060  17.079  0.00  0.00    +0.000 HD
ENDROOT
BRANCH   2   5
ATOM      5  C   UNL     1       3.243   5.668  18.661  0.00  0.00    +0.000 A 
ATOM      6  C   UNL     1       2.557   6.735  19.271  0.00  0.00    +0.000 A 
ATOM      7  C   UNL     1       1.764   6.526  20.394  0.00  0.00    +0.000 A 
ATOM      8  C   UNL     1       1.645   5.244  20.920  0.00  0.00    +0.000 A 
ATOM      9  C   UNL     1       2.330   4.157  20.343  0.00  0.00    +0.000 A 
ATOM     10  C   UNL     1       3.146   4.378  19.215  0.00  0.00    +0.000 A 
ATOM     11 CL   UNL     1       4.054   3.047  18.567  0.00  0.00    +0.000 Cl
BRANCH   9  12
ATOM     12  C   UNL     1       2.156   2.781  20.938  0.00  0.00    +0.000 C 
ATOM     13  F   UNL     1       1.788   1.842  20.018  0.00  0.00    +0.000 F 
ATOM     14  F   UNL     1       3.299   2.305  21.501  0.00  0.00    +0.000 F 
ATOM     15  F   UNL     1       1.198   2.731  21.905  0.00  0.00    +0.000 F 
ENDBRANCH   9  12
ENDBRANCH   2   5
BRANCH   1  17
ATOM     16  C   UNL     1       5.122   4.296  14.421  0.00  0.00    +0.000 C 
ATOM     17  C   UNL     1       5.448   5.259  15.558  0.00  0.00    +0.000 C 
BRANCH  17  18
ATOM     18  C   UNL     1       6.948   5.305  15.849  0.00  0.00    +0.000 C 
ATOM     19  O   UNL     1       7.829   5.398  14.998  0.00  0.00    +0.000 OA
BRANCH  18  20
ATOM     20  C   UNL     1       7.350   5.413  17.312  0.00  0.00    +0.000 C 
ATOM     21  N   UNL     1       7.744   4.237  17.889  0.00  0.00    +0.000 N 
ATOM     22  O   UNL     1       7.316   6.484  17.898  0.00  0.00    +0.000 OA
ATOM     23  H   UNL     1       7.799   3.384  17.344  0.00  0.00    +0.000 HD
ATOM     24  H   UNL     1       8.085   4.245  18.840  0.00  0.00    +0.000 HD
ENDBRANCH  18  20
ENDBRANCH  17  18
ENDBRANCH   1  17
TORSDOF 5
ENDMDL
MODEL 6
REMARK VINA RESULT:      -7.6      1.852      2.559
REMARK  Name = 
REMARK  6 active torsions:
REMARK  status: ('A' for Active; 'I' for Inactive)
REMARK    1  A    between atoms: C_1  and  C_2
REMARK    2  A    between atoms: C_2  and  N_3
REMARK    3  A    between atoms: C_2  and  C_17
REMARK    4  A    between atoms: C_4  and  C_6
REMARK    5  A    between atoms: C_10  and  C_11
REMARK    6  A    between atoms: C_17  and  C_19
REMARK                            x       y       z     vdW  Elec       q    Type
REMARK                         _______ _______ _______ _____ _____    ______ ____
ROOT
ATOM      1  N   UNL     1       4.995   5.627  17.307  0.00  0.00    +0.000 N 
ATOM      2  C   UNL     1       3.891   6.347  17.703  0.00  0.00    +0.000 C 
ATOM      3  O   UNL     1       3.624   7.444  17.222  0.00  0.00    +0.000 OA
ATOM      4  H   UNL     1       5.157   4.704  17.695  0.00  0.00    +0.000 HD
ENDROOT
BRANCH   2   5
ATOM      5  C   UNL     1       2.946   5.705  18.661  0.00  0.00    +0.000 A 
ATOM      6  C   UNL     1       2.506   6.531  19.712  0.00  0.00    +0.000 A 
ATOM      7  C   UNL     1       1.601   6.063  20.658  0.00  0.00    +0.000 A 
ATOM      8  C   UNL     1       1.123   4.760  20.564  0.00  0.00    +0.000 A 
ATOM      9  C   UNL     1       1.555   3.903  19.534  0.00  0.00    +0.000 A 
ATOM     10  C   UNL     1       2.485   4.377  18.588  0.00  0.00    +0.000 A 
ATOM     11 CL   UNL     1       3.077   3.282  17.376  0.00  0.00    +0.000 Cl
BRANCH   9  12
ATOM     12  C   UNL     1       0.994   2.504  19.462  0.00  0.00    +0.000 C 
ATOM     13  F   UNL     1       0.284   2.154  20.574  0.00  0.00    +0.000 F 
ATOM     14  F   UNL     1       0.136   2.336  18.420  0.00  0.00    +0.000 F 
ATOM     15  F   UNL     1       1.952   1.545  19.333  0.00  0.00    +0.000 F 
ENDBRANCH   9  12
ENDBRANCH   2   5
BRANCH   1  17
ATOM     16  C   UNL     1       6.278   5.233  15.222  0.00  0.00    +0.000 C 
ATOM     17  C   UNL     1       5.997   6.168  16.394  0.00  0.00    +0.000 C 
BRANCH  17  18
ATOM     18  C   UNL     1       7.284   6.604  17.093  0.00  0.00    +0.000 C 
ATOM     19  O   UNL     1       7.866   7.668  16.900  0.00  0.00    +0.000 OA
BRANCH  18  20
ATOM     20  C   UNL     1       7.771   5.718  18.230  0.00  0.00    +0.000 C 
ATOM     21  N   UNL     1       8.193   6.391  19.344  0.00  0.00    +0.000 N 
ATOM     22  O   UNL     1       7.772   4.502  18.125  0.00  0.00    +0.000 OA
ATOM     23  H   UNL     1       8.127   7.401  19.396  0.00  0.00    +0.000 HD
ATOM     24  H   UNL     1       8.470   5.865  20.161  0.00  0.00    +0.000 HD
ENDBRANCH  18  20
ENDBRANCH  17  18
ENDBRANCH   1  17
TORSDOF 5
ENDMDL
MODEL 7
REMARK VINA RESULT:      -7.6      1.593      2.373
REMARK  Name = 
REMARK  6 active torsions:
REMARK  status: ('A' for Active; 'I' for Inactive)
REMARK    1  A    between atoms: C_1  and  C_2
REMARK    2  A    between atoms: C_2  and  N_3
REMARK    3  A    between atoms: C_2  and  C_17
REMARK    4  A    between atoms: C_4  and  C_6
REMARK    5  A    between atoms: C_10  and  C_11
REMARK    6  A    between atoms: C_17  and  C_19
REMARK                            x       y       z     vdW  Elec       q    Type
REMARK                         _______ _______ _______ _____ _____    ______ ____
ROOT
ATOM      1  N   UNL     1       5.008   5.242  17.409  0.00  0.00    +0.000 N 
ATOM      2  C   UNL     1       4.149   6.178  17.937  0.00  0.00    +0.000 C 
ATOM      3  O   UNL     1       4.073   7.317  17.487  0.00  0.00    +0.000 OA
ATOM      4  H   UNL     1       5.009   4.298  17.780  0.00  0.00    +0.000 HD
ENDROOT
BRANCH   2   5
ATOM      5  C   UNL     1       3.214   5.739  19.012  0.00  0.00    +0.000 A 
ATOM      6  C   UNL     1       2.406   6.756  19.554  0.00  0.00    +0.000 A 
ATOM      7  C   UNL     1       1.471   6.473  20.544  0.00  0.00    +0.000 A 
ATOM      8  C   UNL     1       1.331   5.168  21.003  0.00  0.00    +0.000 A 
ATOM      9  C   UNL     1       2.134   4.130  20.493  0.00  0.00    +0.000 A 
ATOM     10  C   UNL     1       3.092   4.425  19.502  0.00  0.00    +0.000 A 
ATOM     11 CL   UNL     1       4.137   3.154  18.945  0.00  0.00    +0.000 Cl
BRANCH   9  12
ATOM     12  C   UNL     1       1.933   2.726  21.009  0.00  0.00    +0.000 C 
ATOM     13  F   UNL     1       3.009   2.252  21.703  0.00  0.00    +0.000 F 
ATOM     14  F   UNL     1       0.880   2.628  21.865  0.00  0.00    +0.000 F 
ATOM     15  F   UNL     1       1.715   1.815  20.021  0.00  0.00    +0.000 F 
ENDBRANCH   9  12
ENDBRANCH   2   5
BRANCH   1  17
ATOM     16  C   UNL     1       6.231   4.403  15.422  0.00  0.00    +0.000 C 
ATOM     17  C   UNL     1       5.983   5.569  16.373  0.00  0.00    +0.000 C 
BRANCH  17  18
ATOM     18  C   UNL     1       7.289   6.139  16.924  0.00  0.00    +0.000 C 
ATOM     19  O   UNL     1       7.899   7.093  16.448  0.00  0.00    +0.000 OA
BRANCH  18  20
ATOM     20  C   UNL     1       7.763   5.579  18.257  0.00  0.00    +0.000 C 
ATOM     21  N   UNL     1       8.192   6.517  19.156  0.00  0.00    +0.000 N 
ATOM     22  O   UNL     1       7.746   4.378  18.479  0.00  0.00    +0.000 OA
ATOM     23  H   UNL     1       8.141   7.506  18.938  0.00  0.00    +0.000 HD
ATOM     24  H   UNL     1       8.462   6.223  20.083  0.00  0.00    +0.000 HD
ENDBRANCH  18  20
ENDBRANCH  17  18
ENDBRANCH   1  17
TORSDOF 5
ENDMDL
MODEL 8
REMARK VINA RESULT:      -7.5      1.310      1.611
REMARK  Name = 
REMARK  6 active torsions:
REMARK  status: ('A' for Active; 'I' for Inactive)
REMARK    1  A    between atoms: C_1  and  C_2
REMARK    2  A    between atoms: C_2  and  N_3
REMARK    3  A    between atoms: C_2  and  C_17
REMARK    4  A    between atoms: C_4  and  C_6
REMARK    5  A    between atoms: C_10  and  C_11
REMARK    6  A    between atoms: C_17  and  C_19
REMARK                            x       y       z     vdW  Elec       q    Type
REMARK                         _______ _______ _______ _____ _____    ______ ____
ROOT
ATOM      1  N   UNL     1       5.967   5.743  18.809  0.00  0.00    +0.000 N 
ATOM      2  C   UNL     1       4.683   5.809  18.318  0.00  0.00    +0.000 C 
ATOM      3  O   UNL     1       4.451   6.037  17.135  0.00  0.00    +0.000 OA
ATOM      4  H   UNL     1       6.119   5.507  19.784  0.00  0.00    +0.000 HD
ENDROOT
BRANCH   2   5
ATOM      5  C   UNL     1       3.564   5.477  19.245  0.00  0.00    +0.000 A 
ATOM      6  C   UNL     1       2.728   6.557  19.584  0.00  0.00    +0.000 A 
ATOM      7  C   UNL     1       1.630   6.376  20.418  0.00  0.00    +0.000 A 
ATOM      8  C   UNL     1       1.353   5.110  20.923  0.00  0.00    +0.000 A 
ATOM      9  C   UNL     1       2.178   4.011  20.615  0.00  0.00    +0.000 A 
ATOM     10  C   UNL     1       3.299   4.203  19.783  0.00  0.00    +0.000 A 
ATOM     11 CL   UNL     1       4.358   2.860  19.484  0.00  0.00    +0.000 Cl
BRANCH   9  12
ATOM     12  C   UNL     1       1.827   2.653  21.171  0.00  0.00    +0.000 C 
ATOM     13  F   UNL     1       2.820   2.116  21.939  0.00  0.00    +0.000 F 
ATOM     14  F   UNL     1       0.728   2.683  21.973  0.00  0.00    +0.000 F 
ATOM     15  F   UNL     1       1.578   1.724  20.207  0.00  0.00    +0.000 F 
ENDBRANCH   9  12
ENDBRANCH   2   5
BRANCH   1  17
ATOM     16  C   UNL     1       6.904   7.298  17.119  0.00  0.00    +0.000 C 
ATOM     17  C   UNL     1       7.135   6.073  17.998  0.00  0.00    +0.000 C 
BRANCH  17  18
ATOM     18  C   UNL     1       7.669   4.889  17.192  0.00  0.00    +0.000 C 
ATOM     19  O   UNL     1       8.376   3.991  17.641  0.00  0.00    +0.000 OA
BRANCH  18  20
ATOM     20  C   UNL     1       7.138   4.741  15.774  0.00  0.00    +0.000 C 
ATOM     21  N   UNL     1       6.032   3.943  15.655  0.00  0.00    +0.000 N 
ATOM     22  O   UNL     1       7.677   5.305  14.836  0.00  0.00    +0.000 OA
ATOM     23  H   UNL     1       5.595   3.536  16.473  0.00  0.00    +0.000 HD
ATOM     24  H   UNL     1       5.588   3.850  14.753  0.00  0.00    +0.000 HD
ENDBRANCH  18  20
ENDBRANCH  17  18
ENDBRANCH   1  17
TORSDOF 5
ENDMDL
MODEL 9
REMARK VINA RESULT:      -7.4      3.763      4.996
REMARK  Name = 
REMARK  6 active torsions:
REMARK  status: ('A' for Active; 'I' for Inactive)
REMARK    1  A    between atoms: C_1  and  C_2
REMARK    2  A    between atoms: C_2  and  N_3
REMARK    3  A    between atoms: C_2  and  C_17
REMARK    4  A    between atoms: C_4  and  C_6
REMARK    5  A    between atoms: C_10  and  C_11
REMARK    6  A    between atoms: C_17  and  C_19
REMARK                            x       y       z     vdW  Elec       q    Type
REMARK                         _______ _______ _______ _____ _____    ______ ____
ROOT
ATOM      1  N   UNL     1       2.860   5.436  18.174  0.00  0.00    +0.000 N 
ATOM      2  C   UNL     1       3.270   6.733  17.967  0.00  0.00    +0.000 C 
ATOM      3  O   UNL     1       4.240   7.004  17.266  0.00  0.00    +0.000 OA
ATOM      4  H   UNL     1       2.026   5.255  18.722  0.00  0.00    +0.000 HD
ENDROOT
BRANCH   2   5
ATOM      5  C   UNL     1       2.427   7.828  18.526  0.00  0.00    +0.000 A 
ATOM      6  C   UNL     1       2.289   8.959  17.700  0.00  0.00    +0.000 A 
ATOM      7  C   UNL     1       1.507  10.039  18.093  0.00  0.00    +0.000 A 
ATOM      8  C   UNL     1       0.850  10.001  19.319  0.00  0.00    +0.000 A 
ATOM      9  C   UNL     1       0.979   8.891  20.176  0.00  0.00    +0.000 A 
ATOM     10  C   UNL     1       1.787   7.807  19.780  0.00  0.00    +0.000 A 
ATOM     11 CL   UNL     1       2.010   6.484  20.884  0.00  0.00    +0.000 Cl
BRANCH   9  12
ATOM     12  C   UNL     1       0.233   8.888  21.487  0.00  0.00    +0.000 C 
ATOM     13  F   UNL     1       1.054   8.766  22.571  0.00  0.00    +0.000 F 
ATOM     14  F   UNL     1      -0.469  10.035  21.694  0.00  0.00    +0.000 F 
ATOM     15  F   UNL     1      -0.658   7.864  21.597  0.00  0.00    +0.000 F 
ENDBRANCH   9  12
ENDBRANCH   2   5
BRANCH   1  17
ATOM     16  C   UNL     1       2.722   3.151  17.220  0.00  0.00    +0.000 C 
ATOM     17  C   UNL     1       3.622   4.287  17.694  0.00  0.00    +0.000 C 
BRANCH  17  18
ATOM     18  C   UNL     1       4.677   3.799  18.685  0.00  0.00    +0.000 C 
ATOM     19  O   UNL     1       5.846   4.175  18.714  0.00  0.00    +0.000 OA
BRANCH  18  20
ATOM     20  C   UNL     1       4.183   2.911  19.818  0.00  0.00    +0.000 C 
ATOM     21  N   UNL     1       4.913   1.771  20.016  0.00  0.00    +0.000 N 
ATOM     22  O   UNL     1       3.206   3.221  20.482  0.00  0.00    +0.000 OA
ATOM     23  H   UNL     1       5.744   1.585  19.467  0.00  0.00    +0.000 HD
ATOM     24  H   UNL     1       4.680   1.166  20.791  0.00  0.00    +0.000 HD
ENDBRANCH  18  20
ENDBRANCH  17  18
ENDBRANCH   1  17
TORSDOF 5
ENDMDL
