MODEL 1
REMARK VINA RESULT:      -7.5      0.000      0.000
REMARK  Name = 
REMARK  2 active torsions:
REMARK  status: ('A' for Active; 'I' for Inactive)
REMARK    1  A    between atoms: C_1  and  C_2
REMARK    2  A    between atoms: C_5  and  C_6
REMARK                            x       y       z     vdW  Elec       q    Type
REMARK                         _______ _______ _______ _____ _____    ______ ____
ROOT
ATOM      1  C   UNL     1       3.449   4.776  19.127  0.00  0.00    +0.000 C 
ATOM      2  O   UNL     1       3.387   3.835  19.922  0.00  0.00    +0.000 OA
ATOM      3  N   UNL     1       2.676   5.924  19.284  0.00  0.00    +0.000 N 
ATOM      4  C   UNL     1       1.933   6.114  20.537  0.00  0.00    +0.000 C 
ATOM      5  C   UNL     1       1.971   7.588  20.989  0.00  0.00    +0.000 C 
ATOM      6  N   UNL     1       1.539   8.445  19.887  0.00  0.00    +0.000 N 
ATOM      7  C   UNL     1       0.696   9.502  20.094  0.00  0.00    +0.000 A 
ATOM      8  N   UNL     1       0.310  10.226  19.028  0.00  0.00    +0.000 NA
ATOM      9  C   UNL     1      -0.603  11.194  19.221  0.00  0.00    +0.000 A 
ATOM     10  C   UNL     1      -1.150  11.487  20.445  0.00  0.00    +0.000 A 
ATOM     11  C   UNL     1      -0.665  10.740  21.496  0.00  0.00    +0.000 A 
ATOM     12  N   UNL     1       0.235   9.747  21.331  0.00  0.00    +0.000 NA
ATOM     13  C   UNL     1      -1.190  10.984  22.883  0.00  0.00    +0.000 C 
ATOM     14  C   UNL     1      -1.824  12.367  22.973  0.00  0.00    +0.000 C 
ATOM     15  O   UNL     1      -2.784  12.526  21.922  0.00  0.00    +0.000 OA
ATOM     16  C   UNL     1      -2.151  12.578  20.638  0.00  0.00    +0.000 C 
ATOM     17  C   UNL     1       2.259   8.293  18.622  0.00  0.00    +0.000 C 
ATOM     18  C   UNL     1       2.246   6.815  18.193  0.00  0.00    +0.000 C 
ENDROOT
BRANCH   1  23
ATOM     19  C   UNL     1       7.146   4.864  14.817  0.00  0.00    +0.000 C 
ATOM     20  C   UNL     1       6.202   4.776  15.974  0.00  0.00    +0.000 A 
ATOM     21  C   UNL     1       5.003   4.077  15.877  0.00  0.00    +0.000 A 
ATOM     22  N   UNL     1       4.098   4.019  16.881  0.00  0.00    +0.000 NA
ATOM     23  C   UNL     1       4.442   4.683  18.018  0.00  0.00    +0.000 A 
ATOM     24  C   UNL     1       5.637   5.381  18.121  0.00  0.00    +0.000 A 
ATOM     25  N   UNL     1       6.544   5.434  17.111  0.00  0.00    +0.000 NA
ENDBRANCH   1  23
TORSDOF 1
ENDMDL
MODEL 2
REMARK VINA RESULT:      -7.3      2.134      9.141
REMARK  Name = 
REMARK  2 active torsions:
REMARK  status: ('A' for Active; 'I' for Inactive)
REMARK    1  A    between atoms: C_1  and  C_2
REMARK    2  A    between atoms: C_5  and  C_6
REMARK                            x       y       z     vdW  Elec       q    Type
REMARK                         _______ _______ _______ _____ _____    ______ ____
ROOT
ATOM      1  C   UNL     1      -0.550  11.922  19.361  0.00  0.00    +0.000 C 
ATOM      2  O   UNL     1      -0.784  12.450  18.272  0.00  0.00    +0.000 OA
ATOM      3  N   UNL     1      -0.007  10.644  19.459  0.00  0.00    +0.000 N 
ATOM      4  C   UNL     1       0.501   9.994  18.243  0.00  0.00    +0.000 C 
ATOM      5  C   UNL     1       1.799   9.211  18.530  0.00  0.00    +0.000 C 
ATOM      6  N   UNL     1       1.581   8.309  19.660  0.00  0.00    +0.000 N 
ATOM      7  C   UNL     1       2.059   7.028  19.651  0.00  0.00    +0.000 A 
ATOM      8  N   UNL     1       1.790   6.241  20.708  0.00  0.00    +0.000 NA
ATOM      9  C   UNL     1       2.166   4.952  20.646  0.00  0.00    +0.000 A 
ATOM     10  C   UNL     1       2.817   4.402  19.571  0.00  0.00    +0.000 A 
ATOM     11  C   UNL     1       3.106   5.283  18.550  0.00  0.00    +0.000 A 
ATOM     12  N   UNL     1       2.722   6.577  18.574  0.00  0.00    +0.000 NA
ATOM     13  C   UNL     1       3.824   4.789  17.326  0.00  0.00    +0.000 C 
ATOM     14  C   UNL     1       4.555   3.487  17.632  0.00  0.00    +0.000 C 
ATOM     15  O   UNL     1       3.647   2.552  18.222  0.00  0.00    +0.000 OA
ATOM     16  C   UNL     1       3.241   2.971  19.531  0.00  0.00    +0.000 C 
ATOM     17  C   UNL     1       1.082   8.918  20.894  0.00  0.00    +0.000 C 
ATOM     18  C   UNL     1      -0.194   9.724  20.594  0.00  0.00    +0.000 C 
ENDROOT
BRANCH   1  23
ATOM     19  C   UNL     1      -1.307  14.655  24.281  0.00  0.00    +0.000 C 
ATOM     20  C   UNL     1      -1.122  14.000  22.950  0.00  0.00    +0.000 A 
ATOM     21  C   UNL     1      -2.202  13.482  22.244  0.00  0.00    +0.000 A 
ATOM     22  N   UNL     1      -2.071  12.833  21.063  0.00  0.00    +0.000 NA
ATOM     23  C   UNL     1      -0.800  12.730  20.590  0.00  0.00    +0.000 A 
ATOM     24  C   UNL     1       0.282  13.245  21.291  0.00  0.00    +0.000 A 
ATOM     25  N   UNL     1       0.145  13.898  22.474  0.00  0.00    +0.000 NA
ENDBRANCH   1  23
TORSDOF 1
ENDMDL
MODEL 3
REMARK VINA RESULT:      -7.3      0.760      1.083
REMARK  Name = 
REMARK  2 active torsions:
REMARK  status: ('A' for Active; 'I' for Inactive)
REMARK    1  A    between atoms: C_1  and  C_2
REMARK    2  A    between atoms: C_5  and  C_6
REMARK                            x       y       z     vdW  Elec       q    Type
REMARK                         _______ _______ _______ _____ _____    ______ ____
ROOT
ATOM      1  C   UNL     1       3.326   5.374  18.989  0.00  0.00    +0.000 C 
ATOM      2  O   UNL     1       3.346   4.434  19.787  0.00  0.00    +0.000 OA
ATOM      3  N   UNL     1       2.508   6.485  19.181  0.00  0.00    +0.000 N 
ATOM      4  C   UNL     1       1.818   6.644  20.468  0.00  0.00    +0.000 C 
ATOM      5  C   UNL     1       1.808   8.120  20.916  0.00  0.00    +0.000 C 
ATOM      6  N   UNL     1       1.284   8.952  19.834  0.00  0.00    +0.000 N 
ATOM      7  C   UNL     1       0.403   9.970  20.080  0.00  0.00    +0.000 A 
ATOM      8  N   UNL     1      -0.067  10.670  19.033  0.00  0.00    +0.000 NA
ATOM      9  C   UNL     1      -1.014  11.595  19.268  0.00  0.00    +0.000 A 
ATOM     10  C   UNL     1      -1.515  11.867  20.516  0.00  0.00    +0.000 A 
ATOM     11  C   UNL     1      -0.945  11.147  21.544  0.00  0.00    +0.000 A 
ATOM     12  N   UNL     1      -0.009  10.198  21.337  0.00  0.00    +0.000 NA
ATOM     13  C   UNL     1      -1.414  11.372  22.954  0.00  0.00    +0.000 C 
ATOM     14  C   UNL     1      -2.108  12.724  23.072  0.00  0.00    +0.000 C 
ATOM     15  O   UNL     1      -3.123  12.834  22.069  0.00  0.00    +0.000 OA
ATOM     16  C   UNL     1      -2.555  12.911  20.756  0.00  0.00    +0.000 C 
ATOM     17  C   UNL     1       1.949   8.829  18.536  0.00  0.00    +0.000 C 
ATOM     18  C   UNL     1       1.984   7.350  18.111  0.00  0.00    +0.000 C 
ENDROOT
BRANCH   1  23
ATOM     19  C   UNL     1       7.098   4.806  14.783  0.00  0.00    +0.000 C 
ATOM     20  C   UNL     1       6.066   5.003  15.847  0.00  0.00    +0.000 A 
ATOM     21  C   UNL     1       6.150   6.059  16.748  0.00  0.00    +0.000 A 
ATOM     22  N   UNL     1       5.268   6.241  17.758  0.00  0.00    +0.000 NA
ATOM     23  C   UNL     1       4.267   5.322  17.834  0.00  0.00    +0.000 A 
ATOM     24  C   UNL     1       4.178   4.266  16.937  0.00  0.00    +0.000 A 
ATOM     25  N   UNL     1       5.064   4.090  15.923  0.00  0.00    +0.000 NA
ENDBRANCH   1  23
TORSDOF 1
ENDMDL
MODEL 4
REMARK VINA RESULT:      -7.2      1.934      9.349
REMARK  Name = 
REMARK  2 active torsions:
REMARK  status: ('A' for Active; 'I' for Inactive)
REMARK    1  A    between atoms: C_1  and  C_2
REMARK    2  A    between atoms: C_5  and  C_6
REMARK                            x       y       z     vdW  Elec       q    Type
REMARK                         _______ _______ _______ _____ _____    ______ ____
ROOT
ATOM      1  C   UNL     1      -0.995  11.734  19.549  0.00  0.00    +0.000 C 
ATOM      2  O   UNL     1      -1.291  12.343  18.518  0.00  0.00    +0.000 OA
ATOM      3  N   UNL     1      -0.272  10.544  19.518  0.00  0.00    +0.000 N 
ATOM      4  C   UNL     1       0.339  10.117  18.253  0.00  0.00    +0.000 C 
ATOM      5  C   UNL     1       1.734   9.501  18.487  0.00  0.00    +0.000 C 
ATOM      6  N   UNL     1       1.638   8.455  19.503  0.00  0.00    +0.000 N 
ATOM      7  C   UNL     1       2.298   7.264  19.365  0.00  0.00    +0.000 A 
ATOM      8  N   UNL     1       2.134   6.332  20.320  0.00  0.00    +0.000 NA
ATOM      9  C   UNL     1       2.695   5.126  20.126  0.00  0.00    +0.000 A 
ATOM     10  C   UNL     1       3.431   4.802  19.015  0.00  0.00    +0.000 A 
ATOM     11  C   UNL     1       3.600   5.826  18.107  0.00  0.00    +0.000 A 
ATOM     12  N   UNL     1       3.032   7.040  18.263  0.00  0.00    +0.000 NA
ATOM     13  C   UNL     1       4.397   5.583  16.856  0.00  0.00    +0.000 C 
ATOM     14  C   UNL     1       5.306   4.372  17.035  0.00  0.00    +0.000 C 
ATOM     15  O   UNL     1       4.537   3.255  17.493  0.00  0.00    +0.000 OA
ATOM     16  C   UNL     1       4.060   3.461  18.828  0.00  0.00    +0.000 C 
ATOM     17  C   UNL     1       1.041   8.841  20.783  0.00  0.00    +0.000 C 
ATOM     18  C   UNL     1      -0.335   9.484  20.538  0.00  0.00    +0.000 C 
ENDROOT
BRANCH   1  23
ATOM     19  C   UNL     1      -2.581  14.452  24.275  0.00  0.00    +0.000 C 
ATOM     20  C   UNL     1      -2.159  13.673  23.071  0.00  0.00    +0.000 A 
ATOM     21  C   UNL     1      -0.815  13.464  22.780  0.00  0.00    +0.000 A 
ATOM     22  N   UNL     1      -0.391  12.813  21.673  0.00  0.00    +0.000 NA
ATOM     23  C   UNL     1      -1.373  12.352  20.852  0.00  0.00    +0.000 A 
ATOM     24  C   UNL     1      -2.716  12.557  21.137  0.00  0.00    +0.000 A 
ATOM     25  N   UNL     1      -3.137  13.209  22.253  0.00  0.00    +0.000 NA
ENDBRANCH   1  23
TORSDOF 1
ENDMDL
MODEL 5
REMARK VINA RESULT:      -7.1      1.074      1.209
REMARK  Name = 
REMARK  2 active torsions:
REMARK  status: ('A' for Active; 'I' for Inactive)
REMARK    1  A    between atoms: C_1  and  C_2
REMARK    2  A    between atoms: C_5  and  C_6
REMARK                            x       y       z     vdW  Elec       q    Type
REMARK                         _______ _______ _______ _____ _____    ______ ____
ROOT
ATOM      1  C   UNL     1       4.007   4.360  17.900  0.00  0.00    +0.000 C 
ATOM      2  O   UNL     1       3.919   3.290  18.507  0.00  0.00    +0.000 OA
ATOM      3  N   UNL     1       3.256   5.475  18.263  0.00  0.00    +0.000 N 
ATOM      4  C   UNL     1       2.507   5.447  19.526  0.00  0.00    +0.000 C 
ATOM      5  C   UNL     1       2.571   6.811  20.243  0.00  0.00    +0.000 C 
ATOM      6  N   UNL     1       2.166   7.866  19.316  0.00  0.00    +0.000 N 
ATOM      7  C   UNL     1       1.343   8.885  19.711  0.00  0.00    +0.000 A 
ATOM      8  N   UNL     1       0.980   9.801  18.796  0.00  0.00    +0.000 NA
ATOM      9  C   UNL     1       0.086  10.736  19.161  0.00  0.00    +0.000 A 
ATOM     10  C   UNL     1      -0.465  10.811  20.415  0.00  0.00    +0.000 A 
ATOM     11  C   UNL     1      -0.003   9.872  21.312  0.00  0.00    +0.000 A 
ATOM     12  N   UNL     1       0.878   8.908  20.971  0.00  0.00    +0.000 NA
ATOM     13  C   UNL     1      -0.534   9.867  22.718  0.00  0.00    +0.000 C 
ATOM     14  C   UNL     1      -1.140  11.224  23.059  0.00  0.00    +0.000 C 
ATOM     15  O   UNL     1      -2.088  11.594  22.052  0.00  0.00    +0.000 OA
ATOM     16  C   UNL     1      -1.444  11.869  20.803  0.00  0.00    +0.000 C 
ATOM     17  C   UNL     1       2.893   7.934  18.047  0.00  0.00    +0.000 C 
ATOM     18  C   UNL     1       2.852   6.561  17.354  0.00  0.00    +0.000 C 
ENDROOT
BRANCH   1  23
ATOM     19  C   UNL     1       7.739   5.161  13.696  0.00  0.00    +0.000 C 
ATOM     20  C   UNL     1       6.785   4.881  14.813  0.00  0.00    +0.000 A 
ATOM     21  C   UNL     1       5.569   4.245  14.582  0.00  0.00    +0.000 A 
ATOM     22  N   UNL     1       4.655   4.023  15.554  0.00  0.00    +0.000 NA
ATOM     23  C   UNL     1       5.006   4.451  16.797  0.00  0.00    +0.000 A 
ATOM     24  C   UNL     1       6.217   5.087  17.033  0.00  0.00    +0.000 A 
ATOM     25  N   UNL     1       7.133   5.305  16.054  0.00  0.00    +0.000 NA
ENDBRANCH   1  23
TORSDOF 1
ENDMDL
MODEL 6
REMARK VINA RESULT:      -7.0      2.190      3.200
REMARK  Name = 
REMARK  2 active torsions:
REMARK  status: ('A' for Active; 'I' for Inactive)
REMARK    1  A    between atoms: C_1  and  C_2
REMARK    2  A    between atoms: C_5  and  C_6
REMARK                            x       y       z     vdW  Elec       q    Type
REMARK                         _______ _______ _______ _____ _____    ______ ____
ROOT
ATOM      1  C   UNL     1       2.946   7.228  18.071  0.00  0.00    +0.000 C 
ATOM      2  O   UNL     1       3.551   7.660  17.087  0.00  0.00    +0.000 OA
ATOM      3  N   UNL     1       2.186   8.059  18.891  0.00  0.00    +0.000 N 
ATOM      4  C   UNL     1       1.921   9.436  18.456  0.00  0.00    +0.000 C 
ATOM      5  C   UNL     1       0.480   9.863  18.803  0.00  0.00    +0.000 C 
ATOM      6  N   UNL     1       0.227   9.610  20.220  0.00  0.00    +0.000 N 
ATOM      7  C   UNL     1      -0.442  10.516  20.997  0.00  0.00    +0.000 A 
ATOM      8  N   UNL     1      -0.606  10.235  22.302  0.00  0.00    +0.000 NA
ATOM      9  C   UNL     1      -1.166  11.176  23.083  0.00  0.00    +0.000 A 
ATOM     10  C   UNL     1      -1.587  12.396  22.618  0.00  0.00    +0.000 A 
ATOM     11  C   UNL     1      -1.435  12.588  21.262  0.00  0.00    +0.000 A 
ATOM     12  N   UNL     1      -0.857  11.672  20.456  0.00  0.00    +0.000 NA
ATOM     13  C   UNL     1      -1.871  13.887  20.644  0.00  0.00    +0.000 C 
ATOM     14  C   UNL     1      -2.869  14.596  21.553  0.00  0.00    +0.000 C 
ATOM     15  O   UNL     1      -2.326  14.702  22.873  0.00  0.00    +0.000 OA
ATOM     16  C   UNL     1      -2.222  13.418  23.501  0.00  0.00    +0.000 C 
ATOM     17  C   UNL     1       0.472   8.247  20.694  0.00  0.00    +0.000 C 
ATOM     18  C   UNL     1       1.900   7.817  20.315  0.00  0.00    +0.000 C 
ENDROOT
BRANCH   1  23
ATOM     19  C   UNL     1       3.429   1.604  18.692  0.00  0.00    +0.000 C 
ATOM     20  C   UNL     1       3.265   3.088  18.594  0.00  0.00    +0.000 A 
ATOM     21  C   UNL     1       2.116   3.654  18.053  0.00  0.00    +0.000 A 
ATOM     22  N   UNL     1       1.952   4.987  17.896  0.00  0.00    +0.000 NA
ATOM     23  C   UNL     1       2.989   5.759  18.321  0.00  0.00    +0.000 A 
ATOM     24  C   UNL     1       4.139   5.199  18.861  0.00  0.00    +0.000 A 
ATOM     25  N   UNL     1       4.297   3.859  19.019  0.00  0.00    +0.000 NA
ENDBRANCH   1  23
TORSDOF 1
ENDMDL
MODEL 7
REMARK VINA RESULT:      -6.7      2.091      9.083
REMARK  Name = 
REMARK  2 active torsions:
REMARK  status: ('A' for Active; 'I' for Inactive)
REMARK    1  A    between atoms: C_1  and  C_2
REMARK    2  A    between atoms: C_5  and  C_6
REMARK                            x       y       z     vdW  Elec       q    Type
REMARK                         _______ _______ _______ _____ _____    ______ ____
ROOT
ATOM      1  C   UNL     1      -0.392  11.217  22.358  0.00  0.00    +0.000 C 
ATOM      2  O   UNL     1      -0.534  10.970  23.558  0.00  0.00    +0.000 OA
ATOM      3  N   UNL     1       0.375  10.406  21.526  0.00  0.00    +0.000 N 
ATOM      4  C   UNL     1       0.847   9.112  22.035  0.00  0.00    +0.000 C 
ATOM      5  C   UNL     1       0.773   8.023  20.944  0.00  0.00    +0.000 C 
ATOM      6  N   UNL     1       1.458   8.494  19.742  0.00  0.00    +0.000 N 
ATOM      7  C   UNL     1       2.280   7.670  19.022  0.00  0.00    +0.000 A 
ATOM      8  N   UNL     1       2.908   8.181  17.947  0.00  0.00    +0.000 NA
ATOM      9  C   UNL     1       3.798   7.401  17.309  0.00  0.00    +0.000 A 
ATOM     10  C   UNL     1       4.088   6.115  17.686  0.00  0.00    +0.000 A 
ATOM     11  C   UNL     1       3.365   5.645  18.762  0.00  0.00    +0.000 A 
ATOM     12  N   UNL     1       2.482   6.410  19.437  0.00  0.00    +0.000 NA
ATOM     13  C   UNL     1       3.598   4.244  19.256  0.00  0.00    +0.000 C 
ATOM     14  C   UNL     1       4.253   3.401  18.167  0.00  0.00    +0.000 C 
ATOM     15  O   UNL     1       5.416   4.073  17.673  0.00  0.00    +0.000 OA
ATOM     16  C   UNL     1       5.068   5.261  16.951  0.00  0.00    +0.000 C 
ATOM     17  C   UNL     1       1.013   9.777  19.197  0.00  0.00    +0.000 C 
ATOM     18  C   UNL     1       1.059  10.850  20.299  0.00  0.00    +0.000 C 
ENDROOT
BRANCH   1  23
ATOM     19  C   UNL     1      -3.339  15.762  20.654  0.00  0.00    +0.000 C 
ATOM     20  C   UNL     1      -2.530  14.563  21.035  0.00  0.00    +0.000 A 
ATOM     21  C   UNL     1      -2.971  13.275  20.751  0.00  0.00    +0.000 A 
ATOM     22  N   UNL     1      -2.297  12.164  21.127  0.00  0.00    +0.000 NA
ATOM     23  C   UNL     1      -1.133  12.383  21.798  0.00  0.00    +0.000 A 
ATOM     24  C   UNL     1      -0.689  13.667  22.085  0.00  0.00    +0.000 A 
ATOM     25  N   UNL     1      -1.369  14.779  21.702  0.00  0.00    +0.000 NA
ENDBRANCH   1  23
TORSDOF 1
ENDMDL
MODEL 8
REMARK VINA RESULT:      -6.7      2.243      3.445
REMARK  Name = 
REMARK  2 active torsions:
REMARK  status: ('A' for Active; 'I' for Inactive)
REMARK    1  A    between atoms: C_1  and  C_2
REMARK    2  A    between atoms: C_5  and  C_6
REMARK                            x       y       z     vdW  Elec       q    Type
REMARK                         _______ _______ _______ _____ _____    ______ ____
ROOT
ATOM      1  C   UNL     1       2.892   7.553  17.966  0.00  0.00    +0.000 C 
ATOM      2  O   UNL     1       3.395   8.016  16.940  0.00  0.00    +0.000 OA
ATOM      3  N   UNL     1       2.107   8.329  18.815  0.00  0.00    +0.000 N 
ATOM      4  C   UNL     1       1.688   9.665  18.372  0.00  0.00    +0.000 C 
ATOM      5  C   UNL     1       0.236   9.964  18.798  0.00  0.00    +0.000 C 
ATOM      6  N   UNL     1       0.092   9.723  20.232  0.00  0.00    +0.000 N 
ATOM      7  C   UNL     1      -0.613  10.581  21.032  0.00  0.00    +0.000 A 
ATOM      8  N   UNL     1      -0.673  10.318  22.349  0.00  0.00    +0.000 NA
ATOM      9  C   UNL     1      -1.273  11.221  23.145  0.00  0.00    +0.000 A 
ATOM     10  C   UNL     1      -1.834  12.384  22.684  0.00  0.00    +0.000 A 
ATOM     11  C   UNL     1      -1.781  12.557  21.317  0.00  0.00    +0.000 A 
ATOM     12  N   UNL     1      -1.167  11.680  20.495  0.00  0.00    +0.000 NA
ATOM     13  C   UNL     1      -2.372  13.795  20.703  0.00  0.00    +0.000 C 
ATOM     14  C   UNL     1      -3.377  14.430  21.658  0.00  0.00    +0.000 C 
ATOM     15  O   UNL     1      -2.771  14.617  22.941  0.00  0.00    +0.000 OA
ATOM     16  C   UNL     1      -2.510  13.365  23.585  0.00  0.00    +0.000 C 
ATOM     17  C   UNL     1       0.492   8.401  20.715  0.00  0.00    +0.000 C 
ATOM     18  C   UNL     1       1.929   8.096  20.258  0.00  0.00    +0.000 C 
ENDROOT
BRANCH   1  23
ATOM     19  C   UNL     1       3.333   2.064  19.349  0.00  0.00    +0.000 C 
ATOM     20  C   UNL     1       3.252   3.494  18.920  0.00  0.00    +0.000 A 
ATOM     21  C   UNL     1       4.297   4.380  19.159  0.00  0.00    +0.000 A 
ATOM     22  N   UNL     1       4.241   5.693  18.837  0.00  0.00    +0.000 NA
ATOM     23  C   UNL     1       3.088   6.101  18.240  0.00  0.00    +0.000 A 
ATOM     24  C   UNL     1       2.042   5.221  17.999  0.00  0.00    +0.000 A 
ATOM     25  N   UNL     1       2.105   3.903  18.322  0.00  0.00    +0.000 NA
ENDBRANCH   1  23
TORSDOF 1
ENDMDL
MODEL 9
REMARK VINA RESULT:      -6.6      2.569      8.821
REMARK  Name = 
REMARK  2 active torsions:
REMARK  status: ('A' for Active; 'I' for Inactive)
REMARK    1  A    between atoms: C_1  and  C_2
REMARK    2  A    between atoms: C_5  and  C_6
REMARK                            x       y       z     vdW  Elec       q    Type
REMARK                         _______ _______ _______ _____ _____    ______ ____
ROOT
ATOM      1  C   UNL     1      -0.551  11.906  22.304  0.00  0.00    +0.000 C 
ATOM      2  O   UNL     1      -1.136  11.928  23.389  0.00  0.00    +0.000 OA
ATOM      3  N   UNL     1       0.098  10.764  21.841  0.00  0.00    +0.000 N 
ATOM      4  C   UNL     1      -0.100   9.496  22.556  0.00  0.00    +0.000 C 
ATOM      5  C   UNL     1      -0.211   8.313  21.572  0.00  0.00    +0.000 C 
ATOM      6  N   UNL     1       0.933   8.330  20.662  0.00  0.00    +0.000 N 
ATOM      7  C   UNL     1       1.592   7.179  20.324  0.00  0.00    +0.000 A 
ATOM      8  N   UNL     1       2.659   7.273  19.512  0.00  0.00    +0.000 NA
ATOM      9  C   UNL     1       3.368   6.155  19.271  0.00  0.00    +0.000 A 
ATOM     10  C   UNL     1       3.053   4.929  19.800  0.00  0.00    +0.000 A 
ATOM     11  C   UNL     1       1.915   4.903  20.578  0.00  0.00    +0.000 A 
ATOM     12  N   UNL     1       1.196   6.011  20.855  0.00  0.00    +0.000 NA
ATOM     13  C   UNL     1       1.474   3.608  21.201  0.00  0.00    +0.000 C 
ATOM     14  C   UNL     1       2.092   2.427  20.461  0.00  0.00    +0.000 C 
ATOM     15  O   UNL     1       3.510   2.606  20.369  0.00  0.00    +0.000 OA
ATOM     16  C   UNL     1       3.845   3.698  19.505  0.00  0.00    +0.000 C 
ATOM     17  C   UNL     1       1.162   9.573  19.924  0.00  0.00    +0.000 C 
ATOM     18  C   UNL     1       1.239  10.752  20.909  0.00  0.00    +0.000 C 
ENDROOT
BRANCH   1  23
ATOM     19  C   UNL     1      -0.505  16.366  18.789  0.00  0.00    +0.000 C 
ATOM     20  C   UNL     1      -0.580  15.218  19.745  0.00  0.00    +0.000 A 
ATOM     21  C   UNL     1      -0.039  15.306  21.023  0.00  0.00    +0.000 A 
ATOM     22  N   UNL     1      -0.037  14.275  21.898  0.00  0.00    +0.000 NA
ATOM     23  C   UNL     1      -0.621  13.129  21.453  0.00  0.00    +0.000 A 
ATOM     24  C   UNL     1      -1.162  13.035  20.178  0.00  0.00    +0.000 A 
ATOM     25  N   UNL     1      -1.164  14.075  19.305  0.00  0.00    +0.000 NA
ENDBRANCH   1  23
TORSDOF 1
ENDMDL
