MODEL 1
REMARK VINA RESULT:      -8.4      0.000      0.000
REMARK  Name = 
REMARK  5 active torsions:
REMARK  status: ('A' for Active; 'I' for Inactive)
REMARK    1  A    between atoms: C_1  and  N_2
REMARK    2  A    between atoms: N_2  and  C_3
REMARK    3  A    between atoms: C_4  and  C_6
REMARK    4  A    between atoms: C_10  and  C_11
REMARK    5  A    between atoms: C_11  and  N_12
REMARK                            x       y       z     vdW  Elec       q    Type
REMARK                         _______ _______ _______ _____ _____    ______ ____
ROOT
ATOM      1  N   UNL     1       1.775   8.091  20.280  0.00  0.00    +0.000 NA
ATOM      2  C   UNL     1       0.713   8.868  20.893  0.00  0.00    +0.000 C 
ATOM      3  C   UNL     1       0.924  10.350  20.603  0.00  0.00    +0.000 C 
ATOM      4  C   UNL     1      -0.089  10.709  19.567  0.00  0.00    +0.000 A 
ATOM      5  C   UNL     1      -1.144  11.541  19.985  0.00  0.00    +0.000 A 
ATOM      6  C   UNL     1      -2.309  11.630  19.231  0.00  0.00    +0.000 A 
ATOM      7  N   UNL     1      -3.470  12.229  19.661  0.00  0.00    +0.000 NA
ATOM      8  C   UNL     1      -4.413  12.020  18.792  0.00  0.00    +0.000 A 
ATOM      9  N   UNL     1      -5.691  12.347  19.060  0.00  0.00    +0.000 N 
ATOM     10  S   UNL     1      -3.922  11.283  17.319  0.00  0.00    +0.000 S 
ATOM     11  C   UNL     1      -2.352  11.009  17.984  0.00  0.00    +0.000 A 
ATOM     12  C   UNL     1      -1.250  10.274  17.484  0.00  0.00    +0.000 A 
ATOM     13  C   UNL     1      -0.137  10.048  18.332  0.00  0.00    +0.000 A 
ATOM     14  C   UNL     1       0.922   9.038  17.885  0.00  0.00    +0.000 C 
ATOM     15  C   UNL     1       1.965   8.335  18.839  0.00  0.00    +0.000 C 
ATOM     16  H   UNL     1      -5.834  12.888  19.902  0.00  0.00    +0.000 HD
ATOM     17  H   UNL     1      -6.324  12.557  18.300  0.00  0.00    +0.000 HD
ENDROOT
BRANCH   1  18
ATOM     18  C   UNL     1       1.700   6.705  20.744  0.00  0.00    +0.000 C 
BRANCH  18  23
ATOM     19  C   UNL     1       4.065   4.670  18.577  0.00  0.00    +0.000 A 
ATOM     20  C   UNL     1       3.182   3.805  17.921  0.00  0.00    +0.000 A 
ATOM     21  C   UNL     1       1.810   3.879  18.171  0.00  0.00    +0.000 A 
ATOM     22  C   UNL     1       1.318   4.799  19.100  0.00  0.00    +0.000 A 
ATOM     23  C   UNL     1       2.190   5.676  19.756  0.00  0.00    +0.000 A 
ATOM     24  C   UNL     1       3.554   5.640  19.439  0.00  0.00    +0.000 A 
BRANCH  19  28
ATOM     25  C   UNL     1       7.439   4.718  16.802  0.00  0.00    +0.000 C 
ATOM     26  N   UNL     1       6.011   4.884  17.006  0.00  0.00    +0.000 N 
ATOM     27  C   UNL     1       5.266   5.549  15.943  0.00  0.00    +0.000 C 
ATOM     28  C   UNL     1       5.521   4.579  18.281  0.00  0.00    +0.000 C 
ATOM     29  O   UNL     1       6.268   4.243  19.205  0.00  0.00    +0.000 OA
ENDBRANCH  19  28
ENDBRANCH  18  23
ENDBRANCH   1  18
TORSDOF 3
ENDMDL
MODEL 2
REMARK VINA RESULT:      -8.1      3.535      8.849
REMARK  Name = 
REMARK  5 active torsions:
REMARK  status: ('A' for Active; 'I' for Inactive)
REMARK    1  A    between atoms: C_1  and  N_2
REMARK    2  A    between atoms: N_2  and  C_3
REMARK    3  A    between atoms: C_4  and  C_6
REMARK    4  A    between atoms: C_10  and  C_11
REMARK    5  A    between atoms: C_11  and  N_12
REMARK                            x       y       z     vdW  Elec       q    Type
REMARK                         _______ _______ _______ _____ _____    ______ ____
ROOT
ATOM      1  N   UNL     1       3.021   5.053  20.208  0.00  0.00    +0.000 NA
ATOM      2  C   UNL     1       4.174   5.686  19.594  0.00  0.00    +0.000 C 
ATOM      3  C   UNL     1       5.358   4.725  19.607  0.00  0.00    +0.000 C 
ATOM      4  C   UNL     1       5.500   4.238  18.203  0.00  0.00    +0.000 A 
ATOM      5  C   UNL     1       6.628   4.692  17.494  0.00  0.00    +0.000 A 
ATOM      6  C   UNL     1       6.664   4.609  16.106  0.00  0.00    +0.000 A 
ATOM      7  N   UNL     1       7.608   5.222  15.315  0.00  0.00    +0.000 NA
ATOM      8  C   UNL     1       7.287   5.075  14.065  0.00  0.00    +0.000 A 
ATOM      9  N   UNL     1       7.948   5.734  13.095  0.00  0.00    +0.000 N 
ATOM     10  S   UNL     1       5.964   4.025  13.751  0.00  0.00    +0.000 S 
ATOM     11  C   UNL     1       5.642   3.930  15.446  0.00  0.00    +0.000 A 
ATOM     12  C   UNL     1       4.562   3.349  16.152  0.00  0.00    +0.000 A 
ATOM     13  C   UNL     1       4.447   3.588  17.545  0.00  0.00    +0.000 A 
ATOM     14  C   UNL     1       3.147   3.186  18.245  0.00  0.00    +0.000 C 
ATOM     15  C   UNL     1       2.658   3.745  19.638  0.00  0.00    +0.000 C 
ATOM     16  H   UNL     1       8.783   6.221  13.390  0.00  0.00    +0.000 HD
ATOM     17  H   UNL     1       7.981   5.349  12.160  0.00  0.00    +0.000 HD
ENDROOT
BRANCH   1  18
ATOM     18  C   UNL     1       1.961   6.044  20.399  0.00  0.00    +0.000 C 
BRANCH  18  23
ATOM     19  C   UNL     1       1.438   9.545  19.019  0.00  0.00    +0.000 A 
ATOM     20  C   UNL     1       2.059   9.456  17.768  0.00  0.00    +0.000 A 
ATOM     21  C   UNL     1       2.649   8.258  17.359  0.00  0.00    +0.000 A 
ATOM     22  C   UNL     1       2.643   7.151  18.211  0.00  0.00    +0.000 A 
ATOM     23  C   UNL     1       2.016   7.223  19.460  0.00  0.00    +0.000 A 
ATOM     24  C   UNL     1       1.365   8.409  19.826  0.00  0.00    +0.000 A 
BRANCH  19  28
ATOM     25  C   UNL     1      -0.972  12.479  19.359  0.00  0.00    +0.000 C 
ATOM     26  N   UNL     1      -0.461  11.184  18.946  0.00  0.00    +0.000 N 
ATOM     27  C   UNL     1      -1.392  10.297  18.259  0.00  0.00    +0.000 C 
ATOM     28  C   UNL     1       0.806  10.829  19.425  0.00  0.00    +0.000 C 
ATOM     29  O   UNL     1       1.435  11.550  20.205  0.00  0.00    +0.000 OA
ENDBRANCH  19  28
ENDBRANCH  18  23
ENDBRANCH   1  18
TORSDOF 3
ENDMDL
MODEL 3
REMARK VINA RESULT:      -8.1      4.148      9.547
REMARK  Name = 
REMARK  5 active torsions:
REMARK  status: ('A' for Active; 'I' for Inactive)
REMARK    1  A    between atoms: C_1  and  N_2
REMARK    2  A    between atoms: N_2  and  C_3
REMARK    3  A    between atoms: C_4  and  C_6
REMARK    4  A    between atoms: C_10  and  C_11
REMARK    5  A    between atoms: C_11  and  N_12
REMARK                            x       y       z     vdW  Elec       q    Type
REMARK                         _______ _______ _______ _____ _____    ______ ____
ROOT
ATOM      1  N   UNL     1       0.597  10.203  18.855  0.00  0.00    +0.000 NA
ATOM      2  C   UNL     1       0.964   9.161  17.913  0.00  0.00    +0.000 C 
ATOM      3  C   UNL     1       2.445   8.828  18.064  0.00  0.00    +0.000 C 
ATOM      4  C   UNL     1       2.495   7.515  18.774  0.00  0.00    +0.000 A 
ATOM      5  C   UNL     1       2.925   6.410  18.016  0.00  0.00    +0.000 A 
ATOM      6  C   UNL     1       2.659   5.116  18.450  0.00  0.00    +0.000 A 
ATOM      7  N   UNL     1       2.833   3.988  17.684  0.00  0.00    +0.000 NA
ATOM      8  C   UNL     1       2.364   2.956  18.318  0.00  0.00    +0.000 A 
ATOM      9  N   UNL     1       2.249   1.759  17.712  0.00  0.00    +0.000 N 
ATOM     10  S   UNL     1       1.882   3.234  19.944  0.00  0.00    +0.000 S 
ATOM     11  C   UNL     1       2.106   4.931  19.716  0.00  0.00    +0.000 A 
ATOM     12  C   UNL     1       1.787   6.028  20.552  0.00  0.00    +0.000 A 
ATOM     13  C   UNL     1       1.901   7.342  20.031  0.00  0.00    +0.000 A 
ATOM     14  C   UNL     1       1.306   8.497  20.840  0.00  0.00    +0.000 C 
ATOM     15  C   UNL     1       0.944   9.918  20.258  0.00  0.00    +0.000 C 
ATOM     16  H   UNL     1       2.681   1.689  16.801  0.00  0.00    +0.000 HD
ATOM     17  H   UNL     1       2.270   0.913  18.266  0.00  0.00    +0.000 HD
ENDROOT
BRANCH   1  18
ATOM     18  C   UNL     1      -0.755  10.679  18.558  0.00  0.00    +0.000 C 
BRANCH  18  23
ATOM     19  C   UNL     1      -2.718  13.278  20.513  0.00  0.00    +0.000 A 
ATOM     20  C   UNL     1      -1.888  14.400  20.412  0.00  0.00    +0.000 A 
ATOM     21  C   UNL     1      -0.686  14.325  19.704  0.00  0.00    +0.000 A 
ATOM     22  C   UNL     1      -0.297  13.119  19.116  0.00  0.00    +0.000 A 
ATOM     23  C   UNL     1      -1.123  11.992  19.202  0.00  0.00    +0.000 A 
ATOM     24  C   UNL     1      -2.358  12.104  19.852  0.00  0.00    +0.000 A 
BRANCH  19  28
ATOM     25  C   UNL     1      -5.429  12.959  23.175  0.00  0.00    +0.000 C 
ATOM     26  N   UNL     1      -4.126  12.841  22.545  0.00  0.00    +0.000 N 
ATOM     27  C   UNL     1      -3.031  12.364  23.380  0.00  0.00    +0.000 C 
ATOM     28  C   UNL     1      -3.998  13.390  21.263  0.00  0.00    +0.000 C 
ATOM     29  O   UNL     1      -4.926  13.994  20.716  0.00  0.00    +0.000 OA
ENDBRANCH  19  28
ENDBRANCH  18  23
ENDBRANCH   1  18
TORSDOF 3
ENDMDL
MODEL 4
REMARK VINA RESULT:      -8.0      3.837      9.523
REMARK  Name = 
REMARK  5 active torsions:
REMARK  status: ('A' for Active; 'I' for Inactive)
REMARK    1  A    between atoms: C_1  and  N_2
REMARK    2  A    between atoms: N_2  and  C_3
REMARK    3  A    between atoms: C_4  and  C_6
REMARK    4  A    between atoms: C_10  and  C_11
REMARK    5  A    between atoms: C_11  and  N_12
REMARK                            x       y       z     vdW  Elec       q    Type
REMARK                         _______ _______ _______ _____ _____    ______ ____
ROOT
ATOM      1  N   UNL     1       0.630  10.229  18.749  0.00  0.00    +0.000 NA
ATOM      2  C   UNL     1       1.015   9.172  17.832  0.00  0.00    +0.000 C 
ATOM      3  C   UNL     1       2.491   8.837  18.020  0.00  0.00    +0.000 C 
ATOM      4  C   UNL     1       2.521   7.535  18.750  0.00  0.00    +0.000 A 
ATOM      5  C   UNL     1       2.964   6.418  18.019  0.00  0.00    +0.000 A 
ATOM      6  C   UNL     1       2.686   5.131  18.466  0.00  0.00    +0.000 A 
ATOM      7  N   UNL     1       2.873   3.990  17.721  0.00  0.00    +0.000 NA
ATOM      8  C   UNL     1       2.387   2.969  18.360  0.00  0.00    +0.000 A 
ATOM      9  N   UNL     1       2.282   1.764  17.770  0.00  0.00    +0.000 N 
ATOM     10  S   UNL     1       1.870   3.273  19.970  0.00  0.00    +0.000 S 
ATOM     11  C   UNL     1       2.104   4.966  19.722  0.00  0.00    +0.000 A 
ATOM     12  C   UNL     1       1.770   6.076  20.534  0.00  0.00    +0.000 A 
ATOM     13  C   UNL     1       1.899   7.382  19.997  0.00  0.00    +0.000 A 
ATOM     14  C   UNL     1       1.290   8.550  20.775  0.00  0.00    +0.000 C 
ATOM     15  C   UNL     1       0.945   9.964  20.163  0.00  0.00    +0.000 C 
ATOM     16  H   UNL     1       2.734   1.680  16.869  0.00  0.00    +0.000 HD
ATOM     17  H   UNL     1       2.289   0.926  18.336  0.00  0.00    +0.000 HD
ENDROOT
BRANCH   1  18
ATOM     18  C   UNL     1      -0.714  10.703  18.415  0.00  0.00    +0.000 C 
BRANCH  18  23
ATOM     19  C   UNL     1      -2.774  12.861  20.768  0.00  0.00    +0.000 A 
ATOM     20  C   UNL     1      -2.114  14.092  20.681  0.00  0.00    +0.000 A 
ATOM     21  C   UNL     1      -0.997  14.234  19.853  0.00  0.00    +0.000 A 
ATOM     22  C   UNL     1      -0.520  13.138  19.130  0.00  0.00    +0.000 A 
ATOM     23  C   UNL     1      -1.178  11.904  19.201  0.00  0.00    +0.000 A 
ATOM     24  C   UNL     1      -2.339  11.797  19.977  0.00  0.00    +0.000 A 
BRANCH  19  28
ATOM     25  C   UNL     1      -6.328  13.016  22.136  0.00  0.00    +0.000 C 
ATOM     26  N   UNL     1      -5.233  13.126  21.189  0.00  0.00    +0.000 N 
ATOM     27  C   UNL     1      -5.587  13.417  19.805  0.00  0.00    +0.000 C 
ATOM     28  C   UNL     1      -3.968  12.740  21.647  0.00  0.00    +0.000 C 
ATOM     29  O   UNL     1      -3.797  12.275  22.778  0.00  0.00    +0.000 OA
ENDBRANCH  19  28
ENDBRANCH  18  23
ENDBRANCH   1  18
TORSDOF 3
ENDMDL
MODEL 5
REMARK VINA RESULT:      -8.0      2.812      3.923
REMARK  Name = 
REMARK  5 active torsions:
REMARK  status: ('A' for Active; 'I' for Inactive)
REMARK    1  A    between atoms: C_1  and  N_2
REMARK    2  A    between atoms: N_2  and  C_3
REMARK    3  A    between atoms: C_4  and  C_6
REMARK    4  A    between atoms: C_10  and  C_11
REMARK    5  A    between atoms: C_11  and  N_12
REMARK                            x       y       z     vdW  Elec       q    Type
REMARK                         _______ _______ _______ _____ _____    ______ ____
ROOT
ATOM      1  N   UNL     1       1.418  10.102  19.045  0.00  0.00    +0.000 NA
ATOM      2  C   UNL     1       0.521   9.756  20.132  0.00  0.00    +0.000 C 
ATOM      3  C   UNL     1       0.915  10.524  21.390  0.00  0.00    +0.000 C 
ATOM      4  C   UNL     1      -0.111  11.598  21.546  0.00  0.00    +0.000 A 
ATOM      5  C   UNL     1      -1.007  11.456  22.621  0.00  0.00    +0.000 A 
ATOM      6  C   UNL     1      -2.199  12.171  22.640  0.00  0.00    +0.000 A 
ATOM      7  N   UNL     1      -3.233  11.938  23.517  0.00  0.00    +0.000 NA
ATOM      8  C   UNL     1      -4.255  12.669  23.187  0.00  0.00    +0.000 A 
ATOM      9  N   UNL     1      -5.453  12.496  23.776  0.00  0.00    +0.000 N 
ATOM     10  S   UNL     1      -3.977  13.826  21.947  0.00  0.00    +0.000 S 
ATOM     11  C   UNL     1      -2.416  13.142  21.664  0.00  0.00    +0.000 A 
ATOM     12  C   UNL     1      -1.466  13.395  20.647  0.00  0.00    +0.000 A 
ATOM     13  C   UNL     1      -0.337  12.544  20.537  0.00  0.00    +0.000 A 
ATOM     14  C   UNL     1       0.537  12.656  19.286  0.00  0.00    +0.000 C 
ATOM     15  C   UNL     1       1.537  11.546  18.777  0.00  0.00    +0.000 C 
ATOM     16  H   UNL     1      -5.460  11.877  24.575  0.00  0.00    +0.000 HD
ATOM     17  H   UNL     1      -6.104  13.269  23.824  0.00  0.00    +0.000 HD
ENDROOT
BRANCH   1  18
ATOM     18  C   UNL     1       1.185   9.205  17.911  0.00  0.00    +0.000 C 
BRANCH  18  23
ATOM     19  C   UNL     1       2.418   5.617  18.104  0.00  0.00    +0.000 A 
ATOM     20  C   UNL     1       3.765   5.757  17.752  0.00  0.00    +0.000 A 
ATOM     21  C   UNL     1       4.287   7.018  17.454  0.00  0.00    +0.000 A 
ATOM     22  C   UNL     1       3.457   8.141  17.481  0.00  0.00    +0.000 A 
ATOM     23  C   UNL     1       2.110   8.016  17.841  0.00  0.00    +0.000 A 
ATOM     24  C   UNL     1       1.620   6.756  18.209  0.00  0.00    +0.000 A 
BRANCH  19  28
ATOM     25  C   UNL     1       1.452   2.423  19.947  0.00  0.00    +0.000 C 
ATOM     26  N   UNL     1       1.947   3.772  19.739  0.00  0.00    +0.000 N 
ATOM     27  C   UNL     1       2.248   4.555  20.931  0.00  0.00    +0.000 C 
ATOM     28  C   UNL     1       1.892   4.264  18.429  0.00  0.00    +0.000 C 
ATOM     29  O   UNL     1       1.395   3.610  17.506  0.00  0.00    +0.000 OA
ENDBRANCH  19  28
ENDBRANCH  18  23
ENDBRANCH   1  18
TORSDOF 3
ENDMDL
MODEL 6
REMARK VINA RESULT:      -7.9      1.842      2.142
REMARK  Name = 
REMARK  5 active torsions:
REMARK  status: ('A' for Active; 'I' for Inactive)
REMARK    1  A    between atoms: C_1  and  N_2
REMARK    2  A    between atoms: N_2  and  C_3
REMARK    3  A    between atoms: C_4  and  C_6
REMARK    4  A    between atoms: C_10  and  C_11
REMARK    5  A    between atoms: C_11  and  N_12
REMARK                            x       y       z     vdW  Elec       q    Type
REMARK                         _______ _______ _______ _____ _____    ______ ____
ROOT
ATOM      1  N   UNL     1       1.554   7.271  20.624  0.00  0.00    +0.000 NA
ATOM      2  C   UNL     1       0.704   7.843  21.651  0.00  0.00    +0.000 C 
ATOM      3  C   UNL     1       1.304   9.156  22.145  0.00  0.00    +0.000 C 
ATOM      4  C   UNL     1       0.464  10.235  21.547  0.00  0.00    +0.000 A 
ATOM      5  C   UNL     1      -0.357  10.954  22.436  0.00  0.00    +0.000 A 
ATOM      6  C   UNL     1      -1.425  11.703  21.955  0.00  0.00    +0.000 A 
ATOM      7  N   UNL     1      -2.409  12.250  22.745  0.00  0.00    +0.000 NA
ATOM      8  C   UNL     1      -3.335  12.762  21.991  0.00  0.00    +0.000 A 
ATOM      9  N   UNL     1      -4.496  13.200  22.514  0.00  0.00    +0.000 N 
ATOM     10  S   UNL     1      -2.989  12.808  20.309  0.00  0.00    +0.000 S 
ATOM     11  C   UNL     1      -1.573  11.856  20.578  0.00  0.00    +0.000 A 
ATOM     12  C   UNL     1      -0.679  11.249  19.665  0.00  0.00    +0.000 A 
ATOM     13  C   UNL     1       0.300  10.350  20.160  0.00  0.00    +0.000 A 
ATOM     14  C   UNL     1       1.080   9.501  19.154  0.00  0.00    +0.000 C 
ATOM     15  C   UNL     1       1.863   8.175  19.503  0.00  0.00    +0.000 C 
ATOM     16  H   UNL     1      -4.531  13.237  23.524  0.00  0.00    +0.000 HD
ATOM     17  H   UNL     1      -5.020  13.922  22.038  0.00  0.00    +0.000 HD
ENDROOT
BRANCH   1  18
ATOM     18  C   UNL     1       1.103   5.912  20.314  0.00  0.00    +0.000 C 
BRANCH  18  23
ATOM     19  C   UNL     1       4.466   4.316  19.559  0.00  0.00    +0.000 A 
ATOM     20  C   UNL     1       4.282   3.016  20.045  0.00  0.00    +0.000 A 
ATOM     21  C   UNL     1       3.064   2.645  20.617  0.00  0.00    +0.000 A 
ATOM     22  C   UNL     1       2.032   3.580  20.730  0.00  0.00    +0.000 A 
ATOM     23  C   UNL     1       2.199   4.880  20.238  0.00  0.00    +0.000 A 
ATOM     24  C   UNL     1       3.401   5.216  19.601  0.00  0.00    +0.000 A 
BRANCH  19  28
ATOM     25  C   UNL     1       7.344   4.753  17.097  0.00  0.00    +0.000 C 
ATOM     26  N   UNL     1       6.025   4.403  17.594  0.00  0.00    +0.000 N 
ATOM     27  C   UNL     1       5.033   4.001  16.604  0.00  0.00    +0.000 C 
ATOM     28  C   UNL     1       5.770   4.681  18.942  0.00  0.00    +0.000 C 
ATOM     29  O   UNL     1       6.599   5.248  19.660  0.00  0.00    +0.000 OA
ENDBRANCH  19  28
ENDBRANCH  18  23
ENDBRANCH   1  18
TORSDOF 3
ENDMDL
MODEL 7
REMARK VINA RESULT:      -7.9      3.873      9.205
REMARK  Name = 
REMARK  5 active torsions:
REMARK  status: ('A' for Active; 'I' for Inactive)
REMARK    1  A    between atoms: C_1  and  N_2
REMARK    2  A    between atoms: N_2  and  C_3
REMARK    3  A    between atoms: C_4  and  C_6
REMARK    4  A    between atoms: C_10  and  C_11
REMARK    5  A    between atoms: C_11  and  N_12
REMARK                            x       y       z     vdW  Elec       q    Type
REMARK                         _______ _______ _______ _____ _____    ______ ____
ROOT
ATOM      1  N   UNL     1       0.853  10.250  18.680  0.00  0.00    +0.000 NA
ATOM      2  C   UNL     1       1.022   9.070  17.852  0.00  0.00    +0.000 C 
ATOM      3  C   UNL     1       2.461   8.573  17.950  0.00  0.00    +0.000 C 
ATOM      4  C   UNL     1       2.411   7.354  18.810  0.00  0.00    +0.000 A 
ATOM      5  C   UNL     1       2.649   6.125  18.168  0.00  0.00    +0.000 A 
ATOM      6  C   UNL     1       2.268   4.932  18.772  0.00  0.00    +0.000 A 
ATOM      7  N   UNL     1       2.250   3.710  18.140  0.00  0.00    +0.000 NA
ATOM      8  C   UNL     1       1.712   2.824  18.924  0.00  0.00    +0.000 A 
ATOM      9  N   UNL     1       1.412   1.591  18.477  0.00  0.00    +0.000 N 
ATOM     10  S   UNL     1       1.392   3.344  20.530  0.00  0.00    +0.000 S 
ATOM     11  C   UNL     1       1.796   4.963  20.083  0.00  0.00    +0.000 A 
ATOM     12  C   UNL     1       1.672   6.178  20.797  0.00  0.00    +0.000 A 
ATOM     13  C   UNL     1       1.899   7.400  20.114  0.00  0.00    +0.000 A 
ATOM     14  C   UNL     1       1.507   8.704  20.811  0.00  0.00    +0.000 C 
ATOM     15  C   UNL     1       1.269  10.085  20.083  0.00  0.00    +0.000 C 
ATOM     16  H   UNL     1       1.763   1.364  17.555  0.00  0.00    +0.000 HD
ATOM     17  H   UNL     1       1.377   0.817  19.127  0.00  0.00    +0.000 HD
ENDROOT
BRANCH   1  18
ATOM     18  C   UNL     1      -0.454  10.854  18.412  0.00  0.00    +0.000 C 
BRANCH  18  23
ATOM     19  C   UNL     1      -1.665  12.898  21.376  0.00  0.00    +0.000 A 
ATOM     20  C   UNL     1      -1.460  14.207  20.925  0.00  0.00    +0.000 A 
ATOM     21  C   UNL     1      -0.932  14.438  19.652  0.00  0.00    +0.000 A 
ATOM     22  C   UNL     1      -0.582  13.361  18.836  0.00  0.00    +0.000 A 
ATOM     23  C   UNL     1      -0.791  12.046  19.271  0.00  0.00    +0.000 A 
ATOM     24  C   UNL     1      -1.389  11.832  20.519  0.00  0.00    +0.000 A 
BRANCH  19  28
ATOM     25  C   UNL     1      -4.082  12.598  24.308  0.00  0.00    +0.000 C 
ATOM     26  N   UNL     1      -3.621  12.778  22.943  0.00  0.00    +0.000 N 
ATOM     27  C   UNL     1      -4.643  12.828  21.904  0.00  0.00    +0.000 C 
ATOM     28  C   UNL     1      -2.241  12.681  22.730  0.00  0.00    +0.000 C 
ATOM     29  O   UNL     1      -1.458  12.397  23.642  0.00  0.00    +0.000 OA
ENDBRANCH  19  28
ENDBRANCH  18  23
ENDBRANCH   1  18
TORSDOF 3
ENDMDL
MODEL 8
REMARK VINA RESULT:      -7.9      4.357      9.085
REMARK  Name = 
REMARK  5 active torsions:
REMARK  status: ('A' for Active; 'I' for Inactive)
REMARK    1  A    between atoms: C_1  and  N_2
REMARK    2  A    between atoms: N_2  and  C_3
REMARK    3  A    between atoms: C_4  and  C_6
REMARK    4  A    between atoms: C_10  and  C_11
REMARK    5  A    between atoms: C_11  and  N_12
REMARK                            x       y       z     vdW  Elec       q    Type
REMARK                         _______ _______ _______ _____ _____    ______ ____
ROOT
ATOM      1  N   UNL     1       0.639  10.352  18.778  0.00  0.00    +0.000 NA
ATOM      2  C   UNL     1       0.965   9.266  17.871  0.00  0.00    +0.000 C 
ATOM      3  C   UNL     1       2.437   8.895  18.021  0.00  0.00    +0.000 C 
ATOM      4  C   UNL     1       2.455   7.607  18.777  0.00  0.00    +0.000 A 
ATOM      5  C   UNL     1       2.845   6.464  18.056  0.00  0.00    +0.000 A 
ATOM      6  C   UNL     1       2.546   5.194  18.539  0.00  0.00    +0.000 A 
ATOM      7  N   UNL     1       2.679   4.034  17.812  0.00  0.00    +0.000 NA
ATOM      8  C   UNL     1       2.186   3.040  18.488  0.00  0.00    +0.000 A 
ATOM      9  N   UNL     1       2.030   1.827  17.927  0.00  0.00    +0.000 N 
ATOM     10  S   UNL     1       1.729   3.391  20.107  0.00  0.00    +0.000 S 
ATOM     11  C   UNL     1       2.001   5.071  19.815  0.00  0.00    +0.000 A 
ATOM     12  C   UNL     1       1.723   6.206  20.614  0.00  0.00    +0.000 A 
ATOM     13  C   UNL     1       1.870   7.497  20.045  0.00  0.00    +0.000 A 
ATOM     14  C   UNL     1       1.317   8.697  20.817  0.00  0.00    +0.000 C 
ATOM     15  C   UNL     1       0.990  10.107  20.187  0.00  0.00    +0.000 C 
ATOM     16  H   UNL     1       2.451   1.711  17.015  0.00  0.00    +0.000 HD
ATOM     17  H   UNL     1       2.033   1.000  18.510  0.00  0.00    +0.000 HD
ENDROOT
BRANCH   1  18
ATOM     18  C   UNL     1      -0.703  10.856  18.476  0.00  0.00    +0.000 C 
BRANCH  18  23
ATOM     19  C   UNL     1      -0.705  14.524  19.465  0.00  0.00    +0.000 A 
ATOM     20  C   UNL     1      -1.692  14.553  20.457  0.00  0.00    +0.000 A 
ATOM     21  C   UNL     1      -2.362  13.382  20.817  0.00  0.00    +0.000 A 
ATOM     22  C   UNL     1      -2.067  12.181  20.168  0.00  0.00    +0.000 A 
ATOM     23  C   UNL     1      -1.074  12.136  19.182  0.00  0.00    +0.000 A 
ATOM     24  C   UNL     1      -0.360  13.303  18.884  0.00  0.00    +0.000 A 
BRANCH  19  28
ATOM     25  C   UNL     1       1.748  17.442  19.414  0.00  0.00    +0.000 C 
ATOM     26  N   UNL     1       1.157  16.173  19.800  0.00  0.00    +0.000 N 
ATOM     27  C   UNL     1       1.932  15.335  20.707  0.00  0.00    +0.000 C 
ATOM     28  C   UNL     1       0.003  15.783  19.110  0.00  0.00    +0.000 C 
ATOM     29  O   UNL     1      -0.459  16.451  18.180  0.00  0.00    +0.000 OA
ENDBRANCH  19  28
ENDBRANCH  18  23
ENDBRANCH   1  18
TORSDOF 3
ENDMDL
MODEL 9
REMARK VINA RESULT:      -7.8      1.188      1.546
REMARK  Name = 
REMARK  5 active torsions:
REMARK  status: ('A' for Active; 'I' for Inactive)
REMARK    1  A    between atoms: C_1  and  N_2
REMARK    2  A    between atoms: N_2  and  C_3
REMARK    3  A    between atoms: C_4  and  C_6
REMARK    4  A    between atoms: C_10  and  C_11
REMARK    5  A    between atoms: C_11  and  N_12
REMARK                            x       y       z     vdW  Elec       q    Type
REMARK                         _______ _______ _______ _____ _____    ______ ____
ROOT
ATOM      1  N   UNL     1       1.835   6.460  20.608  0.00  0.00    +0.000 NA
ATOM      2  C   UNL     1       0.834   7.287  21.257  0.00  0.00    +0.000 C 
ATOM      3  C   UNL     1       1.431   8.650  21.593  0.00  0.00    +0.000 C 
ATOM      4  C   UNL     1       0.855   9.601  20.597  0.00  0.00    +0.000 A 
ATOM      5  C   UNL     1      -0.071  10.539  21.091  0.00  0.00    +0.000 A 
ATOM      6  C   UNL     1      -0.928  11.204  20.221  0.00  0.00    +0.000 A 
ATOM      7  N   UNL     1      -2.007  11.960  20.617  0.00  0.00    +0.000 NA
ATOM      8  C   UNL     1      -2.686  12.327  19.572  0.00  0.00    +0.000 A 
ATOM      9  N   UNL     1      -3.887  12.923  19.697  0.00  0.00    +0.000 N 
ATOM     10  S   UNL     1      -1.967  11.975  18.052  0.00  0.00    +0.000 S 
ATOM     11  C   UNL     1      -0.746  11.048  18.848  0.00  0.00    +0.000 A 
ATOM     12  C   UNL     1       0.268  10.210  18.326  0.00  0.00    +0.000 A 
ATOM     13  C   UNL     1       1.019   9.406  19.220  0.00  0.00    +0.000 A 
ATOM     14  C   UNL     1       1.920   8.317  18.633  0.00  0.00    +0.000 C 
ATOM     15  C   UNL     1       2.473   7.072  19.430  0.00  0.00    +0.000 C 
ATOM     16  H   UNL     1      -4.144  13.190  20.638  0.00  0.00    +0.000 HD
ATOM     17  H   UNL     1      -4.218  13.540  18.967  0.00  0.00    +0.000 HD
ENDROOT
BRANCH   1  18
ATOM     18  C   UNL     1       1.336   5.088  20.491  0.00  0.00    +0.000 C 
BRANCH  18  23
ATOM     19  C   UNL     1       4.206   3.766  18.382  0.00  0.00    +0.000 A 
ATOM     20  C   UNL     1       3.635   2.628  17.801  0.00  0.00    +0.000 A 
ATOM     21  C   UNL     1       2.312   2.282  18.085  0.00  0.00    +0.000 A 
ATOM     22  C   UNL     1       1.562   3.058  18.972  0.00  0.00    +0.000 A 
ATOM     23  C   UNL     1       2.118   4.205  19.551  0.00  0.00    +0.000 A 
ATOM     24  C   UNL     1       3.421   4.580  19.200  0.00  0.00    +0.000 A 
BRANCH  19  28
ATOM     25  C   UNL     1       7.402   4.649  16.501  0.00  0.00    +0.000 C 
ATOM     26  N   UNL     1       5.997   4.360  16.727  0.00  0.00    +0.000 N 
ATOM     27  C   UNL     1       5.094   4.558  15.600  0.00  0.00    +0.000 C 
ATOM     28  C   UNL     1       5.613   4.119  18.052  0.00  0.00    +0.000 C 
ATOM     29  O   UNL     1       6.412   4.205  18.990  0.00  0.00    +0.000 OA
ENDBRANCH  19  28
ENDBRANCH  18  23
ENDBRANCH   1  18
TORSDOF 3
ENDMDL
