MODEL 1
REMARK VINA RESULT:      -8.6      0.000      0.000
REMARK  Name = 
REMARK  7 active torsions:
REMARK  status: ('A' for Active; 'I' for Inactive)
REMARK    1  A    between atoms: C_1  and  C_2
REMARK    2  A    between atoms: C_5  and  C_6
REMARK    3  A    between atoms: C_6  and  N_7
REMARK    4  A    between atoms: N_17  and  C_18
REMARK    5  A    between atoms: C_18  and  C_19
REMARK    6  A    between atoms: N_21  and  C_22
REMARK    7  A    between atoms: C_28  and  C_29
REMARK                            x       y       z     vdW  Elec       q    Type
REMARK                         _______ _______ _______ _____ _____    ______ ____
ROOT
ATOM      1  N   UNL     1       6.471   5.074  17.073  0.00  0.00    +0.000 N 
ATOM      2  C   UNL     1       6.550   4.752  15.722  0.00  0.00    +0.000 A 
ATOM      3  C   UNL     1       7.608   4.878  14.805  0.00  0.00    +0.000 A 
ATOM      4  C   UNL     1       7.394   4.483  13.484  0.00  0.00    +0.000 A 
ATOM      5  C   UNL     1       6.167   3.961  13.087  0.00  0.00    +0.000 A 
ATOM      6  C   UNL     1       5.122   3.820  14.005  0.00  0.00    +0.000 A 
ATOM      7  C   UNL     1       5.312   4.222  15.343  0.00  0.00    +0.000 A 
ATOM      8  C   UNL     1       4.500   4.215  16.508  0.00  0.00    +0.000 A 
ATOM      9  C   UNL     1       3.168   3.735  16.748  0.00  0.00    +0.000 A 
ATOM     10  N   UNL     1       2.619   3.835  17.925  0.00  0.00    +0.000 NA
ATOM     11  N   UNL     1       3.358   4.404  18.979  0.00  0.00    +0.000 N 
ATOM     12  C   UNL     1       4.654   4.941  18.856  0.00  0.00    +0.000 A 
ATOM     13  O   UNL     1       5.248   5.475  19.786  0.00  0.00    +0.000 OA
ATOM     14  C   UNL     1       5.212   4.781  17.536  0.00  0.00    +0.000 A 
ENDROOT
BRANCH   1  15
ATOM     15  C   UNL     1       7.607   5.481  17.901  0.00  0.00    +0.000 C 
BRANCH  15  20
ATOM     16  C   UNL     1       8.793  11.171  18.336  0.00  0.00    +0.000 C 
ATOM     17  C   UNL     1       8.425   9.719  18.270  0.00  0.00    +0.000 A 
ATOM     18  C   UNL     1       8.964   8.796  19.168  0.00  0.00    +0.000 A 
ATOM     19  C   UNL     1       8.651   7.438  19.060  0.00  0.00    +0.000 A 
ATOM     20  C   UNL     1       7.787   6.972  18.057  0.00  0.00    +0.000 A 
ATOM     21  C   UNL     1       7.235   7.908  17.172  0.00  0.00    +0.000 A 
ATOM     22  C   UNL     1       7.551   9.266  17.278  0.00  0.00    +0.000 A 
ENDBRANCH  15  20
ENDBRANCH   1  15
BRANCH  11  23
ATOM     23  C   UNL     1       2.727   4.392  20.295  0.00  0.00    +0.000 C 
BRANCH  23  24
ATOM     24  C   UNL     1       1.757   5.550  20.524  0.00  0.00    +0.000 C 
ATOM     25  O   UNL     1       0.558   5.337  20.702  0.00  0.00    +0.000 OA
ATOM     26  N   UNL     1       2.309   6.808  20.349  0.00  0.00    +0.000 N 
ATOM     27  H   UNL     1       3.169   6.820  19.809  0.00  0.00    +0.000 HD
BRANCH  26  28
ATOM     28  C   UNL     1       1.564   7.998  20.473  0.00  0.00    +0.000 A 
ATOM     29  C   UNL     1       0.971   8.334  21.698  0.00  0.00    +0.000 A 
ATOM     30  C   UNL     1       0.252   9.519  21.822  0.00  0.00    +0.000 A 
ATOM     31 CL   UNL     1      -0.457   9.941  23.334  0.00  0.00    +0.000 Cl
ATOM     32  C   UNL     1       0.106  10.372  20.733  0.00  0.00    +0.000 A 
ATOM     33  C   UNL     1       0.692  10.040  19.510  0.00  0.00    +0.000 A 
ATOM     34  C   UNL     1       1.430   8.854  19.367  0.00  0.00    +0.000 A 
ATOM     35  C   UNL     1       1.981   8.487  18.017  0.00  0.00    +0.000 C 
ENDBRANCH  26  28
ENDBRANCH  23  24
ENDBRANCH  11  23
TORSDOF 5
ENDMDL
MODEL 2
REMARK VINA RESULT:      -8.3      5.636      8.840
REMARK  Name = 
REMARK  7 active torsions:
REMARK  status: ('A' for Active; 'I' for Inactive)
REMARK    1  A    between atoms: C_1  and  C_2
REMARK    2  A    between atoms: C_5  and  C_6
REMARK    3  A    between atoms: C_6  and  N_7
REMARK    4  A    between atoms: N_17  and  C_18
REMARK    5  A    between atoms: C_18  and  C_19
REMARK    6  A    between atoms: N_21  and  C_22
REMARK    7  A    between atoms: C_28  and  C_29
REMARK                            x       y       z     vdW  Elec       q    Type
REMARK                         _______ _______ _______ _____ _____    ______ ____
ROOT
ATOM      1  N   UNL     1       0.235  10.922  19.286  0.00  0.00    +0.000 N 
ATOM      2  C   UNL     1       0.986   9.775  19.053  0.00  0.00    +0.000 A 
ATOM      3  C   UNL     1       1.582   9.289  17.876  0.00  0.00    +0.000 A 
ATOM      4  C   UNL     1       2.274   8.078  17.933  0.00  0.00    +0.000 A 
ATOM      5  C   UNL     1       2.386   7.378  19.130  0.00  0.00    +0.000 A 
ATOM      6  C   UNL     1       1.808   7.873  20.302  0.00  0.00    +0.000 A 
ATOM      7  C   UNL     1       1.094   9.089  20.266  0.00  0.00    +0.000 A 
ATOM      8  C   UNL     1       0.409   9.868  21.235  0.00  0.00    +0.000 A 
ATOM      9  C   UNL     1       0.235   9.705  22.652  0.00  0.00    +0.000 A 
ATOM     10  N   UNL     1      -0.446  10.569  23.350  0.00  0.00    +0.000 NA
ATOM     11  N   UNL     1      -1.001  11.688  22.701  0.00  0.00    +0.000 N 
ATOM     12  C   UNL     1      -0.929  11.933  21.316  0.00  0.00    +0.000 A 
ATOM     13  O   UNL     1      -1.468  12.895  20.779  0.00  0.00    +0.000 OA
ATOM     14  C   UNL     1      -0.145  10.954  20.606  0.00  0.00    +0.000 A 
ENDROOT
BRANCH   1  15
ATOM     15  C   UNL     1       0.047  12.007  18.322  0.00  0.00    +0.000 C 
BRANCH  15  20
ATOM     16  C   UNL     1       3.980  16.245  19.056  0.00  0.00    +0.000 C 
ATOM     17  C   UNL     1       2.966  15.174  18.791  0.00  0.00    +0.000 A 
ATOM     18  C   UNL     1       1.599  15.419  18.943  0.00  0.00    +0.000 A 
ATOM     19  C   UNL     1       0.671  14.395  18.742  0.00  0.00    +0.000 A 
ATOM     20  C   UNL     1       1.083  13.104  18.378  0.00  0.00    +0.000 A 
ATOM     21  C   UNL     1       2.455  12.871  18.209  0.00  0.00    +0.000 A 
ATOM     22  C   UNL     1       3.385  13.895  18.413  0.00  0.00    +0.000 A 
ENDBRANCH  15  20
ENDBRANCH   1  15
BRANCH  11  23
ATOM     23  C   UNL     1      -1.663  12.669  23.554  0.00  0.00    +0.000 C 
BRANCH  23  24
ATOM     24  C   UNL     1      -3.188  12.606  23.499  0.00  0.00    +0.000 C 
ATOM     25  O   UNL     1      -3.804  11.772  24.162  0.00  0.00    +0.000 OA
ATOM     26  N   UNL     1      -3.766  13.426  22.544  0.00  0.00    +0.000 N 
ATOM     27  H   UNL     1      -3.133  13.729  21.809  0.00  0.00    +0.000 HD
BRANCH  26  28
ATOM     28  C   UNL     1      -5.155  13.474  22.311  0.00  0.00    +0.000 A 
ATOM     29  C   UNL     1      -5.753  12.563  21.431  0.00  0.00    +0.000 A 
ATOM     30  C   UNL     1      -7.129  12.601  21.216  0.00  0.00    +0.000 A 
ATOM     31 CL   UNL     1      -7.865  11.466  20.152  0.00  0.00    +0.000 Cl
ATOM     32  C   UNL     1      -7.916  13.548  21.863  0.00  0.00    +0.000 A 
ATOM     33  C   UNL     1      -7.323  14.462  22.738  0.00  0.00    +0.000 A 
ATOM     34  C   UNL     1      -5.939  14.432  22.975  0.00  0.00    +0.000 A 
ATOM     35  C   UNL     1      -5.321  15.479  23.860  0.00  0.00    +0.000 C 
ENDBRANCH  26  28
ENDBRANCH  23  24
ENDBRANCH  11  23
TORSDOF 5
ENDMDL
MODEL 3
REMARK VINA RESULT:      -8.3      2.584      5.057
REMARK  Name = 
REMARK  7 active torsions:
REMARK  status: ('A' for Active; 'I' for Inactive)
REMARK    1  A    between atoms: C_1  and  C_2
REMARK    2  A    between atoms: C_5  and  C_6
REMARK    3  A    between atoms: C_6  and  N_7
REMARK    4  A    between atoms: N_17  and  C_18
REMARK    5  A    between atoms: C_18  and  C_19
REMARK    6  A    between atoms: N_21  and  C_22
REMARK    7  A    between atoms: C_28  and  C_29
REMARK                            x       y       z     vdW  Elec       q    Type
REMARK                         _______ _______ _______ _____ _____    ______ ____
ROOT
ATOM      1  N   UNL     1       3.397   5.301  18.553  0.00  0.00    +0.000 N 
ATOM      2  C   UNL     1       3.306   4.248  19.458  0.00  0.00    +0.000 A 
ATOM      3  C   UNL     1       3.882   2.966  19.440  0.00  0.00    +0.000 A 
ATOM      4  C   UNL     1       3.598   2.095  20.492  0.00  0.00    +0.000 A 
ATOM      5  C   UNL     1       2.777   2.492  21.543  0.00  0.00    +0.000 A 
ATOM      6  C   UNL     1       2.220   3.774  21.567  0.00  0.00    +0.000 A 
ATOM      7  C   UNL     1       2.484   4.667  20.510  0.00  0.00    +0.000 A 
ATOM      8  C   UNL     1       2.107   6.005  20.221  0.00  0.00    +0.000 A 
ATOM      9  C   UNL     1       1.330   6.964  20.955  0.00  0.00    +0.000 A 
ATOM     10  N   UNL     1       1.113   8.159  20.481  0.00  0.00    +0.000 NA
ATOM     11  N   UNL     1       1.669   8.514  19.238  0.00  0.00    +0.000 N 
ATOM     12  C   UNL     1       2.414   7.649  18.413  0.00  0.00    +0.000 A 
ATOM     13  O   UNL     1       2.841   7.979  17.312  0.00  0.00    +0.000 OA
ATOM     14  C   UNL     1       2.636   6.352  19.003  0.00  0.00    +0.000 A 
ENDROOT
BRANCH   1  15
ATOM     15  C   UNL     1       4.308   5.341  17.410  0.00  0.00    +0.000 C 
BRANCH  15  20
ATOM     16  C   UNL     1       9.024   8.565  18.569  0.00  0.00    +0.000 C 
ATOM     17  C   UNL     1       7.854   7.698  18.216  0.00  0.00    +0.000 A 
ATOM     18  C   UNL     1       6.911   8.106  17.270  0.00  0.00    +0.000 A 
ATOM     19  C   UNL     1       5.798   7.309  16.991  0.00  0.00    +0.000 A 
ATOM     20  C   UNL     1       5.603   6.083  17.645  0.00  0.00    +0.000 A 
ATOM     21  C   UNL     1       6.563   5.671  18.578  0.00  0.00    +0.000 A 
ATOM     22  C   UNL     1       7.676   6.470  18.860  0.00  0.00    +0.000 A 
ENDBRANCH  15  20
ENDBRANCH   1  15
BRANCH  11  23
ATOM     23  C   UNL     1       1.477   9.896  18.812  0.00  0.00    +0.000 C 
BRANCH  23  24
ATOM     24  C   UNL     1       0.259  10.571  19.439  0.00  0.00    +0.000 C 
ATOM     25  O   UNL     1      -0.789  10.684  18.804  0.00  0.00    +0.000 OA
ATOM     26  N   UNL     1       0.496  11.165  20.667  0.00  0.00    +0.000 N 
ATOM     27  H   UNL     1       1.475  11.351  20.864  0.00  0.00    +0.000 HD
BRANCH  26  28
ATOM     28  C   UNL     1      -0.490  11.874  21.381  0.00  0.00    +0.000 A 
ATOM     29  C   UNL     1      -0.900  13.142  20.947  0.00  0.00    +0.000 A 
ATOM     30  C   UNL     1      -1.887  13.833  21.644  0.00  0.00    +0.000 A 
ATOM     31 CL   UNL     1      -2.405  15.381  21.096  0.00  0.00    +0.000 Cl
ATOM     32  C   UNL     1      -2.466  13.277  22.780  0.00  0.00    +0.000 A 
ATOM     33  C   UNL     1      -2.059  12.016  23.220  0.00  0.00    +0.000 A 
ATOM     34  C   UNL     1      -1.071  11.299  22.524  0.00  0.00    +0.000 A 
ATOM     35  C   UNL     1      -0.598   9.979  23.068  0.00  0.00    +0.000 C 
ENDBRANCH  26  28
ENDBRANCH  23  24
ENDBRANCH  11  23
TORSDOF 5
ENDMDL
MODEL 4
REMARK VINA RESULT:      -8.2      4.910     11.063
REMARK  Name = 
REMARK  7 active torsions:
REMARK  status: ('A' for Active; 'I' for Inactive)
REMARK    1  A    between atoms: C_1  and  C_2
REMARK    2  A    between atoms: C_5  and  C_6
REMARK    3  A    between atoms: C_6  and  N_7
REMARK    4  A    between atoms: N_17  and  C_18
REMARK    5  A    between atoms: C_18  and  C_19
REMARK    6  A    between atoms: N_21  and  C_22
REMARK    7  A    between atoms: C_28  and  C_29
REMARK                            x       y       z     vdW  Elec       q    Type
REMARK                         _______ _______ _______ _____ _____    ______ ____
ROOT
ATOM      1  N   UNL     1      -1.383  14.135  21.889  0.00  0.00    +0.000 N 
ATOM      2  C   UNL     1      -1.260  15.093  20.889  0.00  0.00    +0.000 A 
ATOM      3  C   UNL     1      -1.810  16.382  20.777  0.00  0.00    +0.000 A 
ATOM      4  C   UNL     1      -1.526  17.129  19.633  0.00  0.00    +0.000 A 
ATOM      5  C   UNL     1      -0.705  16.616  18.634  0.00  0.00    +0.000 A 
ATOM      6  C   UNL     1      -0.144  15.341  18.757  0.00  0.00    +0.000 A 
ATOM      7  C   UNL     1      -0.427  14.564  19.899  0.00  0.00    +0.000 A 
ATOM      8  C   UNL     1      -0.035  13.274  20.345  0.00  0.00    +0.000 A 
ATOM      9  C   UNL     1       0.853  12.293  19.787  0.00  0.00    +0.000 A 
ATOM     10  N   UNL     1       1.064  11.157  20.390  0.00  0.00    +0.000 NA
ATOM     11  N   UNL     1       0.424  10.903  21.617  0.00  0.00    +0.000 N 
ATOM     12  C   UNL     1      -0.494  11.771  22.240  0.00  0.00    +0.000 A 
ATOM     13  O   UNL     1      -1.070  11.494  23.286  0.00  0.00    +0.000 OA
ATOM     14  C   UNL     1      -0.667  13.017  21.536  0.00  0.00    +0.000 A 
ENDROOT
BRANCH   1  15
ATOM     15  C   UNL     1      -2.017  14.360  23.188  0.00  0.00    +0.000 C 
BRANCH  15  20
ATOM     16  C   UNL     1      -7.452  12.254  23.235  0.00  0.00    +0.000 C 
ATOM     17  C   UNL     1      -6.082  12.863  23.255  0.00  0.00    +0.000 A 
ATOM     18  C   UNL     1      -5.581  13.552  22.148  0.00  0.00    +0.000 A 
ATOM     19  C   UNL     1      -4.283  14.067  22.164  0.00  0.00    +0.000 A 
ATOM     20  C   UNL     1      -3.456  13.913  23.288  0.00  0.00    +0.000 A 
ATOM     21  C   UNL     1      -3.973  13.237  24.401  0.00  0.00    +0.000 A 
ATOM     22  C   UNL     1      -5.271  12.718  24.385  0.00  0.00    +0.000 A 
ENDBRANCH  15  20
ENDBRANCH   1  15
BRANCH  11  23
ATOM     23  C   UNL     1       0.782   9.660  22.291  0.00  0.00    +0.000 C 
BRANCH  23  24
ATOM     24  C   UNL     1       0.630   8.418  21.415  0.00  0.00    +0.000 C 
ATOM     25  O   UNL     1      -0.468   7.880  21.277  0.00  0.00    +0.000 OA
ATOM     26  N   UNL     1       1.823   7.886  20.956  0.00  0.00    +0.000 N 
ATOM     27  H   UNL     1       2.644   8.177  21.479  0.00  0.00    +0.000 HD
BRANCH  26  28
ATOM     28  C   UNL     1       1.893   6.717  20.172  0.00  0.00    +0.000 A 
ATOM     29  C   UNL     1       1.625   5.467  20.746  0.00  0.00    +0.000 A 
ATOM     30  C   UNL     1       1.676   4.316  19.964  0.00  0.00    +0.000 A 
ATOM     31 CL   UNL     1       1.325   2.783  20.666  0.00  0.00    +0.000 Cl
ATOM     32  C   UNL     1       2.005   4.395  18.615  0.00  0.00    +0.000 A 
ATOM     33  C   UNL     1       2.276   5.638  18.039  0.00  0.00    +0.000 A 
ATOM     34  C   UNL     1       2.219   6.812  18.808  0.00  0.00    +0.000 A 
ATOM     35  C   UNL     1       2.595   8.125  18.178  0.00  0.00    +0.000 C 
ENDBRANCH  26  28
ENDBRANCH  23  24
ENDBRANCH  11  23
TORSDOF 5
ENDMDL
MODEL 5
REMARK VINA RESULT:      -8.2      2.867      5.611
REMARK  Name = 
REMARK  7 active torsions:
REMARK  status: ('A' for Active; 'I' for Inactive)
REMARK    1  A    between atoms: C_1  and  C_2
REMARK    2  A    between atoms: C_5  and  C_6
REMARK    3  A    between atoms: C_6  and  N_7
REMARK    4  A    between atoms: N_17  and  C_18
REMARK    5  A    between atoms: C_18  and  C_19
REMARK    6  A    between atoms: N_21  and  C_22
REMARK    7  A    between atoms: C_28  and  C_29
REMARK                            x       y       z     vdW  Elec       q    Type
REMARK                         _______ _______ _______ _____ _____    ______ ____
ROOT
ATOM      1  N   UNL     1       3.999   5.569  18.980  0.00  0.00    +0.000 N 
ATOM      2  C   UNL     1       3.761   4.430  19.741  0.00  0.00    +0.000 A 
ATOM      3  C   UNL     1       4.485   3.230  19.853  0.00  0.00    +0.000 A 
ATOM      4  C   UNL     1       3.992   2.233  20.696  0.00  0.00    +0.000 A 
ATOM      5  C   UNL     1       2.822   2.428  21.422  0.00  0.00    +0.000 A 
ATOM      6  C   UNL     1       2.114   3.630  21.322  0.00  0.00    +0.000 A 
ATOM      7  C   UNL     1       2.586   4.647  20.468  0.00  0.00    +0.000 A 
ATOM      8  C   UNL     1       2.142   5.955  20.140  0.00  0.00    +0.000 A 
ATOM      9  C   UNL     1       1.038   6.742  20.614  0.00  0.00    +0.000 A 
ATOM     10  N   UNL     1       0.825   7.945  20.159  0.00  0.00    +0.000 NA
ATOM     11  N   UNL     1       1.707   8.481  19.202  0.00  0.00    +0.000 N 
ATOM     12  C   UNL     1       2.798   7.792  18.636  0.00  0.00    +0.000 A 
ATOM     13  O   UNL     1       3.516   8.274  17.768  0.00  0.00    +0.000 OA
ATOM     14  C   UNL     1       2.991   6.477  19.197  0.00  0.00    +0.000 A 
ENDROOT
BRANCH   1  15
ATOM     15  C   UNL     1       5.223   5.825  18.221  0.00  0.00    +0.000 C 
BRANCH  15  20
ATOM     16  C   UNL     1       5.872   3.640  12.857  0.00  0.00    +0.000 C 
ATOM     17  C   UNL     1       5.627   4.190  14.229  0.00  0.00    +0.000 A 
ATOM     18  C   UNL     1       5.444   5.559  14.437  0.00  0.00    +0.000 A 
ATOM     19  C   UNL     1       5.269   6.061  15.729  0.00  0.00    +0.000 A 
ATOM     20  C   UNL     1       5.267   5.208  16.843  0.00  0.00    +0.000 A 
ATOM     21  C   UNL     1       5.432   3.833  16.625  0.00  0.00    +0.000 A 
ATOM     22  C   UNL     1       5.611   3.331  15.332  0.00  0.00    +0.000 A 
ENDBRANCH  15  20
ENDBRANCH   1  15
BRANCH  11  23
ATOM     23  C   UNL     1       1.475   9.867  18.810  0.00  0.00    +0.000 C 
BRANCH  23  24
ATOM     24  C   UNL     1       0.266  10.506  19.490  0.00  0.00    +0.000 C 
ATOM     25  O   UNL     1      -0.815  10.580  18.905  0.00  0.00    +0.000 OA
ATOM     26  N   UNL     1       0.541  11.116  20.702  0.00  0.00    +0.000 N 
ATOM     27  H   UNL     1       1.521  11.336  20.851  0.00  0.00    +0.000 HD
BRANCH  26  28
ATOM     28  C   UNL     1      -0.434  11.798  21.458  0.00  0.00    +0.000 A 
ATOM     29  C   UNL     1      -0.818  13.098  21.104  0.00  0.00    +0.000 A 
ATOM     30  C   UNL     1      -1.794  13.762  21.842  0.00  0.00    +0.000 A 
ATOM     31 CL   UNL     1      -2.281  15.351  21.392  0.00  0.00    +0.000 Cl
ATOM     32  C   UNL     1      -2.387  13.147  22.940  0.00  0.00    +0.000 A 
ATOM     33  C   UNL     1      -2.005  11.853  23.299  0.00  0.00    +0.000 A 
ATOM     34  C   UNL     1      -1.029  11.162  22.561  0.00  0.00    +0.000 A 
ATOM     35  C   UNL     1      -0.583   9.802  23.021  0.00  0.00    +0.000 C 
ENDBRANCH  26  28
ENDBRANCH  23  24
ENDBRANCH  11  23
TORSDOF 5
ENDMDL
MODEL 6
REMARK VINA RESULT:      -8.1      4.697      9.910
REMARK  Name = 
REMARK  7 active torsions:
REMARK  status: ('A' for Active; 'I' for Inactive)
REMARK    1  A    between atoms: C_1  and  C_2
REMARK    2  A    between atoms: C_5  and  C_6
REMARK    3  A    between atoms: C_6  and  N_7
REMARK    4  A    between atoms: N_17  and  C_18
REMARK    5  A    between atoms: C_18  and  C_19
REMARK    6  A    between atoms: N_21  and  C_22
REMARK    7  A    between atoms: C_28  and  C_29
REMARK                            x       y       z     vdW  Elec       q    Type
REMARK                         _______ _______ _______ _____ _____    ______ ____
ROOT
ATOM      1  N   UNL     1      -2.217  12.199  19.915  0.00  0.00    +0.000 N 
ATOM      2  C   UNL     1      -3.508  12.202  19.398  0.00  0.00    +0.000 A 
ATOM      3  C   UNL     1      -4.643  12.948  19.762  0.00  0.00    +0.000 A 
ATOM      4  C   UNL     1      -5.833  12.727  19.067  0.00  0.00    +0.000 A 
ATOM      5  C   UNL     1      -5.891  11.803  18.029  0.00  0.00    +0.000 A 
ATOM      6  C   UNL     1      -4.756  11.077  17.658  0.00  0.00    +0.000 A 
ATOM      7  C   UNL     1      -3.545  11.275  18.352  0.00  0.00    +0.000 A 
ATOM      8  C   UNL     1      -2.236  10.735  18.242  0.00  0.00    +0.000 A 
ATOM      9  C   UNL     1      -1.658   9.796  17.322  0.00  0.00    +0.000 A 
ATOM     10  N   UNL     1      -0.407   9.445  17.417  0.00  0.00    +0.000 NA
ATOM     11  N   UNL     1       0.390  10.015  18.427  0.00  0.00    +0.000 N 
ATOM     12  C   UNL     1      -0.074  10.914  19.407  0.00  0.00    +0.000 A 
ATOM     13  O   UNL     1       0.639  11.353  20.303  0.00  0.00    +0.000 OA
ATOM     14  C   UNL     1      -1.458  11.278  19.234  0.00  0.00    +0.000 A 
ENDROOT
BRANCH   1  15
ATOM     15  C   UNL     1      -1.709  13.158  20.896  0.00  0.00    +0.000 C 
BRANCH  15  20
ATOM     16  C   UNL     1      -0.828  18.334  18.366  0.00  0.00    +0.000 C 
ATOM     17  C   UNL     1      -1.004  17.025  19.074  0.00  0.00    +0.000 A 
ATOM     18  C   UNL     1      -0.223  15.915  18.745  0.00  0.00    +0.000 A 
ATOM     19  C   UNL     1      -0.436  14.687  19.377  0.00  0.00    +0.000 A 
ATOM     20  C   UNL     1      -1.428  14.541  20.359  0.00  0.00    +0.000 A 
ATOM     21  C   UNL     1      -2.195  15.664  20.697  0.00  0.00    +0.000 A 
ATOM     22  C   UNL     1      -1.984  16.892  20.061  0.00  0.00    +0.000 A 
ENDBRANCH  15  20
ENDBRANCH   1  15
BRANCH  11  23
ATOM     23  C   UNL     1       1.805   9.660  18.415  0.00  0.00    +0.000 C 
BRANCH  23  24
ATOM     24  C   UNL     1       2.078   8.201  18.775  0.00  0.00    +0.000 C 
ATOM     25  O   UNL     1       2.114   7.843  19.953  0.00  0.00    +0.000 OA
ATOM     26  N   UNL     1       2.435   7.400  17.704  0.00  0.00    +0.000 N 
ATOM     27  H   UNL     1       2.765   7.907  16.888  0.00  0.00    +0.000 HD
BRANCH  26  28
ATOM     28  C   UNL     1       2.768   6.037  17.841  0.00  0.00    +0.000 A 
ATOM     29  C   UNL     1       1.780   5.100  18.171  0.00  0.00    +0.000 A 
ATOM     30  C   UNL     1       2.109   3.752  18.287  0.00  0.00    +0.000 A 
ATOM     31 CL   UNL     1       0.890   2.599  18.672  0.00  0.00    +0.000 Cl
ATOM     32  C   UNL     1       3.419   3.327  18.088  0.00  0.00    +0.000 A 
ATOM     33  C   UNL     1       4.408   4.258  17.763  0.00  0.00    +0.000 A 
ATOM     34  C   UNL     1       4.094   5.621  17.630  0.00  0.00    +0.000 A 
ATOM     35  C   UNL     1       5.195   6.607  17.358  0.00  0.00    +0.000 C 
ENDBRANCH  26  28
ENDBRANCH  23  24
ENDBRANCH  11  23
TORSDOF 5
ENDMDL
MODEL 7
REMARK VINA RESULT:      -8.1      4.389     10.392
REMARK  Name = 
REMARK  7 active torsions:
REMARK  status: ('A' for Active; 'I' for Inactive)
REMARK    1  A    between atoms: C_1  and  C_2
REMARK    2  A    between atoms: C_5  and  C_6
REMARK    3  A    between atoms: C_6  and  N_7
REMARK    4  A    between atoms: N_17  and  C_18
REMARK    5  A    between atoms: C_18  and  C_19
REMARK    6  A    between atoms: N_21  and  C_22
REMARK    7  A    between atoms: C_28  and  C_29
REMARK                            x       y       z     vdW  Elec       q    Type
REMARK                         _______ _______ _______ _____ _____    ______ ____
ROOT
ATOM      1  N   UNL     1      -1.910  12.671  20.826  0.00  0.00    +0.000 N 
ATOM      2  C   UNL     1      -3.001  13.063  21.595  0.00  0.00    +0.000 A 
ATOM      3  C   UNL     1      -4.049  13.958  21.318  0.00  0.00    +0.000 A 
ATOM      4  C   UNL     1      -5.014  14.176  22.301  0.00  0.00    +0.000 A 
ATOM      5  C   UNL     1      -4.951  13.511  23.521  0.00  0.00    +0.000 A 
ATOM      6  C   UNL     1      -3.917  12.607  23.787  0.00  0.00    +0.000 A 
ATOM      7  C   UNL     1      -2.924  12.379  22.813  0.00  0.00    +0.000 A 
ATOM      8  C   UNL     1      -1.774  11.551  22.741  0.00  0.00    +0.000 A 
ATOM      9  C   UNL     1      -1.225  10.588  23.654  0.00  0.00    +0.000 A 
ATOM     10  N   UNL     1      -0.137   9.931  23.366  0.00  0.00    +0.000 NA
ATOM     11  N   UNL     1       0.494  10.161  22.129  0.00  0.00    +0.000 N 
ATOM     12  C   UNL     1       0.071  11.105  21.173  0.00  0.00    +0.000 A 
ATOM     13  O   UNL     1       0.675  11.313  20.126  0.00  0.00    +0.000 OA
ATOM     14  C   UNL     1      -1.147  11.781  21.542  0.00  0.00    +0.000 A 
ENDROOT
BRANCH   1  15
ATOM     15  C   UNL     1      -1.719  13.010  19.416  0.00  0.00    +0.000 C 
BRANCH  15  20
ATOM     16  C   UNL     1      -3.890   9.507  15.294  0.00  0.00    +0.000 C 
ATOM     17  C   UNL     1      -3.342  10.349  16.406  0.00  0.00    +0.000 A 
ATOM     18  C   UNL     1      -4.167  11.206  17.138  0.00  0.00    +0.000 A 
ATOM     19  C   UNL     1      -3.631  12.023  18.136  0.00  0.00    +0.000 A 
ATOM     20  C   UNL     1      -2.259  11.999  18.432  0.00  0.00    +0.000 A 
ATOM     21  C   UNL     1      -1.441  11.123  17.707  0.00  0.00    +0.000 A 
ATOM     22  C   UNL     1      -1.977  10.307  16.705  0.00  0.00    +0.000 A 
ENDBRANCH  15  20
ENDBRANCH   1  15
BRANCH  11  23
ATOM     23  C   UNL     1       1.648   9.322  21.823  0.00  0.00    +0.000 C 
BRANCH  23  24
ATOM     24  C   UNL     1       1.293   8.027  21.095  0.00  0.00    +0.000 C 
ATOM     25  O   UNL     1       0.147   7.579  21.138  0.00  0.00    +0.000 OA
ATOM     26  N   UNL     1       2.375   7.354  20.554  0.00  0.00    +0.000 N 
ATOM     27  H   UNL     1       3.274   7.614  20.948  0.00  0.00    +0.000 HD
BRANCH  26  28
ATOM     28  C   UNL     1       2.256   6.119  19.884  0.00  0.00    +0.000 A 
ATOM     29  C   UNL     1       1.942   4.956  20.600  0.00  0.00    +0.000 A 
ATOM     30  C   UNL     1       1.807   3.742  19.933  0.00  0.00    +0.000 A 
ATOM     31 CL   UNL     1       1.400   2.318  20.811  0.00  0.00    +0.000 Cl
ATOM     32  C   UNL     1       1.992   3.670  18.556  0.00  0.00    +0.000 A 
ATOM     33  C   UNL     1       2.309   4.826  17.838  0.00  0.00    +0.000 A 
ATOM     34  C   UNL     1       2.439   6.063  18.492  0.00  0.00    +0.000 A 
ATOM     35  C   UNL     1       2.858   7.272  17.703  0.00  0.00    +0.000 C 
ENDBRANCH  26  28
ENDBRANCH  23  24
ENDBRANCH  11  23
TORSDOF 5
ENDMDL
MODEL 8
REMARK VINA RESULT:      -7.9      2.593      5.053
REMARK  Name = 
REMARK  7 active torsions:
REMARK  status: ('A' for Active; 'I' for Inactive)
REMARK    1  A    between atoms: C_1  and  C_2
REMARK    2  A    between atoms: C_5  and  C_6
REMARK    3  A    between atoms: C_6  and  N_7
REMARK    4  A    between atoms: N_17  and  C_18
REMARK    5  A    between atoms: C_18  and  C_19
REMARK    6  A    between atoms: N_21  and  C_22
REMARK    7  A    between atoms: C_28  and  C_29
REMARK                            x       y       z     vdW  Elec       q    Type
REMARK                         _______ _______ _______ _____ _____    ______ ____
ROOT
ATOM      1  N   UNL     1       3.310   5.435  18.516  0.00  0.00    +0.000 N 
ATOM      2  C   UNL     1       3.177   4.420  19.458  0.00  0.00    +0.000 A 
ATOM      3  C   UNL     1       3.717   3.122  19.494  0.00  0.00    +0.000 A 
ATOM      4  C   UNL     1       3.393   2.299  20.573  0.00  0.00    +0.000 A 
ATOM      5  C   UNL     1       2.570   2.756  21.597  0.00  0.00    +0.000 A 
ATOM      6  C   UNL     1       2.050   4.054  21.567  0.00  0.00    +0.000 A 
ATOM      7  C   UNL     1       2.354   4.900  20.481  0.00  0.00    +0.000 A 
ATOM      8  C   UNL     1       2.018   6.237  20.139  0.00  0.00    +0.000 A 
ATOM      9  C   UNL     1       1.260   7.243  20.827  0.00  0.00    +0.000 A 
ATOM     10  N   UNL     1       1.083   8.425  20.307  0.00  0.00    +0.000 NA
ATOM     11  N   UNL     1       1.666   8.719  19.060  0.00  0.00    +0.000 N 
ATOM     12  C   UNL     1       2.396   7.803  18.277  0.00  0.00    +0.000 A 
ATOM     13  O   UNL     1       2.847   8.081  17.171  0.00  0.00    +0.000 OA
ATOM     14  C   UNL     1       2.573   6.524  18.917  0.00  0.00    +0.000 A 
ENDROOT
BRANCH   1  15
ATOM     15  C   UNL     1       4.237   5.408  17.385  0.00  0.00    +0.000 C 
BRANCH  15  20
ATOM     16  C   UNL     1       9.016   8.556  18.496  0.00  0.00    +0.000 C 
ATOM     17  C   UNL     1       7.828   7.707  18.156  0.00  0.00    +0.000 A 
ATOM     18  C   UNL     1       6.893   8.120  17.205  0.00  0.00    +0.000 A 
ATOM     19  C   UNL     1       5.764   7.341  16.938  0.00  0.00    +0.000 A 
ATOM     20  C   UNL     1       5.546   6.128  17.609  0.00  0.00    +0.000 A 
ATOM     21  C   UNL     1       6.499   5.711  18.548  0.00  0.00    +0.000 A 
ATOM     22  C   UNL     1       7.627   6.492  18.818  0.00  0.00    +0.000 A 
ENDBRANCH  15  20
ENDBRANCH   1  15
BRANCH  11  23
ATOM     23  C   UNL     1       1.518  10.089  18.582  0.00  0.00    +0.000 C 
BRANCH  23  24
ATOM     24  C   UNL     1       0.502  10.912  19.370  0.00  0.00    +0.000 C 
ATOM     25  O   UNL     1      -0.611  11.148  18.901  0.00  0.00    +0.000 OA
ATOM     26  N   UNL     1       0.997  11.482  20.531  0.00  0.00    +0.000 N 
ATOM     27  H   UNL     1       2.010  11.549  20.570  0.00  0.00    +0.000 HD
BRANCH  26  28
ATOM     28  C   UNL     1       0.226  12.311  21.370  0.00  0.00    +0.000 A 
ATOM     29  C   UNL     1      -0.901  11.797  22.026  0.00  0.00    +0.000 A 
ATOM     30  C   UNL     1      -1.650  12.614  22.869  0.00  0.00    +0.000 A 
ATOM     31 CL   UNL     1      -3.021  11.975  23.692  0.00  0.00    +0.000 Cl
ATOM     32  C   UNL     1      -1.295  13.946  23.057  0.00  0.00    +0.000 A 
ATOM     33  C   UNL     1      -0.176  14.464  22.401  0.00  0.00    +0.000 A 
ATOM     34  C   UNL     1       0.599  13.653  21.556  0.00  0.00    +0.000 A 
ATOM     35  C   UNL     1       1.750  14.261  20.803  0.00  0.00    +0.000 C 
ENDBRANCH  26  28
ENDBRANCH  23  24
ENDBRANCH  11  23
TORSDOF 5
ENDMDL
MODEL 9
REMARK VINA RESULT:      -7.9      2.797      5.416
REMARK  Name = 
REMARK  7 active torsions:
REMARK  status: ('A' for Active; 'I' for Inactive)
REMARK    1  A    between atoms: C_1  and  C_2
REMARK    2  A    between atoms: C_5  and  C_6
REMARK    3  A    between atoms: C_6  and  N_7
REMARK    4  A    between atoms: N_17  and  C_18
REMARK    5  A    between atoms: C_18  and  C_19
REMARK    6  A    between atoms: N_21  and  C_22
REMARK    7  A    between atoms: C_28  and  C_29
REMARK                            x       y       z     vdW  Elec       q    Type
REMARK                         _______ _______ _______ _____ _____    ______ ____
ROOT
ATOM      1  N   UNL     1       4.435   5.252  18.794  0.00  0.00    +0.000 N 
ATOM      2  C   UNL     1       4.031   4.219  19.634  0.00  0.00    +0.000 A 
ATOM      3  C   UNL     1       4.638   2.988  19.936  0.00  0.00    +0.000 A 
ATOM      4  C   UNL     1       3.985   2.123  20.816  0.00  0.00    +0.000 A 
ATOM      5  C   UNL     1       2.771   2.479  21.394  0.00  0.00    +0.000 A 
ATOM      6  C   UNL     1       2.179   3.712  21.106  0.00  0.00    +0.000 A 
ATOM      7  C   UNL     1       2.814   4.597  20.211  0.00  0.00    +0.000 A 
ATOM      8  C   UNL     1       2.514   5.892  19.713  0.00  0.00    +0.000 A 
ATOM      9  C   UNL     1       1.440   6.804  19.992  0.00  0.00    +0.000 A 
ATOM     10  N   UNL     1       1.372   7.964  19.403  0.00  0.00    +0.000 NA
ATOM     11  N   UNL     1       2.383   8.331  18.495  0.00  0.00    +0.000 N 
ATOM     12  C   UNL     1       3.462   7.509  18.115  0.00  0.00    +0.000 A 
ATOM     13  O   UNL     1       4.297   7.844  17.283  0.00  0.00    +0.000 OA
ATOM     14  C   UNL     1       3.490   6.250  18.817  0.00  0.00    +0.000 A 
ENDROOT
BRANCH   1  15
ATOM     15  C   UNL     1       5.743   5.337  18.146  0.00  0.00    +0.000 C 
BRANCH  15  20
ATOM     16  C   UNL     1       6.214   3.538  12.621  0.00  0.00    +0.000 C 
ATOM     17  C   UNL     1       6.050   4.062  14.016  0.00  0.00    +0.000 A 
ATOM     18  C   UNL     1       7.004   4.908  14.586  0.00  0.00    +0.000 A 
ATOM     19  C   UNL     1       6.862   5.345  15.906  0.00  0.00    +0.000 A 
ATOM     20  C   UNL     1       5.762   4.953  16.685  0.00  0.00    +0.000 A 
ATOM     21  C   UNL     1       4.801   4.120  16.099  0.00  0.00    +0.000 A 
ATOM     22  C   UNL     1       4.943   3.679  14.779  0.00  0.00    +0.000 A 
ENDBRANCH  15  20
ENDBRANCH   1  15
BRANCH  11  23
ATOM     23  C   UNL     1       2.306   9.682  17.950  0.00  0.00    +0.000 C 
BRANCH  23  24
ATOM     24  C   UNL     1       1.141  10.504  18.498  0.00  0.00    +0.000 C 
ATOM     25  O   UNL     1       1.295  11.231  19.479  0.00  0.00    +0.000 OA
ATOM     26  N   UNL     1      -0.084  10.228  17.915  0.00  0.00    +0.000 N 
ATOM     27  H   UNL     1      -0.131   9.335  17.431  0.00  0.00    +0.000 HD
BRANCH  26  28
ATOM     28  C   UNL     1      -1.283  10.850  18.315  0.00  0.00    +0.000 A 
ATOM     29  C   UNL     1      -1.328  11.597  19.501  0.00  0.00    +0.000 A 
ATOM     30  C   UNL     1      -2.510  12.225  19.884  0.00  0.00    +0.000 A 
ATOM     31 CL   UNL     1      -2.557  13.160  21.329  0.00  0.00    +0.000 Cl
ATOM     32  C   UNL     1      -3.655  12.109  19.103  0.00  0.00    +0.000 A 
ATOM     33  C   UNL     1      -3.617  11.363  17.923  0.00  0.00    +0.000 A 
ATOM     34  C   UNL     1      -2.432  10.730  17.513  0.00  0.00    +0.000 A 
ATOM     35  C   UNL     1      -2.444   9.870  16.281  0.00  0.00    +0.000 C 
ENDBRANCH  26  28
ENDBRANCH  23  24
ENDBRANCH  11  23
TORSDOF 5
ENDMDL
