MODEL 1
REMARK VINA RESULT:      -8.2      0.000      0.000
REMARK  Name = 
REMARK  7 active torsions:
REMARK  status: ('A' for Active; 'I' for Inactive)
REMARK    1  A    between atoms: N_1  and  C_2
REMARK    2  A    between atoms: C_6  and  C_7
REMARK    3  A    between atoms: C_7  and  C_23
REMARK    4  A    between atoms: C_8  and  C_9
REMARK    5  A    between atoms: CA_10  and  C_11
REMARK    6  A    between atoms: C_11  and  OXT_13
REMARK    7  A    between atoms: C_23  and  O_25
REMARK                            x       y       z     vdW  Elec       q    Type
REMARK                         _______ _______ _______ _____ _____    ______ ____
ROOT
ATOM      1  C   UNL     1       3.786   4.361  17.843  0.00  0.00    +0.000 A 
ATOM      2  CA  UNL     1       3.677   3.329  18.773  0.00  0.00    +0.000 A 
ATOM      3  N   UNL     1       2.984   3.866  19.844  0.00  0.00    +0.000 N 
ATOM      4  C   UNL     1       2.748   5.205  19.678  0.00  0.00    +0.000 A 
ATOM      5  C   UNL     1       2.209   6.136  20.579  0.00  0.00    +0.000 A 
ATOM      6  C   UNL     1       2.067   7.456  20.145  0.00  0.00    +0.000 A 
ATOM      7 CL   UNL     1       1.465   8.642  21.240  0.00  0.00    +0.000 Cl
ATOM      8  C   UNL     1       2.407   7.832  18.852  0.00  0.00    +0.000 A 
ATOM      9  C   UNL     1       2.946   6.883  17.985  0.00  0.00    +0.000 A 
ATOM     10 CL   UNL     1       3.356   7.316  16.382  0.00  0.00    +0.000 Cl
ATOM     11  C   UNL     1       3.164   5.542  18.388  0.00  0.00    +0.000 A 
ATOM     12  H   UNL     1       2.770   3.335  20.681  0.00  0.00    +0.000 HD
ENDROOT
BRANCH   1  14
ATOM     13  C   UNL     1       5.766   4.908  16.390  0.00  0.00    +0.000 C 
ATOM     14  C   UNL     1       4.569   4.345  16.648  0.00  0.00    +0.000 C 
BRANCH  13  19
ATOM     15  C   UNL     1       8.034   5.778  19.285  0.00  0.00    +0.000 A 
ATOM     16  C   UNL     1       8.310   7.115  18.991  0.00  0.00    +0.000 A 
ATOM     17  C   UNL     1       7.723   7.742  17.891  0.00  0.00    +0.000 A 
ATOM     18  C   UNL     1       6.841   7.037  17.075  0.00  0.00    +0.000 A 
ATOM     19  C   UNL     1       6.541   5.699  17.358  0.00  0.00    +0.000 A 
ATOM     20  C   UNL     1       7.112   5.090  18.488  0.00  0.00    +0.000 A 
BRANCH  15  21
ATOM     21  N   UNL     1       8.505   5.216  20.475  0.00  0.00    +0.000 N 
ATOM     22  H   UNL     1       7.777   4.895  21.105  0.00  0.00    +0.000 HD
ATOM     23  H   UNL     1       9.237   5.736  20.944  0.00  0.00    +0.000 HD
ENDBRANCH  15  21
ENDBRANCH  13  19
BRANCH  13  24
ATOM     24  C   UNL     1       6.265   4.696  14.988  0.00  0.00    +0.000 C 
ATOM     25  O   UNL     1       5.607   4.150  14.116  0.00  0.00    +0.000 OA
BRANCH  24  26
ATOM     26  O   UNL     1       7.494   5.193  14.741  0.00  0.00    +0.000 OA
ATOM     27  H   UNL     1       7.803   5.895  15.345  0.00  0.00    +0.000 HD
ENDBRANCH  24  26
ENDBRANCH  13  24
ENDBRANCH   1  14
BRANCH   2  28
ATOM     28  C   UNL     1       4.105   1.950  18.877  0.00  0.00    +0.000 C 
ATOM     29  O   UNL     1       3.666   1.054  18.170  0.00  0.00    +0.000 OA
BRANCH  28  30
ATOM     30  OXT UNL     1       5.013   1.708  19.845  0.00  0.00    +0.000 OA
ATOM     31  HXT UNL     1       5.309   2.506  20.310  0.00  0.00    +0.000 HD
ENDBRANCH  28  30
ENDBRANCH   2  28
TORSDOF 7
ENDMDL
MODEL 2
REMARK VINA RESULT:      -7.6      2.712      3.633
REMARK  Name = 
REMARK  7 active torsions:
REMARK  status: ('A' for Active; 'I' for Inactive)
REMARK    1  A    between atoms: N_1  and  C_2
REMARK    2  A    between atoms: C_6  and  C_7
REMARK    3  A    between atoms: C_7  and  C_23
REMARK    4  A    between atoms: C_8  and  C_9
REMARK    5  A    between atoms: CA_10  and  C_11
REMARK    6  A    between atoms: C_11  and  OXT_13
REMARK    7  A    between atoms: C_23  and  O_25
REMARK                            x       y       z     vdW  Elec       q    Type
REMARK                         _______ _______ _______ _____ _____    ______ ____
ROOT
ATOM      1  C   UNL     1       3.369   5.606  18.070  0.00  0.00    +0.000 A 
ATOM      2  CA  UNL     1       2.694   6.779  18.400  0.00  0.00    +0.000 A 
ATOM      3  N   UNL     1       2.012   6.500  19.571  0.00  0.00    +0.000 N 
ATOM      4  C   UNL     1       2.141   5.185  19.934  0.00  0.00    +0.000 A 
ATOM      5  C   UNL     1       1.503   4.475  20.962  0.00  0.00    +0.000 A 
ATOM      6  C   UNL     1       1.827   3.126  21.121  0.00  0.00    +0.000 A 
ATOM      7 CL   UNL     1       1.022   2.204  22.333  0.00  0.00    +0.000 Cl
ATOM      8  C   UNL     1       2.779   2.513  20.318  0.00  0.00    +0.000 A 
ATOM      9  C   UNL     1       3.389   3.246  19.301  0.00  0.00    +0.000 A 
ATOM     10 CL   UNL     1       4.578   2.518  18.310  0.00  0.00    +0.000 Cl
ATOM     11  C   UNL     1       3.060   4.602  19.059  0.00  0.00    +0.000 A 
ATOM     12  H   UNL     1       1.420   7.179  20.037  0.00  0.00    +0.000 HD
ENDROOT
BRANCH   1  14
ATOM     13  C   UNL     1       5.355   5.584  16.525  0.00  0.00    +0.000 C 
ATOM     14  C   UNL     1       4.069   5.344  16.853  0.00  0.00    +0.000 C 
BRANCH  13  19
ATOM     15  C   UNL     1       8.021   5.975  19.175  0.00  0.00    +0.000 A 
ATOM     16  C   UNL     1       8.471   7.264  18.886  0.00  0.00    +0.000 A 
ATOM     17  C   UNL     1       7.879   8.018  17.871  0.00  0.00    +0.000 A 
ATOM     18  C   UNL     1       6.816   7.492  17.140  0.00  0.00    +0.000 A 
ATOM     19  C   UNL     1       6.341   6.205  17.421  0.00  0.00    +0.000 A 
ATOM     20  C   UNL     1       6.924   5.469  18.467  0.00  0.00    +0.000 A 
BRANCH  15  21
ATOM     21  N   UNL     1       8.518   5.298  20.292  0.00  0.00    +0.000 N 
ATOM     22  H   UNL     1       9.214   4.590  20.080  0.00  0.00    +0.000 HD
ATOM     23  H   UNL     1       7.822   4.985  20.959  0.00  0.00    +0.000 HD
ENDBRANCH  15  21
ENDBRANCH  13  19
BRANCH  13  24
ATOM     24  C   UNL     1       5.723   5.191  15.122  0.00  0.00    +0.000 C 
ATOM     25  O   UNL     1       6.755   5.547  14.574  0.00  0.00    +0.000 OA
BRANCH  24  26
ATOM     26  O   UNL     1       4.842   4.372  14.511  0.00  0.00    +0.000 OA
ATOM     27  H   UNL     1       4.025   4.175  15.006  0.00  0.00    +0.000 HD
ENDBRANCH  24  26
ENDBRANCH  13  24
ENDBRANCH   1  14
BRANCH   2  28
ATOM     28  C   UNL     1       2.536   8.102  17.834  0.00  0.00    +0.000 C 
ATOM     29  O   UNL     1       3.220   8.527  16.913  0.00  0.00    +0.000 OA
BRANCH  28  30
ATOM     30  OXT UNL     1       1.589   8.863  18.422  0.00  0.00    +0.000 OA
ATOM     31  HXT UNL     1       0.698   8.482  18.375  0.00  0.00    +0.000 HD
ENDBRANCH  28  30
ENDBRANCH   2  28
TORSDOF 7
ENDMDL
MODEL 3
REMARK VINA RESULT:      -7.5      1.062      1.544
REMARK  Name = 
REMARK  7 active torsions:
REMARK  status: ('A' for Active; 'I' for Inactive)
REMARK    1  A    between atoms: N_1  and  C_2
REMARK    2  A    between atoms: C_6  and  C_7
REMARK    3  A    between atoms: C_7  and  C_23
REMARK    4  A    between atoms: C_8  and  C_9
REMARK    5  A    between atoms: CA_10  and  C_11
REMARK    6  A    between atoms: C_11  and  OXT_13
REMARK    7  A    between atoms: C_23  and  O_25
REMARK                            x       y       z     vdW  Elec       q    Type
REMARK                         _______ _______ _______ _____ _____    ______ ____
ROOT
ATOM      1  C   UNL     1       4.088   4.437  17.406  0.00  0.00    +0.000 A 
ATOM      2  CA  UNL     1       3.864   3.463  18.376  0.00  0.00    +0.000 A 
ATOM      3  N   UNL     1       3.121   4.086  19.364  0.00  0.00    +0.000 N 
ATOM      4  C   UNL     1       2.959   5.423  19.112  0.00  0.00    +0.000 A 
ATOM      5  C   UNL     1       2.400   6.423  19.922  0.00  0.00    +0.000 A 
ATOM      6  C   UNL     1       2.351   7.722  19.412  0.00  0.00    +0.000 A 
ATOM      7 CL   UNL     1       1.727   8.990  20.397  0.00  0.00    +0.000 Cl
ATOM      8  C   UNL     1       2.800   8.012  18.131  0.00  0.00    +0.000 A 
ATOM      9  C   UNL     1       3.356   6.996  17.355  0.00  0.00    +0.000 A 
ATOM     10 CL   UNL     1       3.900   7.325  15.768  0.00  0.00    +0.000 Cl
ATOM     11  C   UNL     1       3.482   5.672  17.842  0.00  0.00    +0.000 A 
ATOM     12  H   UNL     1       2.823   3.610  20.209  0.00  0.00    +0.000 HD
ENDROOT
BRANCH   1  14
ATOM     13  C   UNL     1       6.222   4.749  16.109  0.00  0.00    +0.000 C 
ATOM     14  C   UNL     1       4.953   4.324  16.274  0.00  0.00    +0.000 C 
BRANCH  13  19
ATOM     15  C   UNL     1       7.789   7.560  18.090  0.00  0.00    +0.000 A 
ATOM     16  C   UNL     1       8.164   6.870  19.245  0.00  0.00    +0.000 A 
ATOM     17  C   UNL     1       7.955   5.495  19.357  0.00  0.00    +0.000 A 
ATOM     18  C   UNL     1       7.377   4.789  18.304  0.00  0.00    +0.000 A 
ATOM     19  C   UNL     1       7.003   5.459  17.133  0.00  0.00    +0.000 A 
ATOM     20  C   UNL     1       7.249   6.837  17.020  0.00  0.00    +0.000 A 
BRANCH  15  21
ATOM     21  N   UNL     1       8.147   8.902  17.934  0.00  0.00    +0.000 N 
ATOM     22  H   UNL     1       8.158   9.437  18.795  0.00  0.00    +0.000 HD
ATOM     23  H   UNL     1       7.694   9.388  17.169  0.00  0.00    +0.000 HD
ENDBRANCH  15  21
ENDBRANCH  13  19
BRANCH  13  24
ATOM     24  C   UNL     1       6.799   4.470  14.750  0.00  0.00    +0.000 C 
ATOM     25  O   UNL     1       7.656   5.167  14.228  0.00  0.00    +0.000 OA
BRANCH  24  26
ATOM     26  O   UNL     1       6.331   3.357  14.151  0.00  0.00    +0.000 OA
ATOM     27  H   UNL     1       5.737   3.496  13.389  0.00  0.00    +0.000 HD
ENDBRANCH  24  26
ENDBRANCH  13  24
ENDBRANCH   1  14
BRANCH   2  28
ATOM     28  C   UNL     1       4.219   2.075  18.582  0.00  0.00    +0.000 C 
ATOM     29  O   UNL     1       3.777   1.159  17.903  0.00  0.00    +0.000 OA
BRANCH  28  30
ATOM     30  OXT UNL     1       5.062   1.850  19.612  0.00  0.00    +0.000 OA
ATOM     31  HXT UNL     1       5.302   2.652  20.101  0.00  0.00    +0.000 HD
ENDBRANCH  28  30
ENDBRANCH   2  28
TORSDOF 7
ENDMDL
MODEL 4
REMARK VINA RESULT:      -7.3      2.790      3.766
REMARK  Name = 
REMARK  7 active torsions:
REMARK  status: ('A' for Active; 'I' for Inactive)
REMARK    1  A    between atoms: N_1  and  C_2
REMARK    2  A    between atoms: C_6  and  C_7
REMARK    3  A    between atoms: C_7  and  C_23
REMARK    4  A    between atoms: C_8  and  C_9
REMARK    5  A    between atoms: CA_10  and  C_11
REMARK    6  A    between atoms: C_11  and  OXT_13
REMARK    7  A    between atoms: C_23  and  O_25
REMARK                            x       y       z     vdW  Elec       q    Type
REMARK                         _______ _______ _______ _____ _____    ______ ____
ROOT
ATOM      1  C   UNL     1       3.560   5.489  17.924  0.00  0.00    +0.000 A 
ATOM      2  CA  UNL     1       2.995   6.711  18.282  0.00  0.00    +0.000 A 
ATOM      3  N   UNL     1       2.347   6.484  19.483  0.00  0.00    +0.000 N 
ATOM      4  C   UNL     1       2.389   5.162  19.842  0.00  0.00    +0.000 A 
ATOM      5  C   UNL     1       1.744   4.502  20.899  0.00  0.00    +0.000 A 
ATOM      6  C   UNL     1       1.968   3.131  21.045  0.00  0.00    +0.000 A 
ATOM      7 CL   UNL     1       1.148   2.273  22.294  0.00  0.00    +0.000 Cl
ATOM      8  C   UNL     1       2.832   2.448  20.201  0.00  0.00    +0.000 A 
ATOM      9  C   UNL     1       3.452   3.132  19.157  0.00  0.00    +0.000 A 
ATOM     10 CL   UNL     1       4.535   2.316  18.115  0.00  0.00    +0.000 Cl
ATOM     11  C   UNL     1       3.219   4.510  18.927  0.00  0.00    +0.000 A 
ATOM     12  H   UNL     1       1.831   7.206  19.974  0.00  0.00    +0.000 HD
ENDROOT
BRANCH   1  14
ATOM     13  C   UNL     1       5.467   5.318  16.290  0.00  0.00    +0.000 C 
ATOM     14  C   UNL     1       4.183   5.175  16.677  0.00  0.00    +0.000 C 
BRANCH  13  19
ATOM     15  C   UNL     1       7.739   7.793  18.020  0.00  0.00    +0.000 A 
ATOM     16  C   UNL     1       8.305   6.970  18.996  0.00  0.00    +0.000 A 
ATOM     17  C   UNL     1       7.989   5.612  19.058  0.00  0.00    +0.000 A 
ATOM     18  C   UNL     1       7.108   5.058  18.133  0.00  0.00    +0.000 A 
ATOM     19  C   UNL     1       6.537   5.862  17.139  0.00  0.00    +0.000 A 
ATOM     20  C   UNL     1       6.890   7.220  17.067  0.00  0.00    +0.000 A 
BRANCH  15  21
ATOM     21  N   UNL     1       8.185   9.110  17.876  0.00  0.00    +0.000 N 
ATOM     22  H   UNL     1       8.503   9.543  18.736  0.00  0.00    +0.000 HD
ATOM     23  H   UNL     1       7.589   9.714  17.322  0.00  0.00    +0.000 HD
ENDBRANCH  15  21
ENDBRANCH  13  19
BRANCH  13  24
ATOM     24  C   UNL     1       5.740   4.899  14.873  0.00  0.00    +0.000 C 
ATOM     25  O   UNL     1       4.946   4.266  14.195  0.00  0.00    +0.000 OA
BRANCH  24  26
ATOM     26  O   UNL     1       6.925   5.310  14.378  0.00  0.00    +0.000 OA
ATOM     27  H   UNL     1       7.212   6.205  14.639  0.00  0.00    +0.000 HD
ENDBRANCH  24  26
ENDBRANCH  13  24
ENDBRANCH   1  14
BRANCH   2  28
ATOM     28  C   UNL     1       2.916   8.043  17.721  0.00  0.00    +0.000 C 
ATOM     29  O   UNL     1       3.537   8.394  16.728  0.00  0.00    +0.000 OA
BRANCH  28  30
ATOM     30  OXT UNL     1       2.121   8.899  18.398  0.00  0.00    +0.000 OA
ATOM     31  HXT UNL     1       2.239   9.827  18.142  0.00  0.00    +0.000 HD
ENDBRANCH  28  30
ENDBRANCH   2  28
TORSDOF 7
ENDMDL
MODEL 5
REMARK VINA RESULT:      -7.1      2.903      6.009
REMARK  Name = 
REMARK  7 active torsions:
REMARK  status: ('A' for Active; 'I' for Inactive)
REMARK    1  A    between atoms: N_1  and  C_2
REMARK    2  A    between atoms: C_6  and  C_7
REMARK    3  A    between atoms: C_7  and  C_23
REMARK    4  A    between atoms: C_8  and  C_9
REMARK    5  A    between atoms: CA_10  and  C_11
REMARK    6  A    between atoms: C_11  and  OXT_13
REMARK    7  A    between atoms: C_23  and  O_25
REMARK                            x       y       z     vdW  Elec       q    Type
REMARK                         _______ _______ _______ _____ _____    ______ ____
ROOT
ATOM      1  C   UNL     1       6.051   4.561  17.786  0.00  0.00    +0.000 A 
ATOM      2  CA  UNL     1       7.133   5.372  18.119  0.00  0.00    +0.000 A 
ATOM      3  N   UNL     1       7.697   5.753  16.914  0.00  0.00    +0.000 N 
ATOM      4  C   UNL     1       7.089   5.139  15.851  0.00  0.00    +0.000 A 
ATOM      5  C   UNL     1       7.444   5.144  14.493  0.00  0.00    +0.000 A 
ATOM      6  C   UNL     1       6.635   4.431  13.606  0.00  0.00    +0.000 A 
ATOM      7 CL   UNL     1       7.070   4.363  11.940  0.00  0.00    +0.000 Cl
ATOM      8  C   UNL     1       5.494   3.771  14.040  0.00  0.00    +0.000 A 
ATOM      9  C   UNL     1       5.174   3.780  15.397  0.00  0.00    +0.000 A 
ATOM     10 CL   UNL     1       3.764   2.990  15.954  0.00  0.00    +0.000 Cl
ATOM     11  C   UNL     1       5.987   4.441  16.350  0.00  0.00    +0.000 A 
ATOM     12  H   UNL     1       8.519   6.344  16.855  0.00  0.00    +0.000 HD
ENDROOT
BRANCH   1  14
ATOM     13  C   UNL     1       4.082   4.077  19.278  0.00  0.00    +0.000 C 
ATOM     14  C   UNL     1       5.261   3.787  18.691  0.00  0.00    +0.000 C 
BRANCH  13  19
ATOM     15  C   UNL     1       2.228   7.282  20.037  0.00  0.00    +0.000 A 
ATOM     16  C   UNL     1       2.255   7.888  18.780  0.00  0.00    +0.000 A 
ATOM     17  C   UNL     1       2.825   7.238  17.684  0.00  0.00    +0.000 A 
ATOM     18  C   UNL     1       3.367   5.963  17.833  0.00  0.00    +0.000 A 
ATOM     19  C   UNL     1       3.341   5.333  19.083  0.00  0.00    +0.000 A 
ATOM     20  C   UNL     1       2.735   5.984  20.170  0.00  0.00    +0.000 A 
BRANCH  15  21
ATOM     21  N   UNL     1       1.517   7.878  21.082  0.00  0.00    +0.000 N 
ATOM     22  H   UNL     1       0.768   8.493  20.784  0.00  0.00    +0.000 HD
ATOM     23  H   UNL     1       2.082   8.270  21.826  0.00  0.00    +0.000 HD
ENDBRANCH  15  21
ENDBRANCH  13  19
BRANCH  13  24
ATOM     24  C   UNL     1       3.568   3.011  20.204  0.00  0.00    +0.000 C 
ATOM     25  O   UNL     1       2.381   2.830  20.426  0.00  0.00    +0.000 OA
BRANCH  24  26
ATOM     26  O   UNL     1       4.520   2.228  20.752  0.00  0.00    +0.000 OA
ATOM     27  H   UNL     1       4.448   1.273  20.567  0.00  0.00    +0.000 HD
ENDBRANCH  24  26
ENDBRANCH  13  24
ENDBRANCH   1  14
BRANCH   2  28
ATOM     28  C   UNL     1       7.764   5.848  19.332  0.00  0.00    +0.000 C 
ATOM     29  O   UNL     1       7.623   5.308  20.421  0.00  0.00    +0.000 OA
BRANCH  28  30
ATOM     30  OXT UNL     1       8.506   6.966  19.187  0.00  0.00    +0.000 OA
ATOM     31  HXT UNL     1       8.271   7.673  19.806  0.00  0.00    +0.000 HD
ENDBRANCH  28  30
ENDBRANCH   2  28
TORSDOF 7
ENDMDL
MODEL 6
REMARK VINA RESULT:      -6.6      6.610      9.350
REMARK  Name = 
REMARK  7 active torsions:
REMARK  status: ('A' for Active; 'I' for Inactive)
REMARK    1  A    between atoms: N_1  and  C_2
REMARK    2  A    between atoms: C_6  and  C_7
REMARK    3  A    between atoms: C_7  and  C_23
REMARK    4  A    between atoms: C_8  and  C_9
REMARK    5  A    between atoms: CA_10  and  C_11
REMARK    6  A    between atoms: C_11  and  OXT_13
REMARK    7  A    between atoms: C_23  and  O_25
REMARK                            x       y       z     vdW  Elec       q    Type
REMARK                         _______ _______ _______ _____ _____    ______ ____
ROOT
ATOM      1  C   UNL     1       0.709  10.572  20.689  0.00  0.00    +0.000 A 
ATOM      2  CA  UNL     1       0.277   9.847  21.796  0.00  0.00    +0.000 A 
ATOM      3  N   UNL     1       0.748   8.560  21.606  0.00  0.00    +0.000 N 
ATOM      4  C   UNL     1       1.360   8.417  20.388  0.00  0.00    +0.000 A 
ATOM      5  C   UNL     1       1.839   7.258  19.759  0.00  0.00    +0.000 A 
ATOM      6  C   UNL     1       2.435   7.397  18.503  0.00  0.00    +0.000 A 
ATOM      7 CL   UNL     1       2.983   5.992  17.672  0.00  0.00    +0.000 Cl
ATOM      8  C   UNL     1       2.588   8.643  17.911  0.00  0.00    +0.000 A 
ATOM      9  C   UNL     1       2.094   9.774  18.560  0.00  0.00    +0.000 A 
ATOM     10 CL   UNL     1       2.286  11.322  17.859  0.00  0.00    +0.000 Cl
ATOM     11  C   UNL     1       1.432   9.686  19.809  0.00  0.00    +0.000 A 
ATOM     12  H   UNL     1       0.569   7.806  22.261  0.00  0.00    +0.000 HD
ENDROOT
BRANCH   1  14
ATOM     13  C   UNL     1      -0.687  12.341  19.569  0.00  0.00    +0.000 C 
ATOM     14  C   UNL     1       0.325  11.904  20.345  0.00  0.00    +0.000 C 
BRANCH  13  19
ATOM     15  C   UNL     1      -3.945  10.984  18.217  0.00  0.00    +0.000 A 
ATOM     16  C   UNL     1      -3.463  10.047  17.302  0.00  0.00    +0.000 A 
ATOM     17  C   UNL     1      -2.092   9.822  17.162  0.00  0.00    +0.000 A 
ATOM     18  C   UNL     1      -1.186  10.528  17.950  0.00  0.00    +0.000 A 
ATOM     19  C   UNL     1      -1.649  11.465  18.882  0.00  0.00    +0.000 A 
ATOM     20  C   UNL     1      -3.032  11.657  19.036  0.00  0.00    +0.000 A 
BRANCH  15  21
ATOM     21  N   UNL     1      -5.319  11.082  18.454  0.00  0.00    +0.000 N 
ATOM     22  H   UNL     1      -5.581  11.034  19.433  0.00  0.00    +0.000 HD
ATOM     23  H   UNL     1      -5.907  10.514  17.856  0.00  0.00    +0.000 HD
ENDBRANCH  15  21
ENDBRANCH  13  19
BRANCH  13  24
ATOM     24  C   UNL     1      -0.756  13.834  19.417  0.00  0.00    +0.000 C 
ATOM     25  O   UNL     1      -1.041  14.591  20.332  0.00  0.00    +0.000 OA
BRANCH  24  26
ATOM     26  O   UNL     1      -0.437  14.296  18.190  0.00  0.00    +0.000 OA
ATOM     27  H   UNL     1      -1.144  14.255  17.519  0.00  0.00    +0.000 HD
ENDBRANCH  24  26
ENDBRANCH  13  24
ENDBRANCH   1  14
BRANCH   2  28
ATOM     28  C   UNL     1      -0.503  10.102  22.989  0.00  0.00    +0.000 C 
ATOM     29  O   UNL     1      -1.471  10.849  23.012  0.00  0.00    +0.000 OA
BRANCH  28  30
ATOM     30  OXT UNL     1      -0.066   9.475  24.101  0.00  0.00    +0.000 OA
ATOM     31  HXT UNL     1      -0.721   8.879  24.495  0.00  0.00    +0.000 HD
ENDBRANCH  28  30
ENDBRANCH   2  28
TORSDOF 7
ENDMDL
MODEL 7
REMARK VINA RESULT:      -6.5      8.237     11.080
REMARK  Name = 
REMARK  7 active torsions:
REMARK  status: ('A' for Active; 'I' for Inactive)
REMARK    1  A    between atoms: N_1  and  C_2
REMARK    2  A    between atoms: C_6  and  C_7
REMARK    3  A    between atoms: C_7  and  C_23
REMARK    4  A    between atoms: C_8  and  C_9
REMARK    5  A    between atoms: CA_10  and  C_11
REMARK    6  A    between atoms: C_11  and  OXT_13
REMARK    7  A    between atoms: C_23  and  O_25
REMARK                            x       y       z     vdW  Elec       q    Type
REMARK                         _______ _______ _______ _____ _____    ______ ____
ROOT
ATOM      1  C   UNL     1      -0.098  11.632  21.009  0.00  0.00    +0.000 A 
ATOM      2  CA  UNL     1      -0.025  10.323  21.481  0.00  0.00    +0.000 A 
ATOM      3  N   UNL     1      -0.455   9.526  20.435  0.00  0.00    +0.000 N 
ATOM      4  C   UNL     1      -0.893  10.272  19.373  0.00  0.00    +0.000 A 
ATOM      5  C   UNL     1      -1.530   9.859  18.193  0.00  0.00    +0.000 A 
ATOM      6  C   UNL     1      -1.868  10.840  17.257  0.00  0.00    +0.000 A 
ATOM      7 CL   UNL     1      -2.703  10.381  15.822  0.00  0.00    +0.000 Cl
ATOM      8  C   UNL     1      -1.550  12.175  17.464  0.00  0.00    +0.000 A 
ATOM      9  C   UNL     1      -0.924  12.552  18.652  0.00  0.00    +0.000 A 
ATOM     10 CL   UNL     1      -0.506  14.188  18.923  0.00  0.00    +0.000 Cl
ATOM     11  C   UNL     1      -0.607  11.608  19.659  0.00  0.00    +0.000 A 
ATOM     12  H   UNL     1      -0.518   8.516  20.505  0.00  0.00    +0.000 HD
ENDROOT
BRANCH   1  14
ATOM     13  C   UNL     1      -0.833  13.582  22.419  0.00  0.00    +0.000 C 
ATOM     14  C   UNL     1       0.078  12.822  21.779  0.00  0.00    +0.000 C 
BRANCH  13  19
ATOM     15  C   UNL     1      -4.263  12.615  23.680  0.00  0.00    +0.000 A 
ATOM     16  C   UNL     1      -5.057  13.118  22.648  0.00  0.00    +0.000 A 
ATOM     17  C   UNL     1      -4.480  13.719  21.529  0.00  0.00    +0.000 A 
ATOM     18  C   UNL     1      -3.095  13.814  21.425  0.00  0.00    +0.000 A 
ATOM     19  C   UNL     1      -2.278  13.308  22.443  0.00  0.00    +0.000 A 
ATOM     20  C   UNL     1      -2.870  12.674  23.548  0.00  0.00    +0.000 A 
BRANCH  15  21
ATOM     21  N   UNL     1      -4.848  11.879  24.714  0.00  0.00    +0.000 N 
ATOM     22  H   UNL     1      -5.575  12.372  25.222  0.00  0.00    +0.000 HD
ATOM     23  H   UNL     1      -4.201  11.389  25.321  0.00  0.00    +0.000 HD
ENDBRANCH  15  21
ENDBRANCH  13  19
BRANCH  13  24
ATOM     24  C   UNL     1      -0.264  14.790  23.107  0.00  0.00    +0.000 C 
ATOM     25  O   UNL     1      -0.755  15.286  24.110  0.00  0.00    +0.000 OA
BRANCH  24  26
ATOM     26  O   UNL     1       0.867  15.277  22.558  0.00  0.00    +0.000 OA
ATOM     27  H   UNL     1       0.769  15.723  21.696  0.00  0.00    +0.000 HD
ENDBRANCH  24  26
ENDBRANCH  13  24
ENDBRANCH   1  14
BRANCH   2  28
ATOM     28  C   UNL     1       0.345   9.664  22.716  0.00  0.00    +0.000 C 
ATOM     29  O   UNL     1       1.502   9.430  23.033  0.00  0.00    +0.000 OA
BRANCH  28  30
ATOM     30  OXT UNL     1      -0.693   9.290  23.494  0.00  0.00    +0.000 OA
ATOM     31  HXT UNL     1      -0.593   8.406  23.878  0.00  0.00    +0.000 HD
ENDBRANCH  28  30
ENDBRANCH   2  28
TORSDOF 7
ENDMDL
MODEL 8
REMARK VINA RESULT:      -6.5      7.799     10.250
REMARK  Name = 
REMARK  7 active torsions:
REMARK  status: ('A' for Active; 'I' for Inactive)
REMARK    1  A    between atoms: N_1  and  C_2
REMARK    2  A    between atoms: C_6  and  C_7
REMARK    3  A    between atoms: C_7  and  C_23
REMARK    4  A    between atoms: C_8  and  C_9
REMARK    5  A    between atoms: CA_10  and  C_11
REMARK    6  A    between atoms: C_11  and  OXT_13
REMARK    7  A    between atoms: C_23  and  O_25
REMARK                            x       y       z     vdW  Elec       q    Type
REMARK                         _______ _______ _______ _____ _____    ______ ____
ROOT
ATOM      1  C   UNL     1      -2.222  12.657  19.305  0.00  0.00    +0.000 A 
ATOM      2  CA  UNL     1      -2.636  11.710  18.372  0.00  0.00    +0.000 A 
ATOM      3  N   UNL     1      -3.964  11.455  18.663  0.00  0.00    +0.000 N 
ATOM      4  C   UNL     1      -4.373  12.114  19.793  0.00  0.00    +0.000 A 
ATOM      5  C   UNL     1      -5.583  12.016  20.497  0.00  0.00    +0.000 A 
ATOM      6  C   UNL     1      -5.745  12.817  21.629  0.00  0.00    +0.000 A 
ATOM      7 CL   UNL     1      -7.192  12.683  22.554  0.00  0.00    +0.000 Cl
ATOM      8  C   UNL     1      -4.762  13.713  22.026  0.00  0.00    +0.000 A 
ATOM      9  C   UNL     1      -3.569  13.780  21.309  0.00  0.00    +0.000 A 
ATOM     10 CL   UNL     1      -2.350  14.889  21.767  0.00  0.00    +0.000 Cl
ATOM     11  C   UNL     1      -3.327  12.952  20.185  0.00  0.00    +0.000 A 
ATOM     12  H   UNL     1      -4.522  10.786  18.144  0.00  0.00    +0.000 HD
ENDROOT
BRANCH   1  14
ATOM     13  C   UNL     1       0.093  12.585  20.289  0.00  0.00    +0.000 C 
ATOM     14  C   UNL     1      -0.884  13.108  19.520  0.00  0.00    +0.000 C 
BRANCH  13  19
ATOM     15  C   UNL     1       0.753   9.153  21.726  0.00  0.00    +0.000 A 
ATOM     16  C   UNL     1      -0.050   9.203  22.867  0.00  0.00    +0.000 A 
ATOM     17  C   UNL     1      -0.838  10.322  23.139  0.00  0.00    +0.000 A 
ATOM     18  C   UNL     1      -0.840  11.404  22.261  0.00  0.00    +0.000 A 
ATOM     19  C   UNL     1      -0.050  11.371  21.106  0.00  0.00    +0.000 A 
ATOM     20  C   UNL     1       0.713  10.224  20.827  0.00  0.00    +0.000 A 
BRANCH  15  21
ATOM     21  N   UNL     1       1.412   7.967  21.390  0.00  0.00    +0.000 N 
ATOM     22  H   UNL     1       2.348   8.096  21.021  0.00  0.00    +0.000 HD
ATOM     23  H   UNL     1       0.864   7.298  20.862  0.00  0.00    +0.000 HD
ENDBRANCH  15  21
ENDBRANCH  13  19
BRANCH  13  24
ATOM     24  C   UNL     1       1.376  13.367  20.283  0.00  0.00    +0.000 C 
ATOM     25  O   UNL     1       1.767  14.011  19.321  0.00  0.00    +0.000 OA
BRANCH  24  26
ATOM     26  O   UNL     1       2.060  13.345  21.445  0.00  0.00    +0.000 OA
ATOM     27  H   UNL     1       2.546  12.522  21.641  0.00  0.00    +0.000 HD
ENDBRANCH  24  26
ENDBRANCH  13  24
ENDBRANCH   1  14
BRANCH   2  28
ATOM     28  C   UNL     1      -2.040  10.976  17.275  0.00  0.00    +0.000 C 
ATOM     29  O   UNL     1      -1.345   9.982  17.430  0.00  0.00    +0.000 OA
BRANCH  28  30
ATOM     30  OXT UNL     1      -2.280  11.489  16.050  0.00  0.00    +0.000 OA
ATOM     31  HXT UNL     1      -2.526  12.427  16.062  0.00  0.00    +0.000 HD
ENDBRANCH  28  30
ENDBRANCH   2  28
TORSDOF 7
ENDMDL
MODEL 9
REMARK VINA RESULT:      -6.5      6.971      9.595
REMARK  Name = 
REMARK  7 active torsions:
REMARK  status: ('A' for Active; 'I' for Inactive)
REMARK    1  A    between atoms: N_1  and  C_2
REMARK    2  A    between atoms: C_6  and  C_7
REMARK    3  A    between atoms: C_7  and  C_23
REMARK    4  A    between atoms: C_8  and  C_9
REMARK    5  A    between atoms: CA_10  and  C_11
REMARK    6  A    between atoms: C_11  and  OXT_13
REMARK    7  A    between atoms: C_23  and  O_25
REMARK                            x       y       z     vdW  Elec       q    Type
REMARK                         _______ _______ _______ _____ _____    ______ ____
ROOT
ATOM      1  C   UNL     1      -0.539  10.454  19.760  0.00  0.00    +0.000 A 
ATOM      2  CA  UNL     1      -0.947  10.888  18.501  0.00  0.00    +0.000 A 
ATOM      3  N   UNL     1      -0.223  10.133  17.595  0.00  0.00    +0.000 N 
ATOM      4  C   UNL     1       0.691   9.327  18.219  0.00  0.00    +0.000 A 
ATOM      5  C   UNL     1       1.700   8.524  17.666  0.00  0.00    +0.000 A 
ATOM      6  C   UNL     1       2.500   7.786  18.541  0.00  0.00    +0.000 A 
ATOM      7 CL   UNL     1       3.787   6.834  17.906  0.00  0.00    +0.000 Cl
ATOM      8  C   UNL     1       2.281   7.809  19.912  0.00  0.00    +0.000 A 
ATOM      9  C   UNL     1       1.274   8.624  20.429  0.00  0.00    +0.000 A 
ATOM     10 CL   UNL     1       0.974   8.656  22.113  0.00  0.00    +0.000 Cl
ATOM     11  C   UNL     1       0.469   9.435  19.594  0.00  0.00    +0.000 A 
ATOM     12  H   UNL     1      -0.311  10.248  16.590  0.00  0.00    +0.000 HD
ENDROOT
BRANCH   1  14
ATOM     13  C   UNL     1      -0.641  12.301  21.467  0.00  0.00    +0.000 C 
ATOM     14  C   UNL     1      -0.874  11.053  21.013  0.00  0.00    +0.000 C 
BRANCH  13  19
ATOM     15  C   UNL     1       2.031  14.104  19.494  0.00  0.00    +0.000 A 
ATOM     16  C   UNL     1       1.278  15.146  18.950  0.00  0.00    +0.000 A 
ATOM     17  C   UNL     1      -0.075  15.290  19.264  0.00  0.00    +0.000 A 
ATOM     18  C   UNL     1      -0.688  14.395  20.138  0.00  0.00    +0.000 A 
ATOM     19  C   UNL     1       0.051  13.349  20.703  0.00  0.00    +0.000 A 
ATOM     20  C   UNL     1       1.420  13.235  20.406  0.00  0.00    +0.000 A 
BRANCH  15  21
ATOM     21  N   UNL     1       3.414  14.067  19.295  0.00  0.00    +0.000 N 
ATOM     22  H   UNL     1       3.771  13.168  18.988  0.00  0.00    +0.000 HD
ATOM     23  H   UNL     1       3.972  14.488  20.029  0.00  0.00    +0.000 HD
ENDBRANCH  15  21
ENDBRANCH  13  19
BRANCH  13  24
ATOM     24  C   UNL     1      -1.124  12.555  22.867  0.00  0.00    +0.000 C 
ATOM     25  O   UNL     1      -0.734  13.487  23.553  0.00  0.00    +0.000 OA
BRANCH  24  26
ATOM     26  O   UNL     1      -2.061  11.692  23.310  0.00  0.00    +0.000 OA
ATOM     27  H   UNL     1      -2.251  11.720  24.266  0.00  0.00    +0.000 HD
ENDBRANCH  24  26
ENDBRANCH  13  24
ENDBRANCH   1  14
BRANCH   2  28
ATOM     28  C   UNL     1      -1.860  11.877  17.968  0.00  0.00    +0.000 C 
ATOM     29  O   UNL     1      -3.048  11.921  18.256  0.00  0.00    +0.000 OA
BRANCH  28  30
ATOM     30  OXT UNL     1      -1.310  12.745  17.093  0.00  0.00    +0.000 OA
ATOM     31  HXT UNL     1      -0.344  12.798  17.152  0.00  0.00    +0.000 HD
ENDBRANCH  28  30
ENDBRANCH   2  28
TORSDOF 7
ENDMDL
