MODEL 1
REMARK VINA RESULT:      -8.7      0.000      0.000
REMARK  Name = 
REMARK  2 active torsions:
REMARK  status: ('A' for Active; 'I' for Inactive)
REMARK    1  A    between atoms: C_1  and  C_2
REMARK    2  A    between atoms: C_3  and  C_4
REMARK                            x       y       z     vdW  Elec       q    Type
REMARK                         _______ _______ _______ _____ _____    ______ ____
ROOT
ATOM      1  C   UNL     1       0.593   8.424  21.161  0.00  0.00    +0.000 C 
ATOM      2  C   UNL     1       1.193   8.783  19.864  0.00  0.00    +0.000 A 
ATOM      3  C   UNL     1       1.237   9.971  19.172  0.00  0.00    +0.000 A 
ATOM      4  C   UNL     1       1.908   9.599  17.954  0.00  0.00    +0.000 A 
ATOM      5  N   UNL     1       2.259   8.326  17.887  0.00  0.00    +0.000 NA
ATOM      6  N   UNL     1       1.853   7.838  19.077  0.00  0.00    +0.000 N 
ATOM      7  C   UNL     1       2.090   6.471  19.355  0.00  0.00    +0.000 A 
ATOM      8  N   UNL     1       1.994   5.996  20.547  0.00  0.00    +0.000 NA
ATOM      9  N   UNL     1       2.179   4.653  20.570  0.00  0.00    +0.000 N 
ATOM     10  C   UNL     1       2.340   3.894  21.698  0.00  0.00    +0.000 A 
ATOM     11  C   UNL     1       2.315   2.568  21.323  0.00  0.00    +0.000 A 
ATOM     12  C   UNL     1       2.168   2.526  19.915  0.00  0.00    +0.000 A 
ATOM     13  C   UNL     1       2.190   3.829  19.478  0.00  0.00    +0.000 A 
ATOM     14  C   UNL     1       2.176   4.418  18.179  0.00  0.00    +0.000 A 
ATOM     15  O   UNL     1       1.903   3.824  17.138  0.00  0.00    +0.000 OA
ATOM     16  N   UNL     1       2.429   5.758  18.218  0.00  0.00    +0.000 N 
ATOM     17  H   UNL     1       3.383   5.951  17.914  0.00  0.00    +0.000 HD
ENDROOT
BRANCH   3  18
ATOM     18  C   UNL     1       0.878  11.370  19.358  0.00  0.00    +0.000 C 
ATOM     19  O   UNL     1      -0.239  11.481  19.899  0.00  0.00    +0.000 OA
ATOM     20  N   UNL     1       1.577  12.594  19.120  0.00  0.00    +0.000 N 
ATOM     21  C   UNL     1       0.844  13.615  19.858  0.00  0.00    +0.000 C 
ATOM     22  C   UNL     1       1.364  14.997  20.021  0.00  0.00    +0.000 C 
ATOM     23  N   UNL     1       2.119  15.423  18.893  0.00  0.00    +0.000 N 
ATOM     24  C   UNL     1       2.291  16.739  18.590  0.00  0.00    +0.000 A 
ATOM     25  C   UNL     1       3.276  16.800  17.642  0.00  0.00    +0.000 A 
ATOM     26  C   UNL     1       3.645  15.445  17.342  0.00  0.00    +0.000 A 
ATOM     27  C   UNL     1       2.854  14.580  18.104  0.00  0.00    +0.000 A 
ATOM     28  C   UNL     1       2.729  13.038  18.241  0.00  0.00    +0.000 C 
ENDBRANCH   3  18
TORSDOF 1
ENDMDL
MODEL 2
REMARK VINA RESULT:      -8.6      3.887      5.134
REMARK  Name = 
REMARK  2 active torsions:
REMARK  status: ('A' for Active; 'I' for Inactive)
REMARK    1  A    between atoms: C_1  and  C_2
REMARK    2  A    between atoms: C_3  and  C_4
REMARK                            x       y       z     vdW  Elec       q    Type
REMARK                         _______ _______ _______ _____ _____    ______ ____
ROOT
ATOM      1  C   UNL     1       2.371   8.984  17.590  0.00  0.00    +0.000 C 
ATOM      2  C   UNL     1       2.077   8.298  18.859  0.00  0.00    +0.000 A 
ATOM      3  C   UNL     1       1.195   8.586  19.876  0.00  0.00    +0.000 A 
ATOM      4  C   UNL     1       1.477   7.553  20.838  0.00  0.00    +0.000 A 
ATOM      5  N   UNL     1       2.419   6.702  20.470  0.00  0.00    +0.000 NA
ATOM      6  N   UNL     1       2.758   7.139  19.239  0.00  0.00    +0.000 N 
ATOM      7  C   UNL     1       3.755   6.431  18.528  0.00  0.00    +0.000 A 
ATOM      8  N   UNL     1       3.937   6.601  17.266  0.00  0.00    +0.000 NA
ATOM      9  N   UNL     1       4.996   5.888  16.809  0.00  0.00    +0.000 N 
ATOM     10  C   UNL     1       5.316   5.700  15.492  0.00  0.00    +0.000 A 
ATOM     11  C   UNL     1       6.548   5.084  15.439  0.00  0.00    +0.000 A 
ATOM     12  C   UNL     1       6.970   4.861  16.772  0.00  0.00    +0.000 A 
ATOM     13  C   UNL     1       5.943   5.278  17.585  0.00  0.00    +0.000 A 
ATOM     14  C   UNL     1       5.739   5.225  18.996  0.00  0.00    +0.000 A 
ATOM     15  O   UNL     1       6.609   4.971  19.826  0.00  0.00    +0.000 OA
ATOM     16  N   UNL     1       4.464   5.567  19.345  0.00  0.00    +0.000 N 
ATOM     17  H   UNL     1       3.925   4.737  19.587  0.00  0.00    +0.000 HD
ENDROOT
BRANCH   3  18
ATOM     18  C   UNL     1       0.123   9.525  20.171  0.00  0.00    +0.000 C 
ATOM     19  O   UNL     1       0.160   9.894  21.361  0.00  0.00    +0.000 OA
ATOM     20  N   UNL     1      -0.879  10.144  19.360  0.00  0.00    +0.000 N 
ATOM     21  C   UNL     1      -1.393  11.255  20.151  0.00  0.00    +0.000 C 
ATOM     22  C   UNL     1      -2.320  12.267  19.581  0.00  0.00    +0.000 C 
ATOM     23  N   UNL     1      -3.185  11.709  18.599  0.00  0.00    +0.000 N 
ATOM     24  C   UNL     1      -4.386  12.271  18.285  0.00  0.00    +0.000 A 
ATOM     25  C   UNL     1      -4.816  11.666  17.136  0.00  0.00    +0.000 A 
ATOM     26  C   UNL     1      -3.842  10.662  16.808  0.00  0.00    +0.000 A 
ATOM     27  C   UNL     1      -2.842  10.664  17.785  0.00  0.00    +0.000 A 
ATOM     28  C   UNL     1      -1.549   9.841  18.035  0.00  0.00    +0.000 C 
ENDBRANCH   3  18
TORSDOF 1
ENDMDL
MODEL 3
REMARK VINA RESULT:      -8.3      1.961      2.968
REMARK  Name = 
REMARK  2 active torsions:
REMARK  status: ('A' for Active; 'I' for Inactive)
REMARK    1  A    between atoms: C_1  and  C_2
REMARK    2  A    between atoms: C_3  and  C_4
REMARK                            x       y       z     vdW  Elec       q    Type
REMARK                         _______ _______ _______ _____ _____    ______ ____
ROOT
ATOM      1  C   UNL     1       0.854   8.509  21.157  0.00  0.00    +0.000 C 
ATOM      2  C   UNL     1       1.395   8.791  19.816  0.00  0.00    +0.000 A 
ATOM      3  C   UNL     1       1.493   9.957  19.093  0.00  0.00    +0.000 A 
ATOM      4  C   UNL     1       2.049   9.507  17.844  0.00  0.00    +0.000 A 
ATOM      5  N   UNL     1       2.287   8.208  17.786  0.00  0.00    +0.000 NA
ATOM      6  N   UNL     1       1.921   7.778  19.011  0.00  0.00    +0.000 N 
ATOM      7  C   UNL     1       2.062   6.402  19.308  0.00  0.00    +0.000 A 
ATOM      8  N   UNL     1       2.006   5.960  20.515  0.00  0.00    +0.000 NA
ATOM      9  N   UNL     1       2.080   4.606  20.559  0.00  0.00    +0.000 N 
ATOM     10  C   UNL     1       2.251   3.858  21.692  0.00  0.00    +0.000 A 
ATOM     11  C   UNL     1       2.091   2.532  21.352  0.00  0.00    +0.000 A 
ATOM     12  C   UNL     1       1.850   2.476  19.959  0.00  0.00    +0.000 A 
ATOM     13  C   UNL     1       1.951   3.764  19.489  0.00  0.00    +0.000 A 
ATOM     14  C   UNL     1       1.900   4.326  18.180  0.00  0.00    +0.000 A 
ATOM     15  O   UNL     1       1.511   3.738  17.173  0.00  0.00    +0.000 OA
ATOM     16  N   UNL     1       2.265   5.641  18.169  0.00  0.00    +0.000 N 
ATOM     17  H   UNL     1       3.210   5.747  17.800  0.00  0.00    +0.000 HD
ENDROOT
BRANCH   3  18
ATOM     18  C   UNL     1       1.263  11.385  19.267  0.00  0.00    +0.000 C 
ATOM     19  O   UNL     1       1.893  12.050  18.422  0.00  0.00    +0.000 OA
ATOM     20  N   UNL     1       0.417  12.134  20.143  0.00  0.00    +0.000 N 
ATOM     21  C   UNL     1       0.352  13.475  19.575  0.00  0.00    +0.000 C 
ATOM     22  C   UNL     1      -0.586  14.506  20.089  0.00  0.00    +0.000 C 
ATOM     23  N   UNL     1      -0.806  14.379  21.489  0.00  0.00    +0.000 N 
ATOM     24  C   UNL     1      -1.217  15.426  22.257  0.00  0.00    +0.000 A 
ATOM     25  C   UNL     1      -1.599  14.904  23.463  0.00  0.00    +0.000 A 
ATOM     26  C   UNL     1      -1.337  13.494  23.405  0.00  0.00    +0.000 A 
ATOM     27  C   UNL     1      -0.775  13.187  22.161  0.00  0.00    +0.000 A 
ATOM     28  C   UNL     1      -0.255  11.893  21.480  0.00  0.00    +0.000 C 
ENDBRANCH   3  18
TORSDOF 1
ENDMDL
MODEL 4
REMARK VINA RESULT:      -8.3      2.611      8.684
REMARK  Name = 
REMARK  2 active torsions:
REMARK  status: ('A' for Active; 'I' for Inactive)
REMARK    1  A    between atoms: C_1  and  C_2
REMARK    2  A    between atoms: C_3  and  C_4
REMARK                            x       y       z     vdW  Elec       q    Type
REMARK                         _______ _______ _______ _____ _____    ______ ____
ROOT
ATOM      1  C   UNL     1       1.829   9.312  17.857  0.00  0.00    +0.000 C 
ATOM      2  C   UNL     1       1.660   8.764  19.214  0.00  0.00    +0.000 A 
ATOM      3  C   UNL     1       1.929   7.523  19.743  0.00  0.00    +0.000 A 
ATOM      4  C   UNL     1       1.458   7.650  21.097  0.00  0.00    +0.000 A 
ATOM      5  N   UNL     1       0.959   8.837  21.396  0.00  0.00    +0.000 NA
ATOM      6  N   UNL     1       1.120   9.530  20.249  0.00  0.00    +0.000 N 
ATOM      7  C   UNL     1       0.696  10.879  20.218  0.00  0.00    +0.000 A 
ATOM      8  N   UNL     1       1.059  11.682  19.280  0.00  0.00    +0.000 NA
ATOM      9  N   UNL     1       0.470  12.897  19.402  0.00  0.00    +0.000 N 
ATOM     10  C   UNL     1       0.806  14.016  18.688  0.00  0.00    +0.000 A 
ATOM     11  C   UNL     1      -0.132  14.988  18.960  0.00  0.00    +0.000 A 
ATOM     12  C   UNL     1      -1.045  14.449  19.897  0.00  0.00    +0.000 A 
ATOM     13  C   UNL     1      -0.584  13.196  20.221  0.00  0.00    +0.000 A 
ATOM     14  C   UNL     1      -1.016  12.215  21.162  0.00  0.00    +0.000 A 
ATOM     15  O   UNL     1      -2.096  12.229  21.750  0.00  0.00    +0.000 OA
ATOM     16  N   UNL     1      -0.119  11.195  21.292  0.00  0.00    +0.000 N 
ATOM     17  H   UNL     1       0.408  11.290  22.159  0.00  0.00    +0.000 HD
ENDROOT
BRANCH   3  18
ATOM     18  C   UNL     1       2.558   6.270  19.348  0.00  0.00    +0.000 C 
ATOM     19  O   UNL     1       2.266   5.351  20.138  0.00  0.00    +0.000 OA
ATOM     20  N   UNL     1       3.351   5.892  18.221  0.00  0.00    +0.000 N 
ATOM     21  C   UNL     1       3.349   4.435  18.209  0.00  0.00    +0.000 C 
ATOM     22  C   UNL     1       3.907   3.654  17.075  0.00  0.00    +0.000 C 
ATOM     23  N   UNL     1       5.013   4.309  16.465  0.00  0.00    +0.000 N 
ATOM     24  C   UNL     1       5.959   3.632  15.757  0.00  0.00    +0.000 A 
ATOM     25  C   UNL     1       6.695   4.568  15.086  0.00  0.00    +0.000 A 
ATOM     26  C   UNL     1       6.185   5.853  15.475  0.00  0.00    +0.000 A 
ATOM     27  C   UNL     1       5.153   5.669  16.401  0.00  0.00    +0.000 A 
ATOM     28  C   UNL     1       4.221   6.612  17.210  0.00  0.00    +0.000 C 
ENDBRANCH   3  18
TORSDOF 1
ENDMDL
MODEL 5
REMARK VINA RESULT:      -8.2      2.542      8.788
REMARK  Name = 
REMARK  2 active torsions:
REMARK  status: ('A' for Active; 'I' for Inactive)
REMARK    1  A    between atoms: C_1  and  C_2
REMARK    2  A    between atoms: C_3  and  C_4
REMARK                            x       y       z     vdW  Elec       q    Type
REMARK                         _______ _______ _______ _____ _____    ______ ____
ROOT
ATOM      1  C   UNL     1       1.013  10.020  18.375  0.00  0.00    +0.000 C 
ATOM      2  C   UNL     1       1.105   9.630  19.793  0.00  0.00    +0.000 A 
ATOM      3  C   UNL     1       1.442   8.441  20.397  0.00  0.00    +0.000 A 
ATOM      4  C   UNL     1       1.255   8.735  21.794  0.00  0.00    +0.000 A 
ATOM      5  N   UNL     1       0.856   9.970  22.047  0.00  0.00    +0.000 NA
ATOM      6  N   UNL     1       0.803  10.528  20.819  0.00  0.00    +0.000 N 
ATOM      7  C   UNL     1       0.416  11.885  20.717  0.00  0.00    +0.000 A 
ATOM      8  N   UNL     1       0.606  12.564  19.640  0.00  0.00    +0.000 NA
ATOM      9  N   UNL     1       0.084  13.812  19.735  0.00  0.00    +0.000 N 
ATOM     10  C   UNL     1       0.299  14.830  18.845  0.00  0.00    +0.000 A 
ATOM     11  C   UNL     1      -0.540  15.870  19.182  0.00  0.00    +0.000 A 
ATOM     12  C   UNL     1      -1.261  15.479  20.335  0.00  0.00    +0.000 A 
ATOM     13  C   UNL     1      -0.777  14.247  20.704  0.00  0.00    +0.000 A 
ATOM     14  C   UNL     1      -1.037  13.395  21.818  0.00  0.00    +0.000 A 
ATOM     15  O   UNL     1      -1.977  13.523  22.601  0.00  0.00    +0.000 OA
ATOM     16  N   UNL     1      -0.159  12.353  21.886  0.00  0.00    +0.000 N 
ATOM     17  H   UNL     1       0.533  12.515  22.616  0.00  0.00    +0.000 HD
ENDROOT
BRANCH   3  18
ATOM     18  C   UNL     1       1.947   7.124  20.034  0.00  0.00    +0.000 C 
ATOM     19  O   UNL     1       1.625   6.269  20.881  0.00  0.00    +0.000 OA
ATOM     20  N   UNL     1       2.646   6.633  18.888  0.00  0.00    +0.000 N 
ATOM     21  C   UNL     1       2.526   5.181  18.948  0.00  0.00    +0.000 C 
ATOM     22  C   UNL     1       2.959   4.307  17.827  0.00  0.00    +0.000 C 
ATOM     23  N   UNL     1       4.079   4.842  17.132  0.00  0.00    +0.000 N 
ATOM     24  C   UNL     1       4.929   4.057  16.412  0.00  0.00    +0.000 A 
ATOM     25  C   UNL     1       5.701   4.899  15.660  0.00  0.00    +0.000 A 
ATOM     26  C   UNL     1       5.316   6.238  16.011  0.00  0.00    +0.000 A 
ATOM     27  C   UNL     1       4.324   6.181  16.995  0.00  0.00    +0.000 A 
ATOM     28  C   UNL     1       3.515   7.233  17.801  0.00  0.00    +0.000 C 
ENDBRANCH   3  18
TORSDOF 1
ENDMDL
MODEL 6
REMARK VINA RESULT:      -8.2      3.147      9.214
REMARK  Name = 
REMARK  2 active torsions:
REMARK  status: ('A' for Active; 'I' for Inactive)
REMARK    1  A    between atoms: C_1  and  C_2
REMARK    2  A    between atoms: C_3  and  C_4
REMARK                            x       y       z     vdW  Elec       q    Type
REMARK                         _______ _______ _______ _____ _____    ______ ____
ROOT
ATOM      1  C   UNL     1       1.120  11.503  19.661  0.00  0.00    +0.000 C 
ATOM      2  C   UNL     1       0.776  10.300  20.438  0.00  0.00    +0.000 A 
ATOM      3  C   UNL     1       1.047   8.967  20.234  0.00  0.00    +0.000 A 
ATOM      4  C   UNL     1       0.357   8.335  21.327  0.00  0.00    +0.000 A 
ATOM      5  N   UNL     1      -0.270   9.170  22.137  0.00  0.00    +0.000 NA
ATOM      6  N   UNL     1       0.022  10.377  21.611  0.00  0.00    +0.000 N 
ATOM      7  C   UNL     1      -0.490  11.529  22.254  0.00  0.00    +0.000 A 
ATOM      8  N   UNL     1      -0.040  12.706  21.994  0.00  0.00    +0.000 NA
ATOM      9  N   UNL     1      -0.729  13.666  22.659  0.00  0.00    +0.000 N 
ATOM     10  C   UNL     1      -0.366  14.983  22.751  0.00  0.00    +0.000 A 
ATOM     11  C   UNL     1      -1.404  15.668  23.345  0.00  0.00    +0.000 A 
ATOM     12  C   UNL     1      -2.414  14.726  23.654  0.00  0.00    +0.000 A 
ATOM     13  C   UNL     1      -1.920  13.491  23.309  0.00  0.00    +0.000 A 
ATOM     14  C   UNL     1      -2.424  12.166  23.462  0.00  0.00    +0.000 A 
ATOM     15  O   UNL     1      -3.583  11.881  23.761  0.00  0.00    +0.000 OA
ATOM     16  N   UNL     1      -1.488  11.219  23.162  0.00  0.00    +0.000 N 
ATOM     17  H   UNL     1      -1.115  10.802  24.015  0.00  0.00    +0.000 HD
ENDROOT
BRANCH   3  18
ATOM     18  C   UNL     1       1.822   8.125  19.332  0.00  0.00    +0.000 C 
ATOM     19  O   UNL     1       2.115   8.735  18.286  0.00  0.00    +0.000 OA
ATOM     20  N   UNL     1       2.358   6.806  19.453  0.00  0.00    +0.000 N 
ATOM     21  C   UNL     1       3.341   6.681  18.385  0.00  0.00    +0.000 C 
ATOM     22  C   UNL     1       4.260   5.518  18.289  0.00  0.00    +0.000 C 
ATOM     23  N   UNL     1       3.660   4.320  18.765  0.00  0.00    +0.000 N 
ATOM     24  C   UNL     1       4.082   3.088  18.368  0.00  0.00    +0.000 A 
ATOM     25  C   UNL     1       3.502   2.180  19.211  0.00  0.00    +0.000 A 
ATOM     26  C   UNL     1       2.654   2.925  20.099  0.00  0.00    +0.000 A 
ATOM     27  C   UNL     1       2.721   4.280  19.761  0.00  0.00    +0.000 A 
ATOM     28  C   UNL     1       2.056   5.579  20.291  0.00  0.00    +0.000 C 
ENDBRANCH   3  18
TORSDOF 1
ENDMDL
MODEL 7
REMARK VINA RESULT:      -8.1      2.933      9.006
REMARK  Name = 
REMARK  2 active torsions:
REMARK  status: ('A' for Active; 'I' for Inactive)
REMARK    1  A    between atoms: C_1  and  C_2
REMARK    2  A    between atoms: C_3  and  C_4
REMARK                            x       y       z     vdW  Elec       q    Type
REMARK                         _______ _______ _______ _____ _____    ______ ____
ROOT
ATOM      1  C   UNL     1       0.570   9.171  21.681  0.00  0.00    +0.000 C 
ATOM      2  C   UNL     1       0.664   9.634  20.286  0.00  0.00    +0.000 A 
ATOM      3  C   UNL     1       1.328   9.126  19.193  0.00  0.00    +0.000 A 
ATOM      4  C   UNL     1       1.054  10.107  18.176  0.00  0.00    +0.000 A 
ATOM      5  N   UNL     1       0.295  11.113  18.573  0.00  0.00    +0.000 NA
ATOM      6  N   UNL     1       0.025  10.800  19.857  0.00  0.00    +0.000 N 
ATOM      7  C   UNL     1      -0.798  11.677  20.602  0.00  0.00    +0.000 A 
ATOM      8  N   UNL     1      -1.327  11.324  21.721  0.00  0.00    +0.000 NA
ATOM      9  N   UNL     1      -2.004  12.345  22.301  0.00  0.00    +0.000 N 
ATOM     10  C   UNL     1      -2.837  12.230  23.382  0.00  0.00    +0.000 A 
ATOM     11  C   UNL     1      -3.185  13.502  23.784  0.00  0.00    +0.000 A 
ATOM     12  C   UNL     1      -2.569  14.414  22.894  0.00  0.00    +0.000 A 
ATOM     13  C   UNL     1      -1.934  13.661  21.936  0.00  0.00    +0.000 A 
ATOM     14  C   UNL     1      -1.229  14.001  20.743  0.00  0.00    +0.000 A 
ATOM     15  O   UNL     1      -0.848  15.131  20.447  0.00  0.00    +0.000 OA
ATOM     16  N   UNL     1      -0.948  12.905  19.980  0.00  0.00    +0.000 N 
ATOM     17  H   UNL     1      -1.577  12.855  19.180  0.00  0.00    +0.000 HD
ENDROOT
BRANCH   3  18
ATOM     18  C   UNL     1       2.100   7.948  18.821  0.00  0.00    +0.000 C 
ATOM     19  O   UNL     1       2.640   8.095  17.708  0.00  0.00    +0.000 OA
ATOM     20  N   UNL     1       2.409   6.732  19.507  0.00  0.00    +0.000 N 
ATOM     21  C   UNL     1       3.518   6.138  18.771  0.00  0.00    +0.000 C 
ATOM     22  C   UNL     1       4.258   4.954  19.279  0.00  0.00    +0.000 C 
ATOM     23  N   UNL     1       3.420   4.075  20.019  0.00  0.00    +0.000 N 
ATOM     24  C   UNL     1       3.713   2.754  20.177  0.00  0.00    +0.000 A 
ATOM     25  C   UNL     1       2.880   2.279  21.153  0.00  0.00    +0.000 A 
ATOM     26  C   UNL     1       2.024   3.368  21.532  0.00  0.00    +0.000 A 
ATOM     27  C   UNL     1       2.343   4.487  20.756  0.00  0.00    +0.000 A 
ATOM     28  C   UNL     1       1.803   5.939  20.647  0.00  0.00    +0.000 C 
ENDBRANCH   3  18
TORSDOF 1
ENDMDL
MODEL 8
REMARK VINA RESULT:      -8.1      2.928      8.524
REMARK  Name = 
REMARK  2 active torsions:
REMARK  status: ('A' for Active; 'I' for Inactive)
REMARK    1  A    between atoms: C_1  and  C_2
REMARK    2  A    between atoms: C_3  and  C_4
REMARK                            x       y       z     vdW  Elec       q    Type
REMARK                         _______ _______ _______ _____ _____    ______ ____
ROOT
ATOM      1  C   UNL     1       1.289   8.500  21.721  0.00  0.00    +0.000 C 
ATOM      2  C   UNL     1       1.452   8.805  20.289  0.00  0.00    +0.000 A 
ATOM      3  C   UNL     1       1.987   8.077  19.251  0.00  0.00    +0.000 A 
ATOM      4  C   UNL     1       1.898   8.994  18.146  0.00  0.00    +0.000 A 
ATOM      5  N   UNL     1       1.359  10.163  18.445  0.00  0.00    +0.000 NA
ATOM      6  N   UNL     1       1.051  10.029  19.751  0.00  0.00    +0.000 N 
ATOM      7  C   UNL     1       0.428  11.117  20.407  0.00  0.00    +0.000 A 
ATOM      8  N   UNL     1      -0.145  10.980  21.551  0.00  0.00    +0.000 NA
ATOM      9  N   UNL     1      -0.599  12.164  22.031  0.00  0.00    +0.000 N 
ATOM     10  C   UNL     1      -1.423  12.317  23.114  0.00  0.00    +0.000 A 
ATOM     11  C   UNL     1      -1.508  13.663  23.394  0.00  0.00    +0.000 A 
ATOM     12  C   UNL     1      -0.736  14.349  22.426  0.00  0.00    +0.000 A 
ATOM     13  C   UNL     1      -0.276  13.400  21.545  0.00  0.00    +0.000 A 
ATOM     14  C   UNL     1       0.466  13.483  20.329  0.00  0.00    +0.000 A 
ATOM     15  O   UNL     1       1.058  14.484  19.930  0.00  0.00    +0.000 OA
ATOM     16  N   UNL     1       0.514  12.287  19.673  0.00  0.00    +0.000 N 
ATOM     17  H   UNL     1      -0.123  12.290  18.878  0.00  0.00    +0.000 HD
ENDROOT
BRANCH   3  18
ATOM     18  C   UNL     1       2.507   6.740  18.995  0.00  0.00    +0.000 C 
ATOM     19  O   UNL     1       2.078   5.922  19.831  0.00  0.00    +0.000 OA
ATOM     20  N   UNL     1       3.320   6.197  17.953  0.00  0.00    +0.000 N 
ATOM     21  C   UNL     1       3.170   4.750  18.051  0.00  0.00    +0.000 C 
ATOM     22  C   UNL     1       3.710   3.829  17.018  0.00  0.00    +0.000 C 
ATOM     23  N   UNL     1       4.909   4.322  16.434  0.00  0.00    +0.000 N 
ATOM     24  C   UNL     1       5.820   3.500  15.842  0.00  0.00    +0.000 A 
ATOM     25  C   UNL     1       6.685   4.303  15.150  0.00  0.00    +0.000 A 
ATOM     26  C   UNL     1       6.287   5.658  15.408  0.00  0.00    +0.000 A 
ATOM     27  C   UNL     1       5.191   5.652  16.276  0.00  0.00    +0.000 A 
ATOM     28  C   UNL     1       4.315   6.744  16.949  0.00  0.00    +0.000 C 
ENDBRANCH   3  18
TORSDOF 1
ENDMDL
MODEL 9
REMARK VINA RESULT:      -8.0      3.110      8.996
REMARK  Name = 
REMARK  2 active torsions:
REMARK  status: ('A' for Active; 'I' for Inactive)
REMARK    1  A    between atoms: C_1  and  C_2
REMARK    2  A    between atoms: C_3  and  C_4
REMARK                            x       y       z     vdW  Elec       q    Type
REMARK                         _______ _______ _______ _____ _____    ______ ____
ROOT
ATOM      1  C   UNL     1      -0.304   9.078  21.522  0.00  0.00    +0.000 C 
ATOM      2  C   UNL     1       0.386   9.942  20.549  0.00  0.00    +0.000 A 
ATOM      3  C   UNL     1       1.255   9.655  19.521  0.00  0.00    +0.000 A 
ATOM      4  C   UNL     1       1.600  10.962  19.028  0.00  0.00    +0.000 A 
ATOM      5  N   UNL     1       1.010  11.962  19.661  0.00  0.00    +0.000 NA
ATOM      6  N   UNL     1       0.236  11.330  20.567  0.00  0.00    +0.000 N 
ATOM      7  C   UNL     1      -0.566  12.117  21.427  0.00  0.00    +0.000 A 
ATOM      8  N   UNL     1      -1.526  11.606  22.115  0.00  0.00    +0.000 NA
ATOM      9  N   UNL     1      -2.104  12.522  22.931  0.00  0.00    +0.000 N 
ATOM     10  C   UNL     1      -3.268  12.340  23.627  0.00  0.00    +0.000 A 
ATOM     11  C   UNL     1      -3.427  13.416  24.475  0.00  0.00    +0.000 A 
ATOM     12  C   UNL     1      -2.338  14.293  24.257  0.00  0.00    +0.000 A 
ATOM     13  C   UNL     1      -1.600  13.758  23.228  0.00  0.00    +0.000 A 
ATOM     14  C   UNL     1      -0.459  14.221  22.508  0.00  0.00    +0.000 A 
ATOM     15  O   UNL     1       0.258  15.160  22.850  0.00  0.00    +0.000 OA
ATOM     16  N   UNL     1      -0.192  13.450  21.414  0.00  0.00    +0.000 N 
ATOM     17  H   UNL     1      -0.488  13.924  20.562  0.00  0.00    +0.000 HD
ENDROOT
BRANCH   3  18
ATOM     18  C   UNL     1       1.808   8.495  18.836  0.00  0.00    +0.000 C 
ATOM     19  O   UNL     1       1.993   8.730  17.627  0.00  0.00    +0.000 OA
ATOM     20  N   UNL     1       2.238   7.210  19.292  0.00  0.00    +0.000 N 
ATOM     21  C   UNL     1       3.035   6.654  18.206  0.00  0.00    +0.000 C 
ATOM     22  C   UNL     1       3.824   5.405  18.364  0.00  0.00    +0.000 C 
ATOM     23  N   UNL     1       3.199   4.486  19.252  0.00  0.00    +0.000 N 
ATOM     24  C   UNL     1       3.448   3.147  19.205  0.00  0.00    +0.000 A 
ATOM     25  C   UNL     1       2.923   2.608  20.348  0.00  0.00    +0.000 A 
ATOM     26  C   UNL     1       2.288   3.682  21.058  0.00  0.00    +0.000 A 
ATOM     27  C   UNL     1       2.422   4.859  20.315  0.00  0.00    +0.000 A 
ATOM     28  C   UNL     1       1.960   6.331  20.495  0.00  0.00    +0.000 C 
ENDBRANCH   3  18
TORSDOF 1
ENDMDL
