MODEL 1
REMARK VINA RESULT:      -5.2      0.000      0.000
REMARK  Name = 
REMARK  6 active torsions:
REMARK  status: ('A' for Active; 'I' for Inactive)
REMARK    1  A    between atoms: C_1  and  C_2
REMARK    2  A    between atoms: C_4  and  C_5
REMARK    3  A    between atoms: C_5  and  N_6
REMARK    4  A    between atoms: N_6  and  C_7
REMARK    5  A    between atoms: N_6  and  C_8
REMARK    6  A    between atoms: N_6  and  C_9
REMARK                            x       y       z     vdW  Elec       q    Type
REMARK                         _______ _______ _______ _____ _____    ______ ____
ROOT
ATOM      1  C   UNL     1       7.757   6.116  18.749  0.00  0.00    +0.000 C 
ATOM      2  C   UNL     1       7.393   4.752  18.150  0.00  0.00    +0.000 C 
ATOM      3  O   UNL     1       6.305   4.230  18.862  0.00  0.00    +0.000 OA
ATOM      4  C   UNL     1       5.093   4.445  18.174  0.00  0.00    +0.000 C 
ATOM      5  C   UNL     1       5.340   5.070  16.793  0.00  0.00    +0.000 C 
ATOM      6  S   UNL     1       7.042   4.702  16.351  0.00  0.00    +0.000 S 
ATOM      7  O   UNL     1       7.445   6.348  16.034  0.00  0.00    +0.000 OA
ENDROOT
BRANCH   4   8
ATOM      8  C   UNL     1       4.153   5.375  18.998  0.00  0.00    +0.000 C 
BRANCH   8   9
ATOM      9  N   UNL     1       2.811   4.832  19.375  0.00  0.00    +0.000 N 
ATOM     10  C   UNL     1       2.092   5.773  20.261  0.00  0.00    +0.000 C 
ATOM     11  C   UNL     1       1.966   4.509  18.196  0.00  0.00    +0.000 C 
ATOM     12  C   UNL     1       3.042   3.564  20.119  0.00  0.00    +0.000 C 
ENDBRANCH   8   9
ENDBRANCH   4   8
TORSDOF 2
ENDMDL
MODEL 2
REMARK VINA RESULT:      -5.2      0.068      1.218
REMARK  Name = 
REMARK  6 active torsions:
REMARK  status: ('A' for Active; 'I' for Inactive)
REMARK    1  A    between atoms: C_1  and  C_2
REMARK    2  A    between atoms: C_4  and  C_5
REMARK    3  A    between atoms: C_5  and  N_6
REMARK    4  A    between atoms: N_6  and  C_7
REMARK    5  A    between atoms: N_6  and  C_8
REMARK    6  A    between atoms: N_6  and  C_9
REMARK                            x       y       z     vdW  Elec       q    Type
REMARK                         _______ _______ _______ _____ _____    ______ ____
ROOT
ATOM      1  C   UNL     1       7.725   6.060  18.785  0.00  0.00    +0.000 C 
ATOM      2  C   UNL     1       7.357   4.714  18.149  0.00  0.00    +0.000 C 
ATOM      3  O   UNL     1       6.253   4.186  18.832  0.00  0.00    +0.000 OA
ATOM      4  C   UNL     1       5.054   4.429  18.132  0.00  0.00    +0.000 C 
ATOM      5  C   UNL     1       5.327   5.084  16.769  0.00  0.00    +0.000 C 
ATOM      6  S   UNL     1       7.033   4.709  16.344  0.00  0.00    +0.000 S 
ATOM      7  O   UNL     1       7.456   6.358  16.072  0.00  0.00    +0.000 OA
ENDROOT
BRANCH   4   8
ATOM      8  C   UNL     1       4.111   5.349  18.963  0.00  0.00    +0.000 C 
BRANCH   8   9
ATOM      9  N   UNL     1       2.793   4.779  19.382  0.00  0.00    +0.000 N 
ATOM     10  C   UNL     1       1.948   4.483  18.205  0.00  0.00    +0.000 C 
ATOM     11  C   UNL     1       2.931   3.558  20.219  0.00  0.00    +0.000 C 
ATOM     12  C   UNL     1       2.110   5.810  20.208  0.00  0.00    +0.000 C 
ENDBRANCH   8   9
ENDBRANCH   4   8
TORSDOF 2
ENDMDL
MODEL 3
REMARK VINA RESULT:      -5.1      0.649      1.437
REMARK  Name = 
REMARK  6 active torsions:
REMARK  status: ('A' for Active; 'I' for Inactive)
REMARK    1  A    between atoms: C_1  and  C_2
REMARK    2  A    between atoms: C_4  and  C_5
REMARK    3  A    between atoms: C_5  and  N_6
REMARK    4  A    between atoms: N_6  and  C_7
REMARK    5  A    between atoms: N_6  and  C_8
REMARK    6  A    between atoms: N_6  and  C_9
REMARK                            x       y       z     vdW  Elec       q    Type
REMARK                         _______ _______ _______ _____ _____    ______ ____
ROOT
ATOM      1  C   UNL     1       7.396   6.522  17.984  0.00  0.00    +0.000 C 
ATOM      2  C   UNL     1       7.370   5.002  17.778  0.00  0.00    +0.000 C 
ATOM      3  O   UNL     1       6.535   4.436  18.750  0.00  0.00    +0.000 OA
ATOM      4  C   UNL     1       5.255   4.160  18.226  0.00  0.00    +0.000 C 
ATOM      5  C   UNL     1       5.197   4.442  16.718  0.00  0.00    +0.000 C 
ATOM      6  S   UNL     1       6.890   4.399  16.114  0.00  0.00    +0.000 S 
ATOM      7  O   UNL     1       6.794   5.950  15.370  0.00  0.00    +0.000 OA
ENDROOT
BRANCH   4   8
ATOM      8  C   UNL     1       4.172   5.014  18.950  0.00  0.00    +0.000 C 
BRANCH   8   9
ATOM      9  N   UNL     1       2.961   4.298  19.459  0.00  0.00    +0.000 N 
ATOM     10  C   UNL     1       3.266   2.877  19.734  0.00  0.00    +0.000 C 
ATOM     11  C   UNL     1       2.384   4.930  20.674  0.00  0.00    +0.000 C 
ATOM     12  C   UNL     1       1.929   4.362  18.390  0.00  0.00    +0.000 C 
ENDBRANCH   8   9
ENDBRANCH   4   8
TORSDOF 2
ENDMDL
MODEL 4
REMARK VINA RESULT:      -5.0      1.646      2.521
REMARK  Name = 
REMARK  6 active torsions:
REMARK  status: ('A' for Active; 'I' for Inactive)
REMARK    1  A    between atoms: C_1  and  C_2
REMARK    2  A    between atoms: C_4  and  C_5
REMARK    3  A    between atoms: C_5  and  N_6
REMARK    4  A    between atoms: N_6  and  C_7
REMARK    5  A    between atoms: N_6  and  C_8
REMARK    6  A    between atoms: N_6  and  C_9
REMARK                            x       y       z     vdW  Elec       q    Type
REMARK                         _______ _______ _______ _____ _____    ______ ____
ROOT
ATOM      1  C   UNL     1       6.105   3.956  15.276  0.00  0.00    +0.000 C 
ATOM      2  C   UNL     1       5.939   5.263  16.063  0.00  0.00    +0.000 C 
ATOM      3  O   UNL     1       4.637   5.310  16.578  0.00  0.00    +0.000 OA
ATOM      4  C   UNL     1       4.608   4.919  17.933  0.00  0.00    +0.000 C 
ATOM      5  C   UNL     1       6.026   4.683  18.475  0.00  0.00    +0.000 C 
ATOM      6  S   UNL     1       7.151   5.585  17.402  0.00  0.00    +0.000 S 
ATOM      7  O   UNL     1       8.147   4.213  17.089  0.00  0.00    +0.000 OA
ENDROOT
BRANCH   4   8
ATOM      8  C   UNL     1       3.768   3.619  18.110  0.00  0.00    +0.000 C 
BRANCH   8   9
ATOM      9  N   UNL     1       2.451   3.744  18.807  0.00  0.00    +0.000 N 
ATOM     10  C   UNL     1       2.037   2.449  19.389  0.00  0.00    +0.000 C 
ATOM     11  C   UNL     1       2.453   4.790  19.864  0.00  0.00    +0.000 C 
ATOM     12  C   UNL     1       1.448   4.146  17.784  0.00  0.00    +0.000 C 
ENDBRANCH   8   9
ENDBRANCH   4   8
TORSDOF 2
ENDMDL
MODEL 5
REMARK VINA RESULT:      -5.0      1.716      2.414
REMARK  Name = 
REMARK  6 active torsions:
REMARK  status: ('A' for Active; 'I' for Inactive)
REMARK    1  A    between atoms: C_1  and  C_2
REMARK    2  A    between atoms: C_4  and  C_5
REMARK    3  A    between atoms: C_5  and  N_6
REMARK    4  A    between atoms: N_6  and  C_7
REMARK    5  A    between atoms: N_6  and  C_8
REMARK    6  A    between atoms: N_6  and  C_9
REMARK                            x       y       z     vdW  Elec       q    Type
REMARK                         _______ _______ _______ _____ _____    ______ ____
ROOT
ATOM      1  C   UNL     1       6.240   3.989  15.279  0.00  0.00    +0.000 C 
ATOM      2  C   UNL     1       5.987   5.254  16.109  0.00  0.00    +0.000 C 
ATOM      3  O   UNL     1       4.662   5.228  16.564  0.00  0.00    +0.000 OA
ATOM      4  C   UNL     1       4.588   4.780  17.899  0.00  0.00    +0.000 C 
ATOM      5  C   UNL     1       5.989   4.577  18.496  0.00  0.00    +0.000 C 
ATOM      6  S   UNL     1       7.123   5.565  17.514  0.00  0.00    +0.000 S 
ATOM      7  O   UNL     1       8.187   4.248  17.193  0.00  0.00    +0.000 OA
ENDROOT
BRANCH   4   8
ATOM      8  C   UNL     1       3.795   3.443  17.985  0.00  0.00    +0.000 C 
BRANCH   8   9
ATOM      9  N   UNL     1       2.431   3.493  18.597  0.00  0.00    +0.000 N 
ATOM     10  C   UNL     1       1.494   4.248  17.737  0.00  0.00    +0.000 C 
ATOM     11  C   UNL     1       1.874   2.144  18.880  0.00  0.00    +0.000 C 
ATOM     12  C   UNL     1       2.558   4.205  19.897  0.00  0.00    +0.000 C 
ENDBRANCH   8   9
ENDBRANCH   4   8
TORSDOF 2
ENDMDL
MODEL 6
REMARK VINA RESULT:      -4.9      1.667      2.493
REMARK  Name = 
REMARK  6 active torsions:
REMARK  status: ('A' for Active; 'I' for Inactive)
REMARK    1  A    between atoms: C_1  and  C_2
REMARK    2  A    between atoms: C_4  and  C_5
REMARK    3  A    between atoms: C_5  and  N_6
REMARK    4  A    between atoms: N_6  and  C_7
REMARK    5  A    between atoms: N_6  and  C_8
REMARK    6  A    between atoms: N_6  and  C_9
REMARK                            x       y       z     vdW  Elec       q    Type
REMARK                         _______ _______ _______ _____ _____    ______ ____
ROOT
ATOM      1  C   UNL     1       4.998   6.563  15.824  0.00  0.00    +0.000 C 
ATOM      2  C   UNL     1       5.500   6.815  17.251  0.00  0.00    +0.000 C 
ATOM      3  O   UNL     1       4.642   6.161  18.146  0.00  0.00    +0.000 OA
ATOM      4  C   UNL     1       5.184   4.928  18.565  0.00  0.00    +0.000 C 
ATOM      5  C   UNL     1       6.606   4.730  18.019  0.00  0.00    +0.000 C 
ATOM      6  S   UNL     1       7.240   6.362  17.612  0.00  0.00    +0.000 S 
ATOM      7  O   UNL     1       7.661   5.930  15.997  0.00  0.00    +0.000 OA
ENDROOT
BRANCH   4   8
ATOM      8  C   UNL     1       4.285   3.747  18.095  0.00  0.00    +0.000 C 
BRANCH   8   9
ATOM      9  N   UNL     1       3.509   3.016  19.145  0.00  0.00    +0.000 N 
ATOM     10  C   UNL     1       4.412   2.253  20.033  0.00  0.00    +0.000 C 
ATOM     11  C   UNL     1       2.649   3.915  19.959  0.00  0.00    +0.000 C 
ATOM     12  C   UNL     1       2.613   2.058  18.444  0.00  0.00    +0.000 C 
ENDBRANCH   8   9
ENDBRANCH   4   8
TORSDOF 2
ENDMDL
MODEL 7
REMARK VINA RESULT:      -4.9      3.094      5.069
REMARK  Name = 
REMARK  6 active torsions:
REMARK  status: ('A' for Active; 'I' for Inactive)
REMARK    1  A    between atoms: C_1  and  C_2
REMARK    2  A    between atoms: C_4  and  C_5
REMARK    3  A    between atoms: C_5  and  N_6
REMARK    4  A    between atoms: N_6  and  C_7
REMARK    5  A    between atoms: N_6  and  C_8
REMARK    6  A    between atoms: N_6  and  C_9
REMARK                            x       y       z     vdW  Elec       q    Type
REMARK                         _______ _______ _______ _____ _____    ______ ____
ROOT
ATOM      1  C   UNL     1       2.004   5.403  20.618  0.00  0.00    +0.000 C 
ATOM      2  C   UNL     1       1.824   4.213  19.667  0.00  0.00    +0.000 C 
ATOM      3  O   UNL     1       2.688   4.380  18.577  0.00  0.00    +0.000 OA
ATOM      4  C   UNL     1       3.859   3.609  18.731  0.00  0.00    +0.000 C 
ATOM      5  C   UNL     1       3.781   2.720  19.980  0.00  0.00    +0.000 C 
ATOM      6  S   UNL     1       2.039   2.539  20.383  0.00  0.00    +0.000 S 
ATOM      7  O   UNL     1       2.236   3.055  22.015  0.00  0.00    +0.000 OA
ENDROOT
BRANCH   4   8
ATOM      8  C   UNL     1       5.111   4.529  18.833  0.00  0.00    +0.000 C 
BRANCH   8   9
ATOM      9  N   UNL     1       5.794   4.903  17.556  0.00  0.00    +0.000 N 
ATOM     10  C   UNL     1       5.337   4.044  16.443  0.00  0.00    +0.000 C 
ATOM     11  C   UNL     1       5.602   6.333  17.195  0.00  0.00    +0.000 C 
ATOM     12  C   UNL     1       7.252   4.685  17.755  0.00  0.00    +0.000 C 
ENDBRANCH   8   9
ENDBRANCH   4   8
TORSDOF 2
ENDMDL
MODEL 8
REMARK VINA RESULT:      -4.9      1.559      2.155
REMARK  Name = 
REMARK  6 active torsions:
REMARK  status: ('A' for Active; 'I' for Inactive)
REMARK    1  A    between atoms: C_1  and  C_2
REMARK    2  A    between atoms: C_4  and  C_5
REMARK    3  A    between atoms: C_5  and  N_6
REMARK    4  A    between atoms: N_6  and  C_7
REMARK    5  A    between atoms: N_6  and  C_8
REMARK    6  A    between atoms: N_6  and  C_9
REMARK                            x       y       z     vdW  Elec       q    Type
REMARK                         _______ _______ _______ _____ _____    ______ ____
ROOT
ATOM      1  C   UNL     1       5.607   4.851  15.098  0.00  0.00    +0.000 C 
ATOM      2  C   UNL     1       5.687   5.917  16.198  0.00  0.00    +0.000 C 
ATOM      3  O   UNL     1       4.469   5.933  16.891  0.00  0.00    +0.000 OA
ATOM      4  C   UNL     1       4.557   5.207  18.097  0.00  0.00    +0.000 C 
ATOM      5  C   UNL     1       5.993   4.726  18.354  0.00  0.00    +0.000 C 
ATOM      6  S   UNL     1       7.078   5.781  17.385  0.00  0.00    +0.000 S 
ATOM      7  O   UNL     1       7.866   4.463  16.604  0.00  0.00    +0.000 OA
ENDROOT
BRANCH   4   8
ATOM      8  C   UNL     1       3.601   3.978  18.067  0.00  0.00    +0.000 C 
BRANCH   8   9
ATOM      9  N   UNL     1       2.663   3.812  19.220  0.00  0.00    +0.000 N 
ATOM     10  C   UNL     1       2.497   5.086  19.953  0.00  0.00    +0.000 C 
ATOM     11  C   UNL     1       1.331   3.292  18.811  0.00  0.00    +0.000 C 
ATOM     12  C   UNL     1       3.268   2.812  20.140  0.00  0.00    +0.000 C 
ENDBRANCH   8   9
ENDBRANCH   4   8
TORSDOF 2
ENDMDL
MODEL 9
REMARK VINA RESULT:      -4.9      2.982      4.928
REMARK  Name = 
REMARK  6 active torsions:
REMARK  status: ('A' for Active; 'I' for Inactive)
REMARK    1  A    between atoms: C_1  and  C_2
REMARK    2  A    between atoms: C_4  and  C_5
REMARK    3  A    between atoms: C_5  and  N_6
REMARK    4  A    between atoms: N_6  and  C_7
REMARK    5  A    between atoms: N_6  and  C_8
REMARK    6  A    between atoms: N_6  and  C_9
REMARK                            x       y       z     vdW  Elec       q    Type
REMARK                         _______ _______ _______ _____ _____    ______ ____
ROOT
ATOM      1  C   UNL     1       3.347   1.535  18.421  0.00  0.00    +0.000 C 
ATOM      2  C   UNL     1       3.383   2.786  19.309  0.00  0.00    +0.000 C 
ATOM      3  O   UNL     1       4.598   3.450  19.093  0.00  0.00    +0.000 OA
ATOM      4  C   UNL     1       4.438   4.533  18.204  0.00  0.00    +0.000 C 
ATOM      5  C   UNL     1       2.960   4.741  17.839  0.00  0.00    +0.000 C 
ATOM      6  S   UNL     1       1.989   3.965  19.137  0.00  0.00    +0.000 S 
ATOM      7  O   UNL     1       1.065   3.007  18.042  0.00  0.00    +0.000 OA
ENDROOT
BRANCH   4   8
ATOM      8  C   UNL     1       5.260   4.298  16.902  0.00  0.00    +0.000 C 
BRANCH   8   9
ATOM      9  N   UNL     1       6.521   5.085  16.737  0.00  0.00    +0.000 N 
ATOM     10  C   UNL     1       6.275   6.527  16.952  0.00  0.00    +0.000 C 
ATOM     11  C   UNL     1       7.612   4.624  17.636  0.00  0.00    +0.000 C 
ATOM     12  C   UNL     1       6.984   4.887  15.337  0.00  0.00    +0.000 C 
ENDBRANCH   8   9
ENDBRANCH   4   8
TORSDOF 2
ENDMDL
