MODEL 1
REMARK VINA RESULT:      -7.9      0.000      0.000
REMARK  Name = 
REMARK  5 active torsions:
REMARK  status: ('A' for Active; 'I' for Inactive)
REMARK    1  A    between atoms: C_1  and  O_2
REMARK    2  A    between atoms: O_2  and  C_3
REMARK    3  A    between atoms: C_7  and  N_8
REMARK    4  A    between atoms: C_15  and  C_16
REMARK    5  A    between atoms: C_15  and  C_17
REMARK                            x       y       z     vdW  Elec       q    Type
REMARK                         _______ _______ _______ _____ _____    ______ ____
ROOT
ATOM      1  N   UNL     1       3.745   3.887  19.044  0.00  0.00    +0.000 N 
ATOM      2  C   UNL     1       4.017   2.786  19.956  0.00  0.00    +0.000 C 
ATOM      3  N   UNL     1       5.134   1.911  19.803  0.00  0.00    +0.000 N 
ATOM      4  N   UNL     1       3.177   2.470  20.872  0.00  0.00    +0.000 NA
ATOM      5  C   UNL     1       1.964   3.149  21.056  0.00  0.00    +0.000 C 
ATOM      6  N   UNL     1       1.079   2.745  22.084  0.00  0.00    +0.000 N 
ATOM      7  N   UNL     1       1.607   4.066  20.236  0.00  0.00    +0.000 NA
ATOM      8  C   UNL     1       2.381   4.509  19.086  0.00  0.00    +0.000 C 
ATOM      9  C   UNL     1       1.497   4.090  17.882  0.00  0.00    +0.000 C 
ATOM     10  C   UNL     1       2.486   6.042  19.228  0.00  0.00    +0.000 C 
ATOM     11  H   UNL     1       5.734   1.902  18.971  0.00  0.00    +0.000 HD
ATOM     12  H   UNL     1       5.279   1.149  20.485  0.00  0.00    +0.000 HD
ATOM     13  H   UNL     1       1.328   1.958  22.700  0.00  0.00    +0.000 HD
ATOM     14  H   UNL     1       0.156   3.190  22.187  0.00  0.00    +0.000 HD
ENDROOT
BRANCH   1  19
ATOM     15  C   UNL     1       6.777   5.808  17.693  0.00  0.00    +0.000 A 
ATOM     16  C   UNL     1       6.773   5.410  16.359  0.00  0.00    +0.000 A 
ATOM     17  C   UNL     1       5.838   4.481  15.914  0.00  0.00    +0.000 A 
ATOM     18  C   UNL     1       4.876   3.969  16.791  0.00  0.00    +0.000 A 
ATOM     19  C   UNL     1       4.800   4.384  18.148  0.00  0.00    +0.000 A 
ATOM     20  C   UNL     1       5.812   5.282  18.571  0.00  0.00    +0.000 A 
BRANCH  15  22
ATOM     21  C   UNL     1       7.800   8.027  17.683  0.00  0.00    +0.000 C 
ATOM     22  O   UNL     1       7.714   6.710  18.095  0.00  0.00    +0.000 OA
ENDBRANCH  15  22
ENDBRANCH   1  19
TORSDOF 2
ENDMDL
MODEL 2
REMARK VINA RESULT:      -7.8      1.247      1.953
REMARK  Name = 
REMARK  5 active torsions:
REMARK  status: ('A' for Active; 'I' for Inactive)
REMARK    1  A    between atoms: C_1  and  O_2
REMARK    2  A    between atoms: O_2  and  C_3
REMARK    3  A    between atoms: C_7  and  N_8
REMARK    4  A    between atoms: C_15  and  C_16
REMARK    5  A    between atoms: C_15  and  C_17
REMARK                            x       y       z     vdW  Elec       q    Type
REMARK                         _______ _______ _______ _____ _____    ______ ____
ROOT
ATOM      1  N   UNL     1       3.828   3.808  19.288  0.00  0.00    +0.000 N 
ATOM      2  C   UNL     1       4.030   2.671  20.174  0.00  0.00    +0.000 C 
ATOM      3  N   UNL     1       5.122   1.763  20.033  0.00  0.00    +0.000 N 
ATOM      4  N   UNL     1       3.146   2.356  21.049  0.00  0.00    +0.000 NA
ATOM      5  C   UNL     1       1.951   3.071  21.211  0.00  0.00    +0.000 C 
ATOM      6  N   UNL     1       1.017   2.666  22.194  0.00  0.00    +0.000 N 
ATOM      7  N   UNL     1       1.655   4.024  20.409  0.00  0.00    +0.000 NA
ATOM      8  C   UNL     1       2.485   4.475  19.302  0.00  0.00    +0.000 C 
ATOM      9  C   UNL     1       1.632   4.124  18.054  0.00  0.00    +0.000 C 
ATOM     10  C   UNL     1       2.637   5.999  19.497  0.00  0.00    +0.000 C 
ATOM     11  H   UNL     1       5.751   1.758  19.222  0.00  0.00    +0.000 HD
ATOM     12  H   UNL     1       5.216   0.975  20.694  0.00  0.00    +0.000 HD
ATOM     13  H   UNL     1       1.216   1.853  22.794  0.00  0.00    +0.000 HD
ATOM     14  H   UNL     1       0.105   3.140  22.278  0.00  0.00    +0.000 HD
ENDROOT
BRANCH   1  19
ATOM     15  C   UNL     1       6.124   4.415  16.277  0.00  0.00    +0.000 A 
ATOM     16  C   UNL     1       7.138   5.168  16.862  0.00  0.00    +0.000 A 
ATOM     17  C   UNL     1       7.051   5.530  18.202  0.00  0.00    +0.000 A 
ATOM     18  C   UNL     1       5.965   5.112  18.978  0.00  0.00    +0.000 A 
ATOM     19  C   UNL     1       4.932   4.295  18.446  0.00  0.00    +0.000 A 
ATOM     20  C   UNL     1       5.031   4.005  17.062  0.00  0.00    +0.000 A 
BRANCH  15  22
ATOM     21  C   UNL     1       6.983   4.773  14.017  0.00  0.00    +0.000 C 
ATOM     22  O   UNL     1       6.239   4.089  14.960  0.00  0.00    +0.000 OA
ENDBRANCH  15  22
ENDBRANCH   1  19
TORSDOF 2
ENDMDL
MODEL 3
REMARK VINA RESULT:      -7.0      2.853      4.665
REMARK  Name = 
REMARK  5 active torsions:
REMARK  status: ('A' for Active; 'I' for Inactive)
REMARK    1  A    between atoms: C_1  and  O_2
REMARK    2  A    between atoms: O_2  and  C_3
REMARK    3  A    between atoms: C_7  and  N_8
REMARK    4  A    between atoms: C_15  and  C_16
REMARK    5  A    between atoms: C_15  and  C_17
REMARK                            x       y       z     vdW  Elec       q    Type
REMARK                         _______ _______ _______ _____ _____    ______ ____
ROOT
ATOM      1  N   UNL     1       3.119   5.170  19.127  0.00  0.00    +0.000 N 
ATOM      2  C   UNL     1       4.557   4.945  19.100  0.00  0.00    +0.000 C 
ATOM      3  N   UNL     1       5.489   5.942  18.684  0.00  0.00    +0.000 N 
ATOM      4  N   UNL     1       5.042   3.780  19.326  0.00  0.00    +0.000 NA
ATOM      5  C   UNL     1       4.240   2.665  19.610  0.00  0.00    +0.000 C 
ATOM      6  N   UNL     1       4.841   1.406  19.844  0.00  0.00    +0.000 N 
ATOM      7  N   UNL     1       2.964   2.758  19.557  0.00  0.00    +0.000 NA
ATOM      8  C   UNL     1       2.225   3.970  19.235  0.00  0.00    +0.000 C 
ATOM      9  C   UNL     1       1.535   3.618  17.891  0.00  0.00    +0.000 C 
ATOM     10  C   UNL     1       1.211   4.150  20.385  0.00  0.00    +0.000 C 
ATOM     11  H   UNL     1       5.212   6.825  18.241  0.00  0.00    +0.000 HD
ATOM     12  H   UNL     1       6.499   5.726  18.690  0.00  0.00    +0.000 HD
ATOM     13  H   UNL     1       5.867   1.308  19.813  0.00  0.00    +0.000 HD
ATOM     14  H   UNL     1       4.262   0.565  19.986  0.00  0.00    +0.000 HD
ENDROOT
BRANCH   1  19
ATOM     15  C   UNL     1       1.484   8.477  20.174  0.00  0.00    +0.000 A 
ATOM     16  C   UNL     1       1.457   9.158  18.960  0.00  0.00    +0.000 A 
ATOM     17  C   UNL     1       2.019   8.580  17.827  0.00  0.00    +0.000 A 
ATOM     18  C   UNL     1       2.581   7.301  17.889  0.00  0.00    +0.000 A 
ATOM     19  C   UNL     1       2.583   6.539  19.089  0.00  0.00    +0.000 A 
ATOM     20  C   UNL     1       2.058   7.194  20.231  0.00  0.00    +0.000 A 
BRANCH  15  22
ATOM     21  C   UNL     1      -0.354   8.893  21.730  0.00  0.00    +0.000 C 
ATOM     22  O   UNL     1       0.934   9.079  21.264  0.00  0.00    +0.000 OA
ENDBRANCH  15  22
ENDBRANCH   1  19
TORSDOF 2
ENDMDL
MODEL 4
REMARK VINA RESULT:      -6.9      1.774      3.138
REMARK  Name = 
REMARK  5 active torsions:
REMARK  status: ('A' for Active; 'I' for Inactive)
REMARK    1  A    between atoms: C_1  and  O_2
REMARK    2  A    between atoms: O_2  and  C_3
REMARK    3  A    between atoms: C_7  and  N_8
REMARK    4  A    between atoms: C_15  and  C_16
REMARK    5  A    between atoms: C_15  and  C_17
REMARK                            x       y       z     vdW  Elec       q    Type
REMARK                         _______ _______ _______ _____ _____    ______ ____
ROOT
ATOM      1  N   UNL     1       4.059   3.820  19.017  0.00  0.00    +0.000 N 
ATOM      2  C   UNL     1       3.244   4.852  19.640  0.00  0.00    +0.000 C 
ATOM      3  N   UNL     1       3.575   6.239  19.585  0.00  0.00    +0.000 N 
ATOM      4  N   UNL     1       2.250   4.541  20.389  0.00  0.00    +0.000 NA
ATOM      5  C   UNL     1       1.887   3.212  20.653  0.00  0.00    +0.000 C 
ATOM      6  N   UNL     1       0.782   2.939  21.493  0.00  0.00    +0.000 N 
ATOM      7  N   UNL     1       2.610   2.248  20.222  0.00  0.00    +0.000 NA
ATOM      8  C   UNL     1       3.821   2.398  19.429  0.00  0.00    +0.000 C 
ATOM      9  C   UNL     1       4.930   1.855  20.369  0.00  0.00    +0.000 C 
ATOM     10  C   UNL     1       3.615   1.501  18.190  0.00  0.00    +0.000 C 
ATOM     11  H   UNL     1       4.473   6.592  19.236  0.00  0.00    +0.000 HD
ATOM     12  H   UNL     1       2.955   6.928  20.043  0.00  0.00    +0.000 HD
ATOM     13  H   UNL     1       0.241   3.712  21.905  0.00  0.00    +0.000 HD
ATOM     14  H   UNL     1       0.545   1.969  21.751  0.00  0.00    +0.000 HD
ENDROOT
BRANCH   1  19
ATOM     15  C   UNL     1       5.719   4.480  15.624  0.00  0.00    +0.000 A 
ATOM     16  C   UNL     1       7.022   4.778  16.017  0.00  0.00    +0.000 A 
ATOM     17  C   UNL     1       7.345   4.827  17.368  0.00  0.00    +0.000 A 
ATOM     18  C   UNL     1       6.378   4.544  18.338  0.00  0.00    +0.000 A 
ATOM     19  C   UNL     1       5.050   4.179  17.991  0.00  0.00    +0.000 A 
ATOM     20  C   UNL     1       4.750   4.204  16.605  0.00  0.00    +0.000 A 
BRANCH  15  22
ATOM     21  C   UNL     1       6.155   3.772  13.326  0.00  0.00    +0.000 C 
ATOM     22  O   UNL     1       5.437   4.452  14.292  0.00  0.00    +0.000 OA
ENDBRANCH  15  22
ENDBRANCH   1  19
TORSDOF 2
ENDMDL
MODEL 5
REMARK VINA RESULT:      -6.8      1.591      2.941
REMARK  Name = 
REMARK  5 active torsions:
REMARK  status: ('A' for Active; 'I' for Inactive)
REMARK    1  A    between atoms: C_1  and  O_2
REMARK    2  A    between atoms: O_2  and  C_3
REMARK    3  A    between atoms: C_7  and  N_8
REMARK    4  A    between atoms: C_15  and  C_16
REMARK    5  A    between atoms: C_15  and  C_17
REMARK                            x       y       z     vdW  Elec       q    Type
REMARK                         _______ _______ _______ _____ _____    ______ ____
ROOT
ATOM      1  N   UNL     1       3.880   4.342  19.035  0.00  0.00    +0.000 N 
ATOM      2  C   UNL     1       2.812   5.188  19.547  0.00  0.00    +0.000 C 
ATOM      3  N   UNL     1       2.996   6.571  19.844  0.00  0.00    +0.000 N 
ATOM      4  N   UNL     1       1.681   4.686  19.883  0.00  0.00    +0.000 NA
ATOM      5  C   UNL     1       1.399   3.316  19.781  0.00  0.00    +0.000 C 
ATOM      6  N   UNL     1       0.131   2.827  20.175  0.00  0.00    +0.000 N 
ATOM      7  N   UNL     1       2.315   2.493  19.432  0.00  0.00    +0.000 NA
ATOM      8  C   UNL     1       3.683   2.856  19.094  0.00  0.00    +0.000 C 
ATOM      9  C   UNL     1       4.516   2.188  20.220  0.00  0.00    +0.000 C 
ATOM     10  C   UNL     1       3.949   2.217  17.714  0.00  0.00    +0.000 C 
ATOM     11  H   UNL     1       3.914   7.029  19.860  0.00  0.00    +0.000 HD
ATOM     12  H   UNL     1       2.199   7.124  20.201  0.00  0.00    +0.000 HD
ATOM     13  H   UNL     1      -0.587   3.476  20.528  0.00  0.00    +0.000 HD
ATOM     14  H   UNL     1      -0.067   1.815  20.170  0.00  0.00    +0.000 HD
ENDROOT
BRANCH   1  19
ATOM     15  C   UNL     1       6.417   5.686  16.493  0.00  0.00    +0.000 A 
ATOM     16  C   UNL     1       7.479   6.023  17.328  0.00  0.00    +0.000 A 
ATOM     17  C   UNL     1       7.354   5.876  18.705  0.00  0.00    +0.000 A 
ATOM     18  C   UNL     1       6.178   5.357  19.257  0.00  0.00    +0.000 A 
ATOM     19  C   UNL     1       5.086   4.945  18.448  0.00  0.00    +0.000 A 
ATOM     20  C   UNL     1       5.234   5.173  17.056  0.00  0.00    +0.000 A 
BRANCH  15  22
ATOM     21  C   UNL     1       6.847   4.855  14.235  0.00  0.00    +0.000 C 
ATOM     22  O   UNL     1       6.572   5.854  15.151  0.00  0.00    +0.000 OA
ENDBRANCH  15  22
ENDBRANCH   1  19
TORSDOF 2
ENDMDL
MODEL 6
REMARK VINA RESULT:      -6.7      2.094      2.755
REMARK  Name = 
REMARK  5 active torsions:
REMARK  status: ('A' for Active; 'I' for Inactive)
REMARK    1  A    between atoms: C_1  and  O_2
REMARK    2  A    between atoms: O_2  and  C_3
REMARK    3  A    between atoms: C_7  and  N_8
REMARK    4  A    between atoms: C_15  and  C_16
REMARK    5  A    between atoms: C_15  and  C_17
REMARK                            x       y       z     vdW  Elec       q    Type
REMARK                         _______ _______ _______ _____ _____    ______ ____
ROOT
ATOM      1  N   UNL     1       3.798   4.022  18.302  0.00  0.00    +0.000 N 
ATOM      2  C   UNL     1       4.487   4.056  19.584  0.00  0.00    +0.000 C 
ATOM      3  N   UNL     1       5.887   4.305  19.704  0.00  0.00    +0.000 N 
ATOM      4  N   UNL     1       3.879   3.729  20.665  0.00  0.00    +0.000 NA
ATOM      5  C   UNL     1       2.537   3.324  20.687  0.00  0.00    +0.000 C 
ATOM      6  N   UNL     1       1.928   2.971  21.915  0.00  0.00    +0.000 N 
ATOM      7  N   UNL     1       1.890   3.175  19.593  0.00  0.00    +0.000 NA
ATOM      8  C   UNL     1       2.428   3.413  18.262  0.00  0.00    +0.000 C 
ATOM      9  C   UNL     1       2.422   2.001  17.619  0.00  0.00    +0.000 C 
ATOM     10  C   UNL     1       1.428   4.371  17.579  0.00  0.00    +0.000 C 
ATOM     11  H   UNL     1       6.528   4.329  18.903  0.00  0.00    +0.000 HD
ATOM     12  H   UNL     1       6.321   4.322  20.642  0.00  0.00    +0.000 HD
ATOM     13  H   UNL     1       2.467   3.018  22.792  0.00  0.00    +0.000 HD
ATOM     14  H   UNL     1       0.964   2.607  21.938  0.00  0.00    +0.000 HD
ENDROOT
BRANCH   1  19
ATOM     15  C   UNL     1       5.696   4.389  14.990  0.00  0.00    +0.000 A 
ATOM     16  C   UNL     1       5.729   5.774  14.853  0.00  0.00    +0.000 A 
ATOM     17  C   UNL     1       5.090   6.580  15.789  0.00  0.00    +0.000 A 
ATOM     18  C   UNL     1       4.443   6.009  16.890  0.00  0.00    +0.000 A 
ATOM     19  C   UNL     1       4.427   4.606  17.108  0.00  0.00    +0.000 A 
ATOM     20  C   UNL     1       5.036   3.822  16.096  0.00  0.00    +0.000 A 
BRANCH  15  22
ATOM     21  C   UNL     1       5.978   3.548  12.713  0.00  0.00    +0.000 C 
ATOM     22  O   UNL     1       6.324   3.631  14.049  0.00  0.00    +0.000 OA
ENDBRANCH  15  22
ENDBRANCH   1  19
TORSDOF 2
ENDMDL
MODEL 7
REMARK VINA RESULT:      -6.6      2.833      4.350
REMARK  Name = 
REMARK  5 active torsions:
REMARK  status: ('A' for Active; 'I' for Inactive)
REMARK    1  A    between atoms: C_1  and  O_2
REMARK    2  A    between atoms: O_2  and  C_3
REMARK    3  A    between atoms: C_7  and  N_8
REMARK    4  A    between atoms: C_15  and  C_16
REMARK    5  A    between atoms: C_15  and  C_17
REMARK                            x       y       z     vdW  Elec       q    Type
REMARK                         _______ _______ _______ _____ _____    ______ ____
ROOT
ATOM      1  N   UNL     1       3.018   4.717  19.233  0.00  0.00    +0.000 N 
ATOM      2  C   UNL     1       4.442   4.461  19.395  0.00  0.00    +0.000 C 
ATOM      3  N   UNL     1       5.421   5.499  19.385  0.00  0.00    +0.000 N 
ATOM      4  N   UNL     1       4.894   3.261  19.422  0.00  0.00    +0.000 NA
ATOM      5  C   UNL     1       4.066   2.136  19.300  0.00  0.00    +0.000 C 
ATOM      6  N   UNL     1       4.631   0.839  19.332  0.00  0.00    +0.000 N 
ATOM      7  N   UNL     1       2.817   2.277  19.058  0.00  0.00    +0.000 NA
ATOM      8  C   UNL     1       2.131   3.552  18.907  0.00  0.00    +0.000 C 
ATOM      9  C   UNL     1       1.682   3.540  17.422  0.00  0.00    +0.000 C 
ATOM     10  C   UNL     1       0.934   3.492  19.880  0.00  0.00    +0.000 C 
ATOM     11  H   UNL     1       5.215   6.468  19.119  0.00  0.00    +0.000 HD
ATOM     12  H   UNL     1       6.418   5.257  19.510  0.00  0.00    +0.000 HD
ATOM     13  H   UNL     1       5.648   0.721  19.452  0.00  0.00    +0.000 HD
ATOM     14  H   UNL     1       4.045   0.006  19.176  0.00  0.00    +0.000 HD
ENDROOT
BRANCH   1  19
ATOM     15  C   UNL     1       2.047   8.375  18.616  0.00  0.00    +0.000 A 
ATOM     16  C   UNL     1       1.531   8.728  19.860  0.00  0.00    +0.000 A 
ATOM     17  C   UNL     1       1.440   7.776  20.870  0.00  0.00    +0.000 A 
ATOM     18  C   UNL     1       1.896   6.472  20.655  0.00  0.00    +0.000 A 
ATOM     19  C   UNL     1       2.483   6.074  19.424  0.00  0.00    +0.000 A 
ATOM     20  C   UNL     1       2.497   7.059  18.405  0.00  0.00    +0.000 A 
BRANCH  15  22
ATOM     21  C   UNL     1       2.067  10.697  17.855  0.00  0.00    +0.000 C 
ATOM     22  O   UNL     1       2.111   9.331  17.648  0.00  0.00    +0.000 OA
ENDBRANCH  15  22
ENDBRANCH   1  19
TORSDOF 2
ENDMDL
MODEL 8
REMARK VINA RESULT:      -6.6      1.365      2.507
REMARK  Name = 
REMARK  5 active torsions:
REMARK  status: ('A' for Active; 'I' for Inactive)
REMARK    1  A    between atoms: C_1  and  O_2
REMARK    2  A    between atoms: O_2  and  C_3
REMARK    3  A    between atoms: C_7  and  N_8
REMARK    4  A    between atoms: C_15  and  C_16
REMARK    5  A    between atoms: C_15  and  C_17
REMARK                            x       y       z     vdW  Elec       q    Type
REMARK                         _______ _______ _______ _____ _____    ______ ____
ROOT
ATOM      1  N   UNL     1       3.783   4.171  18.144  0.00  0.00    +0.000 N 
ATOM      2  C   UNL     1       2.743   5.149  18.423  0.00  0.00    +0.000 C 
ATOM      3  N   UNL     1       2.866   6.529  18.083  0.00  0.00    +0.000 N 
ATOM      4  N   UNL     1       1.711   4.831  19.116  0.00  0.00    +0.000 NA
ATOM      5  C   UNL     1       1.518   3.545  19.641  0.00  0.00    +0.000 C 
ATOM      6  N   UNL     1       0.359   3.262  20.403  0.00  0.00    +0.000 N 
ATOM      7  N   UNL     1       2.432   2.656  19.523  0.00  0.00    +0.000 NA
ATOM      8  C   UNL     1       3.706   2.848  18.848  0.00  0.00    +0.000 C 
ATOM      9  C   UNL     1       4.740   2.723  19.998  0.00  0.00    +0.000 C 
ATOM     10  C   UNL     1       3.814   1.688  17.836  0.00  0.00    +0.000 C 
ATOM     11  H   UNL     1       3.740   6.955  17.757  0.00  0.00    +0.000 HD
ATOM     12  H   UNL     1       2.091   7.177  18.301  0.00  0.00    +0.000 HD
ATOM     13  H   UNL     1      -0.345   3.996  20.565  0.00  0.00    +0.000 HD
ATOM     14  H   UNL     1       0.237   2.343  20.852  0.00  0.00    +0.000 HD
ENDROOT
BRANCH   1  19
ATOM     15  C   UNL     1       6.827   5.775  16.450  0.00  0.00    +0.000 A 
ATOM     16  C   UNL     1       6.827   5.117  15.223  0.00  0.00    +0.000 A 
ATOM     17  C   UNL     1       5.892   4.120  14.969  0.00  0.00    +0.000 A 
ATOM     18  C   UNL     1       4.925   3.797  15.926  0.00  0.00    +0.000 A 
ATOM     19  C   UNL     1       4.844   4.475  17.171  0.00  0.00    +0.000 A 
ATOM     20  C   UNL     1       5.856   5.438  17.411  0.00  0.00    +0.000 A 
BRANCH  15  22
ATOM     21  C   UNL     1       7.699   7.732  17.624  0.00  0.00    +0.000 C 
ATOM     22  O   UNL     1       7.765   6.737  16.667  0.00  0.00    +0.000 OA
ENDBRANCH  15  22
ENDBRANCH   1  19
TORSDOF 2
ENDMDL
MODEL 9
REMARK VINA RESULT:      -6.5      1.071      2.241
REMARK  Name = 
REMARK  5 active torsions:
REMARK  status: ('A' for Active; 'I' for Inactive)
REMARK    1  A    between atoms: C_1  and  O_2
REMARK    2  A    between atoms: O_2  and  C_3
REMARK    3  A    between atoms: C_7  and  N_8
REMARK    4  A    between atoms: C_15  and  C_16
REMARK    5  A    between atoms: C_15  and  C_17
REMARK                            x       y       z     vdW  Elec       q    Type
REMARK                         _______ _______ _______ _____ _____    ______ ____
ROOT
ATOM      1  N   UNL     1       3.838   3.943  19.033  0.00  0.00    +0.000 N 
ATOM      2  C   UNL     1       3.020   4.895  19.770  0.00  0.00    +0.000 C 
ATOM      3  N   UNL     1       3.254   6.302  19.741  0.00  0.00    +0.000 N 
ATOM      4  N   UNL     1       2.123   4.490  20.593  0.00  0.00    +0.000 NA
ATOM      5  C   UNL     1       1.873   3.132  20.835  0.00  0.00    +0.000 C 
ATOM      6  N   UNL     1       0.872   2.755  21.761  0.00  0.00    +0.000 N 
ATOM      7  N   UNL     1       2.613   2.234  20.301  0.00  0.00    +0.000 NA
ATOM      8  C   UNL     1       3.732   2.494  19.407  0.00  0.00    +0.000 C 
ATOM      9  C   UNL     1       4.957   1.997  20.219  0.00  0.00    +0.000 C 
ATOM     10  C   UNL     1       3.469   1.628  18.157  0.00  0.00    +0.000 C 
ATOM     11  H   UNL     1       4.090   6.727  19.326  0.00  0.00    +0.000 HD
ATOM     12  H   UNL     1       2.637   6.930  20.281  0.00  0.00    +0.000 HD
ATOM     13  H   UNL     1       0.323   3.475  22.252  0.00  0.00    +0.000 HD
ATOM     14  H   UNL     1       0.724   1.763  22.000  0.00  0.00    +0.000 HD
ENDROOT
BRANCH   1  19
ATOM     15  C   UNL     1       6.663   5.662  17.092  0.00  0.00    +0.000 A 
ATOM     16  C   UNL     1       6.302   5.369  15.779  0.00  0.00    +0.000 A 
ATOM     17  C   UNL     1       5.193   4.570  15.526  0.00  0.00    +0.000 A 
ATOM     18  C   UNL     1       4.412   4.087  16.581  0.00  0.00    +0.000 A 
ATOM     19  C   UNL     1       4.702   4.403  17.936  0.00  0.00    +0.000 A 
ATOM     20  C   UNL     1       5.878   5.166  18.149  0.00  0.00    +0.000 A 
BRANCH  15  22
ATOM     21  C   UNL     1       7.755   7.781  17.631  0.00  0.00    +0.000 C 
ATOM     22  O   UNL     1       7.762   6.438  17.302  0.00  0.00    +0.000 OA
ENDBRANCH  15  22
ENDBRANCH   1  19
TORSDOF 2
ENDMDL
