MODEL 1
REMARK VINA RESULT:      -7.8      0.000      0.000
REMARK  Name = 
REMARK  5 active torsions:
REMARK  status: ('A' for Active; 'I' for Inactive)
REMARK    1  A    between atoms: C_1  and  C_2
REMARK    2  A    between atoms: C_5  and  C_6
REMARK    3  A    between atoms: C_11  and  C_12
REMARK    4  A    between atoms: C_16  and  S_17
REMARK    5  A    between atoms: S_17  and  N_18
REMARK                            x       y       z     vdW  Elec       q    Type
REMARK                         _______ _______ _______ _____ _____    ______ ____
ROOT
ATOM      1  C   UNL     1       7.854   7.933  18.146  0.00  0.00    +0.000 C 
ATOM      2  N   UNL     1       8.247   6.872  18.782  0.00  0.00    +0.000 NA
ATOM      3  C   UNL     1       7.537   5.742  18.424  0.00  0.00    +0.000 C 
ATOM      4  O   UNL     1       7.971   4.604  18.482  0.00  0.00    +0.000 OA
ATOM      5  C   UNL     1       6.200   6.099  17.807  0.00  0.00    +0.000 C 
ATOM      6  C   UNL     1       5.526   5.089  17.220  0.00  0.00    +0.000 C 
ATOM      7  S   UNL     1       6.505   7.654  17.051  0.00  0.00    +0.000 S 
ENDROOT
BRANCH   1  12
ATOM      8  C   UNL     1      10.156  13.277  18.741  0.00  0.00    +0.000 C 
ATOM      9  C   UNL     1       9.541  11.909  18.615  0.00  0.00    +0.000 A 
ATOM     10  C   UNL     1       8.607  11.629  17.611  0.00  0.00    +0.000 A 
ATOM     11  C   UNL     1       8.058  10.331  17.493  0.00  0.00    +0.000 A 
ATOM     12  C   UNL     1       8.439   9.295  18.364  0.00  0.00    +0.000 A 
ATOM     13  C   UNL     1       9.352   9.596  19.380  0.00  0.00    +0.000 A 
ATOM     14  C   UNL     1       9.892  10.890  19.504  0.00  0.00    +0.000 A 
ENDBRANCH   1  12
BRANCH   6  15
ATOM     15  C   UNL     1       4.621   4.093  17.870  0.00  0.00    +0.000 A 
ATOM     16  C   UNL     1       4.365   2.880  17.201  0.00  0.00    +0.000 A 
ATOM     17  C   UNL     1       3.450   1.930  17.685  0.00  0.00    +0.000 A 
ATOM     18  C   UNL     1       2.764   2.173  18.867  0.00  0.00    +0.000 A 
ATOM     19  C   UNL     1       3.011   3.371  19.555  0.00  0.00    +0.000 A 
ATOM     20  C   UNL     1       3.909   4.331  19.053  0.00  0.00    +0.000 A 
BRANCH  19  21
ATOM     21  S   UNL     1       2.158   3.633  21.081  0.00  0.00    +0.000 S 
ATOM     22  O   UNL     1       2.650   2.687  22.066  0.00  0.00    +0.000 OA
ATOM     23  O   UNL     1       2.067   5.048  21.350  0.00  0.00    +0.000 OA
BRANCH  21  24
ATOM     24  N   UNL     1       0.615   3.134  20.680  0.00  0.00    +0.000 NA
ATOM     25  H   UNL     1       0.403   3.360  19.703  0.00  0.00    +0.000 HD
ATOM     26  H   UNL     1       0.465   2.158  20.934  0.00  0.00    +0.000 HD
ENDBRANCH  21  24
ENDBRANCH  19  21
ENDBRANCH   6  15
TORSDOF 4
ENDMDL
MODEL 2
REMARK VINA RESULT:      -7.8      0.225      1.004
REMARK  Name = 
REMARK  5 active torsions:
REMARK  status: ('A' for Active; 'I' for Inactive)
REMARK    1  A    between atoms: C_1  and  C_2
REMARK    2  A    between atoms: C_5  and  C_6
REMARK    3  A    between atoms: C_11  and  C_12
REMARK    4  A    between atoms: C_16  and  S_17
REMARK    5  A    between atoms: S_17  and  N_18
REMARK                            x       y       z     vdW  Elec       q    Type
REMARK                         _______ _______ _______ _____ _____    ______ ____
ROOT
ATOM      1  C   UNL     1       7.861   8.000  18.103  0.00  0.00    +0.000 C 
ATOM      2  N   UNL     1       8.250   6.935  18.736  0.00  0.00    +0.000 NA
ATOM      3  C   UNL     1       7.521   5.813  18.390  0.00  0.00    +0.000 C 
ATOM      4  O   UNL     1       7.942   4.670  18.444  0.00  0.00    +0.000 OA
ATOM      5  C   UNL     1       6.180   6.185  17.790  0.00  0.00    +0.000 C 
ATOM      6  C   UNL     1       5.486   5.183  17.214  0.00  0.00    +0.000 C 
ATOM      7  S   UNL     1       6.494   7.735  17.027  0.00  0.00    +0.000 S 
ENDROOT
BRANCH   1  12
ATOM      8  C   UNL     1      10.183  13.261  19.166  0.00  0.00    +0.000 C 
ATOM      9  C   UNL     1       9.611  11.902  18.867  0.00  0.00    +0.000 A 
ATOM     10  C   UNL     1       9.870  10.811  19.706  0.00  0.00    +0.000 A 
ATOM     11  C   UNL     1       9.304   9.546  19.423  0.00  0.00    +0.000 A 
ATOM     12  C   UNL     1       8.465   9.354  18.311  0.00  0.00    +0.000 A 
ATOM     13  C   UNL     1       8.237  10.445  17.466  0.00  0.00    +0.000 A 
ATOM     14  C   UNL     1       8.808  11.702  17.741  0.00  0.00    +0.000 A 
ENDBRANCH   1  12
BRANCH   6  15
ATOM     15  C   UNL     1       4.579   4.198  17.878  0.00  0.00    +0.000 A 
ATOM     16  C   UNL     1       4.415   2.930  17.287  0.00  0.00    +0.000 A 
ATOM     17  C   UNL     1       3.505   1.979  17.782  0.00  0.00    +0.000 A 
ATOM     18  C   UNL     1       2.733   2.278  18.896  0.00  0.00    +0.000 A 
ATOM     19  C   UNL     1       2.888   3.531  19.506  0.00  0.00    +0.000 A 
ATOM     20  C   UNL     1       3.780   4.491  18.992  0.00  0.00    +0.000 A 
BRANCH  19  21
ATOM     21  S   UNL     1       1.925   3.867  20.950  0.00  0.00    +0.000 S 
ATOM     22  O   UNL     1       2.384   3.015  22.032  0.00  0.00    +0.000 OA
ATOM     23  O   UNL     1       1.764   5.292  21.107  0.00  0.00    +0.000 OA
BRANCH  21  24
ATOM     24  N   UNL     1       0.432   3.277  20.488  0.00  0.00    +0.000 NA
ATOM     25  H   UNL     1       0.501   2.294  20.207  0.00  0.00    +0.000 HD
ATOM     26  H   UNL     1      -0.276   3.468  21.197  0.00  0.00    +0.000 HD
ENDBRANCH  21  24
ENDBRANCH  19  21
ENDBRANCH   6  15
TORSDOF 4
ENDMDL
MODEL 3
REMARK VINA RESULT:      -7.4      6.840      9.253
REMARK  Name = 
REMARK  5 active torsions:
REMARK  status: ('A' for Active; 'I' for Inactive)
REMARK    1  A    between atoms: C_1  and  C_2
REMARK    2  A    between atoms: C_5  and  C_6
REMARK    3  A    between atoms: C_11  and  C_12
REMARK    4  A    between atoms: C_16  and  S_17
REMARK    5  A    between atoms: S_17  and  N_18
REMARK                            x       y       z     vdW  Elec       q    Type
REMARK                         _______ _______ _______ _____ _____    ______ ____
ROOT
ATOM      1  C   UNL     1       2.405   6.871  18.829  0.00  0.00    +0.000 C 
ATOM      2  N   UNL     1       2.307   7.688  17.825  0.00  0.00    +0.000 NA
ATOM      3  C   UNL     1       1.861   8.941  18.198  0.00  0.00    +0.000 C 
ATOM      4  O   UNL     1       2.119   9.974  17.603  0.00  0.00    +0.000 OA
ATOM      5  C   UNL     1       1.132   8.898  19.525  0.00  0.00    +0.000 C 
ATOM      6  C   UNL     1       0.852  10.091  20.090  0.00  0.00    +0.000 C 
ATOM      7  S   UNL     1       1.901   7.563  20.367  0.00  0.00    +0.000 S 
ENDROOT
BRANCH   1  12
ATOM      8  C   UNL     1       3.862   1.229  18.337  0.00  0.00    +0.000 C 
ATOM      9  C   UNL     1       3.512   2.689  18.439  0.00  0.00    +0.000 A 
ATOM     10  C   UNL     1       2.370   3.201  17.812  0.00  0.00    +0.000 A 
ATOM     11  C   UNL     1       2.043   4.571  17.938  0.00  0.00    +0.000 A 
ATOM     12  C   UNL     1       2.841   5.445  18.699  0.00  0.00    +0.000 A 
ATOM     13  C   UNL     1       3.995   4.926  19.296  0.00  0.00    +0.000 A 
ATOM     14  C   UNL     1       4.325   3.564  19.162  0.00  0.00    +0.000 A 
ENDBRANCH   1  12
BRANCH   6  15
ATOM     15  C   UNL     1      -0.317  10.981  19.818  0.00  0.00    +0.000 A 
ATOM     16  C   UNL     1      -0.471  12.146  20.595  0.00  0.00    +0.000 A 
ATOM     17  C   UNL     1      -1.592  12.987  20.480  0.00  0.00    +0.000 A 
ATOM     18  C   UNL     1      -2.594  12.679  19.571  0.00  0.00    +0.000 A 
ATOM     19  C   UNL     1      -2.456  11.529  18.780  0.00  0.00    +0.000 A 
ATOM     20  C   UNL     1      -1.346  10.675  18.916  0.00  0.00    +0.000 A 
BRANCH  19  21
ATOM     21  S   UNL     1      -3.726  11.186  17.598  0.00  0.00    +0.000 S 
ATOM     22  O   UNL     1      -3.953   9.753  17.550  0.00  0.00    +0.000 OA
ATOM     23  O   UNL     1      -4.804  12.132  17.754  0.00  0.00    +0.000 OA
BRANCH  21  24
ATOM     24  N   UNL     1      -2.956  11.588  16.170  0.00  0.00    +0.000 NA
ATOM     25  H   UNL     1      -2.991  10.807  15.507  0.00  0.00    +0.000 HD
ATOM     26  H   UNL     1      -3.297  12.475  15.803  0.00  0.00    +0.000 HD
ENDBRANCH  21  24
ENDBRANCH  19  21
ENDBRANCH   6  15
TORSDOF 4
ENDMDL
MODEL 4
REMARK VINA RESULT:      -7.4      6.564      8.407
REMARK  Name = 
REMARK  5 active torsions:
REMARK  status: ('A' for Active; 'I' for Inactive)
REMARK    1  A    between atoms: C_1  and  C_2
REMARK    2  A    between atoms: C_5  and  C_6
REMARK    3  A    between atoms: C_11  and  C_12
REMARK    4  A    between atoms: C_16  and  S_17
REMARK    5  A    between atoms: S_17  and  N_18
REMARK                            x       y       z     vdW  Elec       q    Type
REMARK                         _______ _______ _______ _____ _____    ______ ____
ROOT
ATOM      1  C   UNL     1      -0.195  10.214  19.367  0.00  0.00    +0.000 C 
ATOM      2  N   UNL     1       0.122   9.298  20.230  0.00  0.00    +0.000 NA
ATOM      3  C   UNL     1       1.306   8.658  19.918  0.00  0.00    +0.000 C 
ATOM      4  O   UNL     1       2.050   8.138  20.733  0.00  0.00    +0.000 OA
ATOM      5  C   UNL     1       1.648   8.809  18.449  0.00  0.00    +0.000 C 
ATOM      6  C   UNL     1       2.886   8.419  18.082  0.00  0.00    +0.000 C 
ATOM      7  S   UNL     1       0.933  10.355  18.024  0.00  0.00    +0.000 S 
ENDROOT
BRANCH   1  12
ATOM      8  C   UNL     1      -5.066  13.395  19.965  0.00  0.00    +0.000 C 
ATOM      9  C   UNL     1      -3.800  12.601  19.788  0.00  0.00    +0.000 A 
ATOM     10  C   UNL     1      -2.775  12.658  20.739  0.00  0.00    +0.000 A 
ATOM     11  C   UNL     1      -1.602  11.885  20.568  0.00  0.00    +0.000 A 
ATOM     12  C   UNL     1      -1.441  11.040  19.456  0.00  0.00    +0.000 A 
ATOM     13  C   UNL     1      -2.460  11.015  18.498  0.00  0.00    +0.000 A 
ATOM     14  C   UNL     1      -3.623  11.791  18.664  0.00  0.00    +0.000 A 
ENDBRANCH   1  12
BRANCH   6  15
ATOM     15  C   UNL     1       3.346   7.039  17.739  0.00  0.00    +0.000 A 
ATOM     16  C   UNL     1       2.461   5.963  17.948  0.00  0.00    +0.000 A 
ATOM     17  C   UNL     1       2.841   4.624  17.753  0.00  0.00    +0.000 A 
ATOM     18  C   UNL     1       4.131   4.328  17.334  0.00  0.00    +0.000 A 
ATOM     19  C   UNL     1       5.026   5.384  17.111  0.00  0.00    +0.000 A 
ATOM     20  C   UNL     1       4.649   6.722  17.333  0.00  0.00    +0.000 A 
BRANCH  19  21
ATOM     21  S   UNL     1       6.648   4.981  16.535  0.00  0.00    +0.000 S 
ATOM     22  O   UNL     1       6.546   3.934  15.534  0.00  0.00    +0.000 OA
ATOM     23  O   UNL     1       7.400   6.191  16.309  0.00  0.00    +0.000 OA
BRANCH  21  24
ATOM     24  N   UNL     1       7.307   4.268  17.895  0.00  0.00    +0.000 NA
ATOM     25  H   UNL     1       6.767   3.442  18.169  0.00  0.00    +0.000 HD
ATOM     26  H   UNL     1       8.306   4.104  17.779  0.00  0.00    +0.000 HD
ENDBRANCH  21  24
ENDBRANCH  19  21
ENDBRANCH   6  15
TORSDOF 4
ENDMDL
MODEL 5
REMARK VINA RESULT:      -7.3      7.473      8.868
REMARK  Name = 
REMARK  5 active torsions:
REMARK  status: ('A' for Active; 'I' for Inactive)
REMARK    1  A    between atoms: C_1  and  C_2
REMARK    2  A    between atoms: C_5  and  C_6
REMARK    3  A    between atoms: C_11  and  C_12
REMARK    4  A    between atoms: C_16  and  S_17
REMARK    5  A    between atoms: S_17  and  N_18
REMARK                            x       y       z     vdW  Elec       q    Type
REMARK                         _______ _______ _______ _____ _____    ______ ____
ROOT
ATOM      1  C   UNL     1      -0.624  10.853  21.657  0.00  0.00    +0.000 C 
ATOM      2  N   UNL     1       0.095  10.273  22.570  0.00  0.00    +0.000 NA
ATOM      3  C   UNL     1       1.083   9.467  22.038  0.00  0.00    +0.000 C 
ATOM      4  O   UNL     1       2.137   9.206  22.592  0.00  0.00    +0.000 OA
ATOM      5  C   UNL     1       0.763   9.065  20.612  0.00  0.00    +0.000 C 
ATOM      6  C   UNL     1       1.758   8.468  19.924  0.00  0.00    +0.000 C 
ATOM      7  S   UNL     1      -0.180  10.418  20.011  0.00  0.00    +0.000 S 
ENDROOT
BRANCH   1  12
ATOM      8  C   UNL     1      -5.220  14.211  23.003  0.00  0.00    +0.000 C 
ATOM      9  C   UNL     1      -4.016  13.376  22.658  0.00  0.00    +0.000 A 
ATOM     10  C   UNL     1      -3.376  12.599  23.630  0.00  0.00    +0.000 A 
ATOM     11  C   UNL     1      -2.261  11.801  23.282  0.00  0.00    +0.000 A 
ATOM     12  C   UNL     1      -1.777  11.759  21.962  0.00  0.00    +0.000 A 
ATOM     13  C   UNL     1      -2.408  12.563  21.007  0.00  0.00    +0.000 A 
ATOM     14  C   UNL     1      -3.512  13.364  21.355  0.00  0.00    +0.000 A 
ENDBRANCH   1  12
BRANCH   6  15
ATOM     15  C   UNL     1       2.136   7.023  19.931  0.00  0.00    +0.000 A 
ATOM     16  C   UNL     1       1.403   6.139  20.748  0.00  0.00    +0.000 A 
ATOM     17  C   UNL     1       1.750   4.785  20.897  0.00  0.00    +0.000 A 
ATOM     18  C   UNL     1       2.850   4.277  20.220  0.00  0.00    +0.000 A 
ATOM     19  C   UNL     1       3.588   5.137  19.393  0.00  0.00    +0.000 A 
ATOM     20  C   UNL     1       3.253   6.498  19.267  0.00  0.00    +0.000 A 
BRANCH  19  21
ATOM     21  S   UNL     1       4.956   4.452  18.507  0.00  0.00    +0.000 S 
ATOM     22  O   UNL     1       4.945   4.965  17.149  0.00  0.00    +0.000 OA
ATOM     23  O   UNL     1       6.138   4.486  19.334  0.00  0.00    +0.000 OA
BRANCH  21  24
ATOM     24  N   UNL     1       4.504   2.846  18.405  0.00  0.00    +0.000 NA
ATOM     25  H   UNL     1       4.527   2.403  19.329  0.00  0.00    +0.000 HD
ATOM     26  H   UNL     1       3.623   2.741  17.904  0.00  0.00    +0.000 HD
ENDBRANCH  21  24
ENDBRANCH  19  21
ENDBRANCH   6  15
TORSDOF 4
ENDMDL
MODEL 6
REMARK VINA RESULT:      -7.2      1.099      1.165
REMARK  Name = 
REMARK  5 active torsions:
REMARK  status: ('A' for Active; 'I' for Inactive)
REMARK    1  A    between atoms: C_1  and  C_2
REMARK    2  A    between atoms: C_5  and  C_6
REMARK    3  A    between atoms: C_11  and  C_12
REMARK    4  A    between atoms: C_16  and  S_17
REMARK    5  A    between atoms: S_17  and  N_18
REMARK                            x       y       z     vdW  Elec       q    Type
REMARK                         _______ _______ _______ _____ _____    ______ ____
ROOT
ATOM      1  C   UNL     1       8.307   8.529  18.412  0.00  0.00    +0.000 C 
ATOM      2  N   UNL     1       8.515   7.383  18.985  0.00  0.00    +0.000 NA
ATOM      3  C   UNL     1       7.700   6.384  18.489  0.00  0.00    +0.000 C 
ATOM      4  O   UNL     1       7.984   5.197  18.483  0.00  0.00    +0.000 OA
ATOM      5  C   UNL     1       6.471   6.954  17.812  0.00  0.00    +0.000 C 
ATOM      6  C   UNL     1       5.725   6.085  17.100  0.00  0.00    +0.000 C 
ATOM      7  S   UNL     1       7.025   8.506  17.208  0.00  0.00    +0.000 S 
ENDROOT
BRANCH   1  12
ATOM      8  C   UNL     1      11.329  13.378  19.662  0.00  0.00    +0.000 C 
ATOM      9  C   UNL     1      10.521  12.149  19.345  0.00  0.00    +0.000 A 
ATOM     10  C   UNL     1      10.323  11.738  18.022  0.00  0.00    +0.000 A 
ATOM     11  C   UNL     1       9.581  10.566  17.745  0.00  0.00    +0.000 A 
ATOM     12  C   UNL     1       9.038   9.784  18.780  0.00  0.00    +0.000 A 
ATOM     13  C   UNL     1       9.219  10.221  20.096  0.00  0.00    +0.000 A 
ATOM     14  C   UNL     1       9.950  11.393  20.372  0.00  0.00    +0.000 A 
ENDBRANCH   1  12
BRANCH   6  15
ATOM     15  C   UNL     1       4.656   5.171  17.603  0.00  0.00    +0.000 A 
ATOM     16  C   UNL     1       4.286   4.066  16.809  0.00  0.00    +0.000 A 
ATOM     17  C   UNL     1       3.223   3.213  17.151  0.00  0.00    +0.000 A 
ATOM     18  C   UNL     1       2.499   3.445  18.312  0.00  0.00    +0.000 A 
ATOM     19  C   UNL     1       2.856   4.533  19.122  0.00  0.00    +0.000 A 
ATOM     20  C   UNL     1       3.904   5.400  18.763  0.00  0.00    +0.000 A 
BRANCH  19  21
ATOM     21  S   UNL     1       1.946   4.777  20.618  0.00  0.00    +0.000 S 
ATOM     22  O   UNL     1       2.617   4.077  21.699  0.00  0.00    +0.000 OA
ATOM     23  O   UNL     1       1.549   6.160  20.726  0.00  0.00    +0.000 OA
BRANCH  21  24
ATOM     24  N   UNL     1       0.552   3.914  20.294  0.00  0.00    +0.000 NA
ATOM     25  H   UNL     1       0.477   3.101  20.913  0.00  0.00    +0.000 HD
ATOM     26  H   UNL     1      -0.266   4.523  20.288  0.00  0.00    +0.000 HD
ENDBRANCH  21  24
ENDBRANCH  19  21
ENDBRANCH   6  15
TORSDOF 4
ENDMDL
MODEL 7
REMARK VINA RESULT:      -7.2      6.020      7.597
REMARK  Name = 
REMARK  5 active torsions:
REMARK  status: ('A' for Active; 'I' for Inactive)
REMARK    1  A    between atoms: C_1  and  C_2
REMARK    2  A    between atoms: C_5  and  C_6
REMARK    3  A    between atoms: C_11  and  C_12
REMARK    4  A    between atoms: C_16  and  S_17
REMARK    5  A    between atoms: S_17  and  N_18
REMARK                            x       y       z     vdW  Elec       q    Type
REMARK                         _______ _______ _______ _____ _____    ______ ____
ROOT
ATOM      1  C   UNL     1       0.910   9.575  20.277  0.00  0.00    +0.000 C 
ATOM      2  N   UNL     1       1.422   9.763  19.099  0.00  0.00    +0.000 NA
ATOM      3  C   UNL     1       1.901   8.597  18.533  0.00  0.00    +0.000 C 
ATOM      4  O   UNL     1       1.982   8.390  17.334  0.00  0.00    +0.000 OA
ATOM      5  C   UNL     1       2.175   7.541  19.585  0.00  0.00    +0.000 C 
ATOM      6  C   UNL     1       2.429   6.297  19.130  0.00  0.00    +0.000 C 
ATOM      7  S   UNL     1       1.009   7.912  20.844  0.00  0.00    +0.000 S 
ENDROOT
BRANCH   1  12
ATOM      8  C   UNL     1      -1.527  13.745  23.575  0.00  0.00    +0.000 C 
ATOM      9  C   UNL     1      -0.869  12.675  22.745  0.00  0.00    +0.000 A 
ATOM     10  C   UNL     1      -1.124  11.320  22.984  0.00  0.00    +0.000 A 
ATOM     11  C   UNL     1      -0.516  10.329  22.178  0.00  0.00    +0.000 A 
ATOM     12  C   UNL     1       0.343  10.676  21.119  0.00  0.00    +0.000 A 
ATOM     13  C   UNL     1       0.611  12.032  20.910  0.00  0.00    +0.000 A 
ATOM     14  C   UNL     1       0.013  13.018  21.717  0.00  0.00    +0.000 A 
ENDBRANCH   1  12
BRANCH   6  15
ATOM     15  C   UNL     1       3.736   5.743  18.664  0.00  0.00    +0.000 A 
ATOM     16  C   UNL     1       4.640   5.250  19.626  0.00  0.00    +0.000 A 
ATOM     17  C   UNL     1       5.931   4.807  19.292  0.00  0.00    +0.000 A 
ATOM     18  C   UNL     1       6.351   4.842  17.969  0.00  0.00    +0.000 A 
ATOM     19  C   UNL     1       5.464   5.320  16.993  0.00  0.00    +0.000 A 
ATOM     20  C   UNL     1       4.182   5.788  17.336  0.00  0.00    +0.000 A 
BRANCH  19  21
ATOM     21  S   UNL     1       6.009   5.310  15.312  0.00  0.00    +0.000 S 
ATOM     22  O   UNL     1       7.434   5.583  15.275  0.00  0.00    +0.000 OA
ATOM     23  O   UNL     1       5.421   4.192  14.616  0.00  0.00    +0.000 OA
BRANCH  21  24
ATOM     24  N   UNL     1       5.254   6.678  14.719  0.00  0.00    +0.000 NA
ATOM     25  H   UNL     1       4.710   7.140  15.455  0.00  0.00    +0.000 HD
ATOM     26  H   UNL     1       5.915   7.284  14.233  0.00  0.00    +0.000 HD
ENDBRANCH  21  24
ENDBRANCH  19  21
ENDBRANCH   6  15
TORSDOF 4
ENDMDL
MODEL 8
REMARK VINA RESULT:      -7.2      5.844      7.669
REMARK  Name = 
REMARK  5 active torsions:
REMARK  status: ('A' for Active; 'I' for Inactive)
REMARK    1  A    between atoms: C_1  and  C_2
REMARK    2  A    between atoms: C_5  and  C_6
REMARK    3  A    between atoms: C_11  and  C_12
REMARK    4  A    between atoms: C_16  and  S_17
REMARK    5  A    between atoms: S_17  and  N_18
REMARK                            x       y       z     vdW  Elec       q    Type
REMARK                         _______ _______ _______ _____ _____    ______ ____
ROOT
ATOM      1  C   UNL     1       0.998   9.182  20.180  0.00  0.00    +0.000 C 
ATOM      2  N   UNL     1       1.525   9.474  19.030  0.00  0.00    +0.000 NA
ATOM      3  C   UNL     1       2.112   8.382  18.420  0.00  0.00    +0.000 C 
ATOM      4  O   UNL     1       2.241   8.248  17.214  0.00  0.00    +0.000 OA
ATOM      5  C   UNL     1       2.443   7.297  19.424  0.00  0.00    +0.000 C 
ATOM      6  C   UNL     1       2.811   6.104  18.912  0.00  0.00    +0.000 C 
ATOM      7  S   UNL     1       1.218   7.504  20.664  0.00  0.00    +0.000 S 
ENDROOT
BRANCH   1  12
ATOM      8  C   UNL     1      -1.837  12.936  23.655  0.00  0.00    +0.000 C 
ATOM      9  C   UNL     1      -1.076  11.980  22.776  0.00  0.00    +0.000 A 
ATOM     10  C   UNL     1      -1.038  10.611  23.065  0.00  0.00    +0.000 A 
ATOM     11  C   UNL     1      -0.339   9.724  22.214  0.00  0.00    +0.000 A 
ATOM     12  C   UNL     1       0.321  10.186  21.061  0.00  0.00    +0.000 A 
ATOM     13  C   UNL     1       0.300  11.560  20.800  0.00  0.00    +0.000 A 
ATOM     14  C   UNL     1      -0.389  12.445  21.652  0.00  0.00    +0.000 A 
ENDBRANCH   1  12
BRANCH   6  15
ATOM     15  C   UNL     1       4.170   5.683  18.458  0.00  0.00    +0.000 A 
ATOM     16  C   UNL     1       5.162   5.449  19.432  0.00  0.00    +0.000 A 
ATOM     17  C   UNL     1       6.494   5.150  19.095  0.00  0.00    +0.000 A 
ATOM     18  C   UNL     1       6.868   5.074  17.760  0.00  0.00    +0.000 A 
ATOM     19  C   UNL     1       5.894   5.293  16.775  0.00  0.00    +0.000 A 
ATOM     20  C   UNL     1       4.567   5.618  17.116  0.00  0.00    +0.000 A 
BRANCH  19  21
ATOM     21  S   UNL     1       6.387   5.144  15.084  0.00  0.00    +0.000 S 
ATOM     22  O   UNL     1       5.431   5.849  14.249  0.00  0.00    +0.000 OA
ATOM     23  O   UNL     1       7.810   5.354  14.972  0.00  0.00    +0.000 OA
BRANCH  21  24
ATOM     24  N   UNL     1       6.133   3.514  14.815  0.00  0.00    +0.000 NA
ATOM     25  H   UNL     1       6.400   2.965  15.638  0.00  0.00    +0.000 HD
ATOM     26  H   UNL     1       5.188   3.339  14.474  0.00  0.00    +0.000 HD
ENDBRANCH  21  24
ENDBRANCH  19  21
ENDBRANCH   6  15
TORSDOF 4
ENDMDL
MODEL 9
REMARK VINA RESULT:      -7.2      7.588      8.890
REMARK  Name = 
REMARK  5 active torsions:
REMARK  status: ('A' for Active; 'I' for Inactive)
REMARK    1  A    between atoms: C_1  and  C_2
REMARK    2  A    between atoms: C_5  and  C_6
REMARK    3  A    between atoms: C_11  and  C_12
REMARK    4  A    between atoms: C_16  and  S_17
REMARK    5  A    between atoms: S_17  and  N_18
REMARK                            x       y       z     vdW  Elec       q    Type
REMARK                         _______ _______ _______ _____ _____    ______ ____
ROOT
ATOM      1  C   UNL     1      -0.683  10.913  21.789  0.00  0.00    +0.000 C 
ATOM      2  N   UNL     1       0.049  10.296  22.667  0.00  0.00    +0.000 NA
ATOM      3  C   UNL     1       1.033   9.517  22.088  0.00  0.00    +0.000 C 
ATOM      4  O   UNL     1       2.094   9.235  22.619  0.00  0.00    +0.000 OA
ATOM      5  C   UNL     1       0.698   9.177  20.651  0.00  0.00    +0.000 C 
ATOM      6  C   UNL     1       1.686   8.614  19.925  0.00  0.00    +0.000 C 
ATOM      7  S   UNL     1      -0.256  10.552  20.120  0.00  0.00    +0.000 S 
ENDROOT
BRANCH   1  12
ATOM      8  C   UNL     1      -5.071  14.569  23.046  0.00  0.00    +0.000 C 
ATOM      9  C   UNL     1      -3.966  13.601  22.719  0.00  0.00    +0.000 A 
ATOM     10  C   UNL     1      -3.389  13.570  21.444  0.00  0.00    +0.000 A 
ATOM     11  C   UNL     1      -2.335  12.671  21.161  0.00  0.00    +0.000 A 
ATOM     12  C   UNL     1      -1.834  11.801  22.146  0.00  0.00    +0.000 A 
ATOM     13  C   UNL     1      -2.438  11.822  23.407  0.00  0.00    +0.000 A 
ATOM     14  C   UNL     1      -3.494  12.710  23.686  0.00  0.00    +0.000 A 
ENDBRANCH   1  12
BRANCH   6  15
ATOM     15  C   UNL     1       2.068   7.171  19.864  0.00  0.00    +0.000 A 
ATOM     16  C   UNL     1       1.460   6.275  20.766  0.00  0.00    +0.000 A 
ATOM     17  C   UNL     1       1.831   4.922  20.851  0.00  0.00    +0.000 A 
ATOM     18  C   UNL     1       2.828   4.427  20.022  0.00  0.00    +0.000 A 
ATOM     19  C   UNL     1       3.440   5.299  19.109  0.00  0.00    +0.000 A 
ATOM     20  C   UNL     1       3.084   6.659  19.045  0.00  0.00    +0.000 A 
BRANCH  19  21
ATOM     21  S   UNL     1       4.674   4.631  18.034  0.00  0.00    +0.000 S 
ATOM     22  O   UNL     1       4.038   3.737  17.083  0.00  0.00    +0.000 OA
ATOM     23  O   UNL     1       5.579   5.676  17.623  0.00  0.00    +0.000 OA
BRANCH  21  24
ATOM     24  N   UNL     1       5.532   3.660  19.090  0.00  0.00    +0.000 NA
ATOM     25  H   UNL     1       6.500   3.546  18.773  0.00  0.00    +0.000 HD
ATOM     26  H   UNL     1       5.433   3.983  20.052  0.00  0.00    +0.000 HD
ENDBRANCH  21  24
ENDBRANCH  19  21
ENDBRANCH   6  15
TORSDOF 4
ENDMDL
