MODEL 1
REMARK VINA RESULT:      -7.8      0.000      0.000
REMARK  Name = 
REMARK  4 active torsions:
REMARK  status: ('A' for Active; 'I' for Inactive)
REMARK    1  A    between atoms: C_1  and  C_2
REMARK    2  A    between atoms: C_4  and  O_5
REMARK    3  A    between atoms: C_7  and  S_8
REMARK    4  A    between atoms: S_8  and  C_9
REMARK                            x       y       z     vdW  Elec       q    Type
REMARK                         _______ _______ _______ _____ _____    ______ ____
ROOT
ATOM      1  C   UNL     1       1.104   2.755  20.523  0.00  0.00    +0.000 C 
ATOM      2  C   UNL     1       2.208   3.512  19.853  0.00  0.00    +0.000 A 
ATOM      3  N   UNL     1       3.429   2.968  19.843  0.00  0.00    +0.000 NA
ATOM      4  C   UNL     1       4.379   3.695  19.232  0.00  0.00    +0.000 A 
ATOM      5  C   UNL     1       4.207   4.940  18.625  0.00  0.00    +0.000 A 
ATOM      6  C   UNL     1       5.179   5.741  17.941  0.00  0.00    +0.000 A 
ATOM      7  C   UNL     1       4.804   6.993  17.429  0.00  0.00    +0.000 A 
ATOM      8  C   UNL     1       3.498   7.446  17.570  0.00  0.00    +0.000 A 
ATOM      9  C   UNL     1       2.556   6.641  18.204  0.00  0.00    +0.000 A 
ATOM     10  C   UNL     1       2.885   5.401  18.730  0.00  0.00    +0.000 A 
ATOM     11  N   UNL     1       1.902   4.705  19.319  0.00  0.00    +0.000 NA
ENDROOT
BRANCH   4  12
ATOM     12  O   UNL     1       5.582   3.073  19.312  0.00  0.00    +0.000 OA
ATOM     13  H   UNL     1       5.971   3.554  20.064  0.00  0.00    +0.000 HD
ENDBRANCH   4  12
BRANCH   6  14
ATOM     14  S   UNL     1       6.847   5.190  17.548  0.00  0.00    +0.000 S 
BRANCH  14  15
ATOM     15  C   UNL     1       6.727   4.768  15.820  0.00  0.00    +0.000 A 
ATOM     16  C   UNL     1       5.678   3.958  15.385  0.00  0.00    +0.000 A 
ATOM     17  C   UNL     1       5.568   3.669  14.026  0.00  0.00    +0.000 A 
ATOM     18  C   UNL     1       6.495   4.205  13.142  0.00  0.00    +0.000 A 
ATOM     19  C   UNL     1       7.492   5.015  13.657  0.00  0.00    +0.000 A 
ATOM     20  N   UNL     1       7.628   5.309  14.969  0.00  0.00    +0.000 NA
ENDBRANCH  14  15
ENDBRANCH   6  14
TORSDOF 3
ENDMDL
MODEL 2
REMARK VINA RESULT:      -7.1      2.646      3.989
REMARK  Name = 
REMARK  4 active torsions:
REMARK  status: ('A' for Active; 'I' for Inactive)
REMARK    1  A    between atoms: C_1  and  C_2
REMARK    2  A    between atoms: C_4  and  O_5
REMARK    3  A    between atoms: C_7  and  S_8
REMARK    4  A    between atoms: S_8  and  C_9
REMARK                            x       y       z     vdW  Elec       q    Type
REMARK                         _______ _______ _______ _____ _____    ______ ____
ROOT
ATOM      1  C   UNL     1       0.885   8.149  21.245  0.00  0.00    +0.000 C 
ATOM      2  C   UNL     1       1.655   7.221  20.359  0.00  0.00    +0.000 A 
ATOM      3  N   UNL     1       2.238   7.730  19.269  0.00  0.00    +0.000 NA
ATOM      4  C   UNL     1       2.911   6.848  18.511  0.00  0.00    +0.000 A 
ATOM      5  C   UNL     1       3.048   5.480  18.755  0.00  0.00    +0.000 A 
ATOM      6  C   UNL     1       3.773   4.507  17.993  0.00  0.00    +0.000 A 
ATOM      7  C   UNL     1       3.752   3.162  18.395  0.00  0.00    +0.000 A 
ATOM      8  C   UNL     1       3.048   2.780  19.530  0.00  0.00    +0.000 A 
ATOM      9  C   UNL     1       2.379   3.743  20.280  0.00  0.00    +0.000 A 
ATOM     10  C   UNL     1       2.368   5.080  19.915  0.00  0.00    +0.000 A 
ATOM     11  N   UNL     1       1.695   5.926  20.709  0.00  0.00    +0.000 NA
ENDROOT
BRANCH   4  12
ATOM     12  O   UNL     1       3.429   7.458  17.415  0.00  0.00    +0.000 OA
ATOM     13  H   UNL     1       3.167   6.820  16.728  0.00  0.00    +0.000 HD
ENDBRANCH   4  12
BRANCH   6  14
ATOM     14  S   UNL     1       4.855   4.905  16.612  0.00  0.00    +0.000 S 
BRANCH  14  15
ATOM     15  C   UNL     1       6.158   5.843  17.388  0.00  0.00    +0.000 A 
ATOM     16  C   UNL     1       6.857   5.286  18.458  0.00  0.00    +0.000 A 
ATOM     17  C   UNL     1       7.903   6.009  19.031  0.00  0.00    +0.000 A 
ATOM     18  C   UNL     1       8.228   7.254  18.512  0.00  0.00    +0.000 A 
ATOM     19  C   UNL     1       7.495   7.723  17.435  0.00  0.00    +0.000 A 
ATOM     20  N   UNL     1       6.474   7.049  16.863  0.00  0.00    +0.000 NA
ENDBRANCH  14  15
ENDBRANCH   6  14
TORSDOF 3
ENDMDL
MODEL 3
REMARK VINA RESULT:      -7.0      2.264      5.818
REMARK  Name = 
REMARK  4 active torsions:
REMARK  status: ('A' for Active; 'I' for Inactive)
REMARK    1  A    between atoms: C_1  and  C_2
REMARK    2  A    between atoms: C_4  and  O_5
REMARK    3  A    between atoms: C_7  and  S_8
REMARK    4  A    between atoms: S_8  and  C_9
REMARK                            x       y       z     vdW  Elec       q    Type
REMARK                         _______ _______ _______ _____ _____    ______ ____
ROOT
ATOM      1  C   UNL     1       8.505   8.878  17.761  0.00  0.00    +0.000 C 
ATOM      2  C   UNL     1       7.689   7.624  17.814  0.00  0.00    +0.000 A 
ATOM      3  N   UNL     1       7.722   6.899  18.936  0.00  0.00    +0.000 NA
ATOM      4  C   UNL     1       6.974   5.783  18.923  0.00  0.00    +0.000 A 
ATOM      5  C   UNL     1       6.187   5.325  17.864  0.00  0.00    +0.000 A 
ATOM      6  C   UNL     1       5.355   4.160  17.810  0.00  0.00    +0.000 A 
ATOM      7  C   UNL     1       4.668   3.857  16.624  0.00  0.00    +0.000 A 
ATOM      8  C   UNL     1       4.781   4.689  15.517  0.00  0.00    +0.000 A 
ATOM      9  C   UNL     1       5.564   5.837  15.596  0.00  0.00    +0.000 A 
ATOM     10  C   UNL     1       6.264   6.169  16.745  0.00  0.00    +0.000 A 
ATOM     11  N   UNL     1       6.987   7.299  16.717  0.00  0.00    +0.000 NA
ENDROOT
BRANCH   4  12
ATOM     12  O   UNL     1       7.109   5.103  20.089  0.00  0.00    +0.000 OA
ATOM     13  H   UNL     1       6.681   5.730  20.700  0.00  0.00    +0.000 HD
ENDBRANCH   4  12
BRANCH   6  14
ATOM     14  S   UNL     1       4.996   3.107  19.225  0.00  0.00    +0.000 S 
BRANCH  14  15
ATOM     15  C   UNL     1       3.331   3.579  19.657  0.00  0.00    +0.000 A 
ATOM     16  C   UNL     1       2.294   2.664  19.480  0.00  0.00    +0.000 A 
ATOM     17  C   UNL     1       1.003   3.026  19.861  0.00  0.00    +0.000 A 
ATOM     18  C   UNL     1       0.787   4.280  20.416  0.00  0.00    +0.000 A 
ATOM     19  C   UNL     1       1.878   5.119  20.573  0.00  0.00    +0.000 A 
ATOM     20  N   UNL     1       3.139   4.798  20.210  0.00  0.00    +0.000 NA
ENDBRANCH  14  15
ENDBRANCH   6  14
TORSDOF 3
ENDMDL
MODEL 4
REMARK VINA RESULT:      -6.9      2.267      5.873
REMARK  Name = 
REMARK  4 active torsions:
REMARK  status: ('A' for Active; 'I' for Inactive)
REMARK    1  A    between atoms: C_1  and  C_2
REMARK    2  A    between atoms: C_4  and  O_5
REMARK    3  A    between atoms: C_7  and  S_8
REMARK    4  A    between atoms: S_8  and  C_9
REMARK                            x       y       z     vdW  Elec       q    Type
REMARK                         _______ _______ _______ _____ _____    ______ ____
ROOT
ATOM      1  C   UNL     1       8.491   8.853  17.711  0.00  0.00    +0.000 C 
ATOM      2  C   UNL     1       7.682   7.597  17.799  0.00  0.00    +0.000 A 
ATOM      3  N   UNL     1       7.760   6.876  18.922  0.00  0.00    +0.000 NA
ATOM      4  C   UNL     1       7.015   5.758  18.941  0.00  0.00    +0.000 A 
ATOM      5  C   UNL     1       6.190   5.294  17.915  0.00  0.00    +0.000 A 
ATOM      6  C   UNL     1       5.360   4.126  17.897  0.00  0.00    +0.000 A 
ATOM      7  C   UNL     1       4.630   3.817  16.738  0.00  0.00    +0.000 A 
ATOM      8  C   UNL     1       4.698   4.645  15.624  0.00  0.00    +0.000 A 
ATOM      9  C   UNL     1       5.479   5.796  15.671  0.00  0.00    +0.000 A 
ATOM     10  C   UNL     1       6.222   6.134  16.791  0.00  0.00    +0.000 A 
ATOM     11  N   UNL     1       6.939   7.266  16.732  0.00  0.00    +0.000 NA
ENDROOT
BRANCH   4  12
ATOM     12  O   UNL     1       7.196   5.083  20.104  0.00  0.00    +0.000 OA
ATOM     13  H   UNL     1       6.952   4.185  19.818  0.00  0.00    +0.000 HD
ENDBRANCH   4  12
BRANCH   6  14
ATOM     14  S   UNL     1       5.058   3.077  19.328  0.00  0.00    +0.000 S 
BRANCH  14  15
ATOM     15  C   UNL     1       3.363   3.447  19.739  0.00  0.00    +0.000 A 
ATOM     16  C   UNL     1       3.042   4.704  20.250  0.00  0.00    +0.000 A 
ATOM     17  C   UNL     1       1.708   4.999  20.527  0.00  0.00    +0.000 A 
ATOM     18  C   UNL     1       0.736   4.041  20.275  0.00  0.00    +0.000 A 
ATOM     19  C   UNL     1       1.141   2.826  19.748  0.00  0.00    +0.000 A 
ATOM     20  N   UNL     1       2.425   2.509  19.474  0.00  0.00    +0.000 NA
ENDBRANCH  14  15
ENDBRANCH   6  14
TORSDOF 3
ENDMDL
MODEL 5
REMARK VINA RESULT:      -6.9      2.769      4.216
REMARK  Name = 
REMARK  4 active torsions:
REMARK  status: ('A' for Active; 'I' for Inactive)
REMARK    1  A    between atoms: C_1  and  C_2
REMARK    2  A    between atoms: C_4  and  O_5
REMARK    3  A    between atoms: C_7  and  S_8
REMARK    4  A    between atoms: S_8  and  C_9
REMARK                            x       y       z     vdW  Elec       q    Type
REMARK                         _______ _______ _______ _____ _____    ______ ____
ROOT
ATOM      1  C   UNL     1       0.871   8.753  21.207  0.00  0.00    +0.000 C 
ATOM      2  C   UNL     1       1.560   7.640  20.481  0.00  0.00    +0.000 A 
ATOM      3  N   UNL     1       2.127   7.913  19.301  0.00  0.00    +0.000 NA
ATOM      4  C   UNL     1       2.726   6.874  18.696  0.00  0.00    +0.000 A 
ATOM      5  C   UNL     1       2.804   5.566  19.178  0.00  0.00    +0.000 A 
ATOM      6  C   UNL     1       3.451   4.434  18.584  0.00  0.00    +0.000 A 
ATOM      7  C   UNL     1       3.379   3.186  19.222  0.00  0.00    +0.000 A 
ATOM      8  C   UNL     1       2.700   3.052  20.426  0.00  0.00    +0.000 A 
ATOM      9  C   UNL     1       2.108   4.169  21.010  0.00  0.00    +0.000 A 
ATOM     10  C   UNL     1       2.149   5.418  20.410  0.00  0.00    +0.000 A 
ATOM     11  N   UNL     1       1.549   6.428  21.057  0.00  0.00    +0.000 NA
ENDROOT
BRANCH   4  12
ATOM     12  O   UNL     1       3.232   7.249  17.494  0.00  0.00    +0.000 OA
ATOM     13  H   UNL     1       3.771   6.466  17.286  0.00  0.00    +0.000 HD
ENDBRANCH   4  12
BRANCH   6  14
ATOM     14  S   UNL     1       4.499   4.519  17.123  0.00  0.00    +0.000 S 
BRANCH  14  15
ATOM     15  C   UNL     1       5.942   5.380  17.721  0.00  0.00    +0.000 A 
ATOM     16  C   UNL     1       6.396   6.508  17.040  0.00  0.00    +0.000 A 
ATOM     17  C   UNL     1       7.498   7.199  17.539  0.00  0.00    +0.000 A 
ATOM     18  C   UNL     1       8.104   6.755  18.707  0.00  0.00    +0.000 A 
ATOM     19  C   UNL     1       7.575   5.637  19.329  0.00  0.00    +0.000 A 
ATOM     20  N   UNL     1       6.512   4.944  18.867  0.00  0.00    +0.000 NA
ENDBRANCH  14  15
ENDBRANCH   6  14
TORSDOF 3
ENDMDL
MODEL 6
REMARK VINA RESULT:      -6.9      0.669      1.112
REMARK  Name = 
REMARK  4 active torsions:
REMARK  status: ('A' for Active; 'I' for Inactive)
REMARK    1  A    between atoms: C_1  and  C_2
REMARK    2  A    between atoms: C_4  and  O_5
REMARK    3  A    between atoms: C_7  and  S_8
REMARK    4  A    between atoms: S_8  and  C_9
REMARK                            x       y       z     vdW  Elec       q    Type
REMARK                         _______ _______ _______ _____ _____    ______ ____
ROOT
ATOM      1  C   UNL     1       1.038   2.941  20.798  0.00  0.00    +0.000 C 
ATOM      2  C   UNL     1       2.141   3.621  20.049  0.00  0.00    +0.000 A 
ATOM      3  N   UNL     1       3.335   3.021  20.005  0.00  0.00    +0.000 NA
ATOM      4  C   UNL     1       4.286   3.679  19.322  0.00  0.00    +0.000 A 
ATOM      5  C   UNL     1       4.141   4.907  18.673  0.00  0.00    +0.000 A 
ATOM      6  C   UNL     1       5.113   5.634  17.913  0.00  0.00    +0.000 A 
ATOM      7  C   UNL     1       4.770   6.882  17.368  0.00  0.00    +0.000 A 
ATOM      8  C   UNL     1       3.493   7.399  17.550  0.00  0.00    +0.000 A 
ATOM      9  C   UNL     1       2.548   6.663  18.259  0.00  0.00    +0.000 A 
ATOM     10  C   UNL     1       2.847   5.431  18.820  0.00  0.00    +0.000 A 
ATOM     11  N   UNL     1       1.863   4.804  19.481  0.00  0.00    +0.000 NA
ENDROOT
BRANCH   4  12
ATOM     12  O   UNL     1       5.463   3.006  19.373  0.00  0.00    +0.000 OA
ATOM     13  H   UNL     1       6.075   3.717  19.114  0.00  0.00    +0.000 HD
ENDBRANCH   4  12
BRANCH   6  14
ATOM     14  S   UNL     1       6.735   4.993  17.468  0.00  0.00    +0.000 S 
BRANCH  14  15
ATOM     15  C   UNL     1       6.565   4.666  15.723  0.00  0.00    +0.000 A 
ATOM     16  C   UNL     1       7.511   5.177  14.836  0.00  0.00    +0.000 A 
ATOM     17  C   UNL     1       7.395   4.879  13.480  0.00  0.00    +0.000 A 
ATOM     18  C   UNL     1       6.348   4.073  13.051  0.00  0.00    +0.000 A 
ATOM     19  C   UNL     1       5.465   3.593  14.002  0.00  0.00    +0.000 A 
ATOM     20  N   UNL     1       5.549   3.868  15.322  0.00  0.00    +0.000 NA
ENDBRANCH  14  15
ENDBRANCH   6  14
TORSDOF 3
ENDMDL
MODEL 7
REMARK VINA RESULT:      -6.8      1.792      3.121
REMARK  Name = 
REMARK  4 active torsions:
REMARK  status: ('A' for Active; 'I' for Inactive)
REMARK    1  A    between atoms: C_1  and  C_2
REMARK    2  A    between atoms: C_4  and  O_5
REMARK    3  A    between atoms: C_7  and  S_8
REMARK    4  A    between atoms: S_8  and  C_9
REMARK                            x       y       z     vdW  Elec       q    Type
REMARK                         _______ _______ _______ _____ _____    ______ ____
ROOT
ATOM      1  C   UNL     1       1.592   8.923  17.939  0.00  0.00    +0.000 C 
ATOM      2  C   UNL     1       2.618   7.835  18.008  0.00  0.00    +0.000 A 
ATOM      3  N   UNL     1       3.747   7.989  17.310  0.00  0.00    +0.000 NA
ATOM      4  C   UNL     1       4.627   6.980  17.408  0.00  0.00    +0.000 A 
ATOM      5  C   UNL     1       4.468   5.811  18.155  0.00  0.00    +0.000 A 
ATOM      6  C   UNL     1       5.385   4.721  18.312  0.00  0.00    +0.000 A 
ATOM      7  C   UNL     1       5.011   3.611  19.086  0.00  0.00    +0.000 A 
ATOM      8  C   UNL     1       3.769   3.577  19.709  0.00  0.00    +0.000 A 
ATOM      9  C   UNL     1       2.905   4.660  19.578  0.00  0.00    +0.000 A 
ATOM     10  C   UNL     1       3.231   5.771  18.817  0.00  0.00    +0.000 A 
ATOM     11  N   UNL     1       2.328   6.761  18.759  0.00  0.00    +0.000 NA
ENDROOT
BRANCH   4  12
ATOM     12  O   UNL     1       5.716   7.218  16.634  0.00  0.00    +0.000 OA
ATOM     13  H   UNL     1       6.119   7.951  17.131  0.00  0.00    +0.000 HD
ENDBRANCH   4  12
BRANCH   6  14
ATOM     14  S   UNL     1       7.077   4.726  17.699  0.00  0.00    +0.000 S 
BRANCH  14  15
ATOM     15  C   UNL     1       6.861   4.516  15.941  0.00  0.00    +0.000 A 
ATOM     16  C   UNL     1       5.849   3.681  15.472  0.00  0.00    +0.000 A 
ATOM     17  C   UNL     1       5.660   3.557  14.097  0.00  0.00    +0.000 A 
ATOM     18  C   UNL     1       6.474   4.277  13.233  0.00  0.00    +0.000 A 
ATOM     19  C   UNL     1       7.443   5.098  13.786  0.00  0.00    +0.000 A 
ATOM     20  N   UNL     1       7.653   5.235  15.113  0.00  0.00    +0.000 NA
ENDBRANCH  14  15
ENDBRANCH   6  14
TORSDOF 3
ENDMDL
MODEL 8
REMARK VINA RESULT:      -6.7      2.034      3.181
REMARK  Name = 
REMARK  4 active torsions:
REMARK  status: ('A' for Active; 'I' for Inactive)
REMARK    1  A    between atoms: C_1  and  C_2
REMARK    2  A    between atoms: C_4  and  O_5
REMARK    3  A    between atoms: C_7  and  S_8
REMARK    4  A    between atoms: S_8  and  C_9
REMARK                            x       y       z     vdW  Elec       q    Type
REMARK                         _______ _______ _______ _____ _____    ______ ____
ROOT
ATOM      1  C   UNL     1       1.720   8.810  18.320  0.00  0.00    +0.000 C 
ATOM      2  C   UNL     1       2.658   7.696  17.972  0.00  0.00    +0.000 A 
ATOM      3  N   UNL     1       3.890   8.016  17.562  0.00  0.00    +0.000 NA
ATOM      4  C   UNL     1       4.684   6.975  17.261  0.00  0.00    +0.000 A 
ATOM      5  C   UNL     1       4.343   5.623  17.335  0.00  0.00    +0.000 A 
ATOM      6  C   UNL     1       5.159   4.480  17.050  0.00  0.00    +0.000 A 
ATOM      7  C   UNL     1       4.605   3.195  17.152  0.00  0.00    +0.000 A 
ATOM      8  C   UNL     1       3.282   3.030  17.542  0.00  0.00    +0.000 A 
ATOM      9  C   UNL     1       2.513   4.148  17.851  0.00  0.00    +0.000 A 
ATOM     10  C   UNL     1       3.017   5.435  17.756  0.00  0.00    +0.000 A 
ATOM     11  N   UNL     1       2.193   6.443  18.080  0.00  0.00    +0.000 NA
ENDROOT
BRANCH   4  12
ATOM     12  O   UNL     1       5.892   7.408  16.820  0.00  0.00    +0.000 OA
ATOM     13  H   UNL     1       6.063   8.117  17.465  0.00  0.00    +0.000 HD
ENDBRANCH   4  12
BRANCH   6  14
ATOM     14  S   UNL     1       6.924   4.559  16.705  0.00  0.00    +0.000 S 
BRANCH  14  15
ATOM     15  C   UNL     1       6.981   4.501  14.924  0.00  0.00    +0.000 A 
ATOM     16  C   UNL     1       6.098   3.669  14.238  0.00  0.00    +0.000 A 
ATOM     17  C   UNL     1       6.120   3.663  12.844  0.00  0.00    +0.000 A 
ATOM     18  C   UNL     1       7.010   4.495  12.178  0.00  0.00    +0.000 A 
ATOM     19  C   UNL     1       7.839   5.303  12.938  0.00  0.00    +0.000 A 
ATOM     20  N   UNL     1       7.844   5.327  14.288  0.00  0.00    +0.000 NA
ENDBRANCH  14  15
ENDBRANCH   6  14
TORSDOF 3
ENDMDL
MODEL 9
REMARK VINA RESULT:      -6.7      5.649      8.388
REMARK  Name = 
REMARK  4 active torsions:
REMARK  status: ('A' for Active; 'I' for Inactive)
REMARK    1  A    between atoms: C_1  and  C_2
REMARK    2  A    between atoms: C_4  and  O_5
REMARK    3  A    between atoms: C_7  and  S_8
REMARK    4  A    between atoms: S_8  and  C_9
REMARK                            x       y       z     vdW  Elec       q    Type
REMARK                         _______ _______ _______ _____ _____    ______ ____
ROOT
ATOM      1  C   UNL     1       3.805   6.177  17.676  0.00  0.00    +0.000 C 
ATOM      2  C   UNL     1       2.956   7.274  18.239  0.00  0.00    +0.000 A 
ATOM      3  N   UNL     1       2.822   8.397  17.526  0.00  0.00    +0.000 NA
ATOM      4  C   UNL     1       2.053   9.345  18.084  0.00  0.00    +0.000 A 
ATOM      5  C   UNL     1       1.398   9.264  19.315  0.00  0.00    +0.000 A 
ATOM      6  C   UNL     1       0.549  10.235  19.940  0.00  0.00    +0.000 A 
ATOM      7  C   UNL     1       0.015   9.968  21.210  0.00  0.00    +0.000 A 
ATOM      8  C   UNL     1       0.294   8.767  21.850  0.00  0.00    +0.000 A 
ATOM      9  C   UNL     1       1.090   7.818  21.214  0.00  0.00    +0.000 A 
ATOM     10  C   UNL     1       1.644   8.044  19.964  0.00  0.00    +0.000 A 
ATOM     11  N   UNL     1       2.394   7.063  19.440  0.00  0.00    +0.000 NA
ENDROOT
BRANCH   4  12
ATOM     12  O   UNL     1       2.016  10.453  17.301  0.00  0.00    +0.000 OA
ATOM     13  H   UNL     1       1.056  10.615  17.283  0.00  0.00    +0.000 HD
ENDBRANCH   4  12
BRANCH   6  14
ATOM     14  S   UNL     1      -0.020  11.744  19.141  0.00  0.00    +0.000 S 
BRANCH  14  15
ATOM     15  C   UNL     1      -1.628  11.282  18.524  0.00  0.00    +0.000 A 
ATOM     16  C   UNL     1      -1.749  10.165  17.699  0.00  0.00    +0.000 A 
ATOM     17  C   UNL     1      -3.015   9.786  17.257  0.00  0.00    +0.000 A 
ATOM     18  C   UNL     1      -4.121  10.523  17.660  0.00  0.00    +0.000 A 
ATOM     19  C   UNL     1      -3.912  11.607  18.495  0.00  0.00    +0.000 A 
ATOM     20  N   UNL     1      -2.697  12.001  18.936  0.00  0.00    +0.000 NA
ENDBRANCH  14  15
ENDBRANCH   6  14
TORSDOF 3
ENDMDL
