MODEL 1
REMARK VINA RESULT:      -9.0      0.000      0.000
REMARK  Name = 
REMARK  5 active torsions:
REMARK  status: ('A' for Active; 'I' for Inactive)
REMARK    1  A    between atoms: C_1  and  C_2
REMARK    2  A    between atoms: C_8  and  C_9
REMARK    3  A    between atoms: C_12  and  C_13
REMARK    4  A    between atoms: C_13  and  N_14
REMARK    5  A    between atoms: C_20  and  C_21
REMARK                            x       y       z     vdW  Elec       q    Type
REMARK                         _______ _______ _______ _____ _____    ______ ____
ROOT
ATOM      1  C   UNL     1       4.466   2.637  17.565  0.00  0.00    +0.000 C 
ATOM      2  C   UNL     1       4.837   3.993  17.049  0.00  0.00    +0.000 A 
ATOM      3  C   UNL     1       5.855   4.058  16.165  0.00  0.00    +0.000 A 
ATOM      4  C   UNL     1       6.249   5.313  15.569  0.00  0.00    +0.000 A 
ATOM      5  C   UNL     1       5.590   6.443  15.858  0.00  0.00    +0.000 A 
ATOM      6  C   UNL     1       4.512   6.416  16.780  0.00  0.00    +0.000 A 
ATOM      7  N   UNL     1       3.767   7.420  17.161  0.00  0.00    +0.000 NA
ATOM      8  C   UNL     1       2.933   6.917  18.119  0.00  0.00    +0.000 A 
ATOM      9  C   UNL     1       3.113   5.537  18.304  0.00  0.00    +0.000 A 
ATOM     10  N   UNL     1       4.157   5.204  17.401  0.00  0.00    +0.000 N 
ENDROOT
BRANCH   8  11
ATOM     11  C   UNL     1       2.068   7.848  18.838  0.00  0.00    +0.000 A 
ATOM     12  C   UNL     1       1.526   8.948  18.157  0.00  0.00    +0.000 A 
ATOM     13  C   UNL     1       0.863   9.970  18.849  0.00  0.00    +0.000 A 
ATOM     14  C   UNL     1       0.719   9.937  20.245  0.00  0.00    +0.000 A 
ATOM     15  C   UNL     1       1.165   8.762  20.885  0.00  0.00    +0.000 A 
ATOM     16  C   UNL     1       1.859   7.758  20.211  0.00  0.00    +0.000 A 
BRANCH  14  17
ATOM     17  C   UNL     1       0.233  11.154  21.118  0.00  0.00    +0.000 C 
ATOM     18  C   UNL     1       1.037  12.477  20.940  0.00  0.00    +0.000 C 
ATOM     19  C   UNL     1      -0.184  13.091  20.243  0.00  0.00    +0.000 C 
ATOM     20  C   UNL     1      -1.054  11.966  20.824  0.00  0.00    +0.000 C 
BRANCH  17  21
ATOM     21  N   UNL     1       0.211  10.814  22.543  0.00  0.00    +0.000 NA
ATOM     22  H   UNL     1       1.122  10.538  22.906  0.00  0.00    +0.000 HD
ATOM     23  H   UNL     1      -0.410  10.034  22.756  0.00  0.00    +0.000 HD
ENDBRANCH  17  21
ENDBRANCH  14  17
ENDBRANCH   8  11
BRANCH   9  24
ATOM     24  C   UNL     1       2.392   4.623  19.217  0.00  0.00    +0.000 A 
ATOM     25  C   UNL     1       2.806   4.465  20.551  0.00  0.00    +0.000 A 
ATOM     26  C   UNL     1       2.161   3.571  21.414  0.00  0.00    +0.000 A 
ATOM     27  C   UNL     1       1.032   2.883  20.983  0.00  0.00    +0.000 A 
ATOM     28  C   UNL     1       0.614   3.016  19.663  0.00  0.00    +0.000 A 
ATOM     29  C   UNL     1       1.337   3.818  18.775  0.00  0.00    +0.000 A 
ENDBRANCH   9  24
TORSDOF 4
ENDMDL
MODEL 2
REMARK VINA RESULT:      -9.0      0.580      1.215
REMARK  Name = 
REMARK  5 active torsions:
REMARK  status: ('A' for Active; 'I' for Inactive)
REMARK    1  A    between atoms: C_1  and  C_2
REMARK    2  A    between atoms: C_8  and  C_9
REMARK    3  A    between atoms: C_12  and  C_13
REMARK    4  A    between atoms: C_13  and  N_14
REMARK    5  A    between atoms: C_20  and  C_21
REMARK                            x       y       z     vdW  Elec       q    Type
REMARK                         _______ _______ _______ _____ _____    ______ ____
ROOT
ATOM      1  C   UNL     1       4.442   2.644  17.560  0.00  0.00    +0.000 C 
ATOM      2  C   UNL     1       4.824   3.981  17.003  0.00  0.00    +0.000 A 
ATOM      3  C   UNL     1       5.836   4.008  16.109  0.00  0.00    +0.000 A 
ATOM      4  C   UNL     1       6.240   5.241  15.475  0.00  0.00    +0.000 A 
ATOM      5  C   UNL     1       5.597   6.387  15.736  0.00  0.00    +0.000 A 
ATOM      6  C   UNL     1       4.525   6.399  16.667  0.00  0.00    +0.000 A 
ATOM      7  N   UNL     1       3.795   7.422  17.024  0.00  0.00    +0.000 NA
ATOM      8  C   UNL     1       2.963   6.956  18.002  0.00  0.00    +0.000 A 
ATOM      9  C   UNL     1       3.128   5.580  18.225  0.00  0.00    +0.000 A 
ATOM     10  N   UNL     1       4.161   5.209  17.325  0.00  0.00    +0.000 N 
ENDROOT
BRANCH   8  11
ATOM     11  C   UNL     1       2.115   7.918  18.701  0.00  0.00    +0.000 A 
ATOM     12  C   UNL     1       1.555   8.987  17.985  0.00  0.00    +0.000 A 
ATOM     13  C   UNL     1       0.907  10.038  18.648  0.00  0.00    +0.000 A 
ATOM     14  C   UNL     1       0.797  10.066  20.047  0.00  0.00    +0.000 A 
ATOM     15  C   UNL     1       1.260   8.920  20.726  0.00  0.00    +0.000 A 
ATOM     16  C   UNL     1       1.939   7.888  20.080  0.00  0.00    +0.000 A 
BRANCH  14  17
ATOM     17  C   UNL     1       0.331  11.320  20.877  0.00  0.00    +0.000 C 
ATOM     18  C   UNL     1      -0.725  12.234  20.185  0.00  0.00    +0.000 C 
ATOM     19  C   UNL     1      -1.765  11.756  21.207  0.00  0.00    +0.000 C 
ATOM     20  C   UNL     1      -0.622  11.242  22.097  0.00  0.00    +0.000 C 
BRANCH  17  21
ATOM     21  N   UNL     1       1.471  12.151  21.275  0.00  0.00    +0.000 NA
ATOM     22  H   UNL     1       1.558  13.006  20.728  0.00  0.00    +0.000 HD
ATOM     23  H   UNL     1       2.365  11.673  21.170  0.00  0.00    +0.000 HD
ENDBRANCH  17  21
ENDBRANCH  14  17
ENDBRANCH   8  11
BRANCH   9  24
ATOM     24  C   UNL     1       2.404   4.702  19.169  0.00  0.00    +0.000 A 
ATOM     25  C   UNL     1       1.320   3.918  18.735  0.00  0.00    +0.000 A 
ATOM     26  C   UNL     1       0.597   3.116  19.626  0.00  0.00    +0.000 A 
ATOM     27  C   UNL     1       1.001   3.014  20.953  0.00  0.00    +0.000 A 
ATOM     28  C   UNL     1       2.062   3.790  21.405  0.00  0.00    +0.000 A 
ATOM     29  C   UNL     1       2.702   4.680  20.535  0.00  0.00    +0.000 A 
ENDBRANCH   9  24
TORSDOF 4
ENDMDL
MODEL 3
REMARK VINA RESULT:      -8.5      0.954      1.437
REMARK  Name = 
REMARK  5 active torsions:
REMARK  status: ('A' for Active; 'I' for Inactive)
REMARK    1  A    between atoms: C_1  and  C_2
REMARK    2  A    between atoms: C_8  and  C_9
REMARK    3  A    between atoms: C_12  and  C_13
REMARK    4  A    between atoms: C_13  and  N_14
REMARK    5  A    between atoms: C_20  and  C_21
REMARK                            x       y       z     vdW  Elec       q    Type
REMARK                         _______ _______ _______ _____ _____    ______ ____
ROOT
ATOM      1  C   UNL     1       4.334   2.417  17.461  0.00  0.00    +0.000 C 
ATOM      2  C   UNL     1       4.842   3.689  16.855  0.00  0.00    +0.000 A 
ATOM      3  C   UNL     1       5.839   3.585  15.951  0.00  0.00    +0.000 A 
ATOM      4  C   UNL     1       6.357   4.749  15.271  0.00  0.00    +0.000 A 
ATOM      5  C   UNL     1       5.837   5.962  15.501  0.00  0.00    +0.000 A 
ATOM      6  C   UNL     1       4.785   6.113  16.442  0.00  0.00    +0.000 A 
ATOM      7  N   UNL     1       4.167   7.216  16.772  0.00  0.00    +0.000 NA
ATOM      8  C   UNL     1       3.306   6.869  17.775  0.00  0.00    +0.000 A 
ATOM      9  C   UNL     1       3.334   5.492  18.042  0.00  0.00    +0.000 A 
ATOM     10  N   UNL     1       4.312   4.989  17.143  0.00  0.00    +0.000 N 
ENDROOT
BRANCH   8  11
ATOM     11  C   UNL     1       2.569   7.934  18.449  0.00  0.00    +0.000 A 
ATOM     12  C   UNL     1       2.099   7.723  19.754  0.00  0.00    +0.000 A 
ATOM     13  C   UNL     1       1.219   8.631  20.360  0.00  0.00    +0.000 A 
ATOM     14  C   UNL     1       0.772   9.779  19.687  0.00  0.00    +0.000 A 
ATOM     15  C   UNL     1       1.358  10.025  18.427  0.00  0.00    +0.000 A 
ATOM     16  C   UNL     1       2.203   9.109  17.801  0.00  0.00    +0.000 A 
BRANCH  14  17
ATOM     17  C   UNL     1      -0.407  10.697  20.182  0.00  0.00    +0.000 C 
ATOM     18  C   UNL     1      -0.815  10.525  21.676  0.00  0.00    +0.000 C 
ATOM     19  C   UNL     1      -0.233  11.916  21.964  0.00  0.00    +0.000 C 
ATOM     20  C   UNL     1      -0.261  12.216  20.458  0.00  0.00    +0.000 C 
BRANCH  17  21
ATOM     21  N   UNL     1      -1.603  10.523  19.354  0.00  0.00    +0.000 NA
ATOM     22  H   UNL     1      -2.081   9.638  19.515  0.00  0.00    +0.000 HD
ATOM     23  H   UNL     1      -1.400  10.540  18.355  0.00  0.00    +0.000 HD
ENDBRANCH  17  21
ENDBRANCH  14  17
ENDBRANCH   8  11
BRANCH   9  24
ATOM     24  C   UNL     1       2.538   4.722  19.022  0.00  0.00    +0.000 A 
ATOM     25  C   UNL     1       2.969   4.590  20.354  0.00  0.00    +0.000 A 
ATOM     26  C   UNL     1       2.248   3.828  21.282  0.00  0.00    +0.000 A 
ATOM     27  C   UNL     1       1.034   3.256  20.917  0.00  0.00    +0.000 A 
ATOM     28  C   UNL     1       0.596   3.365  19.602  0.00  0.00    +0.000 A 
ATOM     29  C   UNL     1       1.383   4.025  18.652  0.00  0.00    +0.000 A 
ENDBRANCH   9  24
TORSDOF 4
ENDMDL
MODEL 4
REMARK VINA RESULT:      -8.4      1.108      1.243
REMARK  Name = 
REMARK  5 active torsions:
REMARK  status: ('A' for Active; 'I' for Inactive)
REMARK    1  A    between atoms: C_1  and  C_2
REMARK    2  A    between atoms: C_8  and  C_9
REMARK    3  A    between atoms: C_12  and  C_13
REMARK    4  A    between atoms: C_13  and  N_14
REMARK    5  A    between atoms: C_20  and  C_21
REMARK                            x       y       z     vdW  Elec       q    Type
REMARK                         _______ _______ _______ _____ _____    ______ ____
ROOT
ATOM      1  C   UNL     1       5.024   3.086  18.144  0.00  0.00    +0.000 C 
ATOM      2  C   UNL     1       5.417   4.468  17.720  0.00  0.00    +0.000 A 
ATOM      3  C   UNL     1       6.629   4.613  17.143  0.00  0.00    +0.000 A 
ATOM      4  C   UNL     1       7.073   5.896  16.650  0.00  0.00    +0.000 A 
ATOM      5  C   UNL     1       6.277   6.970  16.726  0.00  0.00    +0.000 A 
ATOM      6  C   UNL     1       4.994   6.858  17.323  0.00  0.00    +0.000 A 
ATOM      7  N   UNL     1       4.100   7.800  17.466  0.00  0.00    +0.000 NA
ATOM      8  C   UNL     1       3.078   7.232  18.174  0.00  0.00    +0.000 A 
ATOM      9  C   UNL     1       3.305   5.871  18.429  0.00  0.00    +0.000 A 
ATOM     10  N   UNL     1       4.577   5.622  17.850  0.00  0.00    +0.000 N 
ENDROOT
BRANCH   8  11
ATOM     11  C   UNL     1       1.982   8.092  18.612  0.00  0.00    +0.000 A 
ATOM     12  C   UNL     1       1.282   8.850  17.662  0.00  0.00    +0.000 A 
ATOM     13  C   UNL     1       0.366   9.835  18.058  0.00  0.00    +0.000 A 
ATOM     14  C   UNL     1       0.117  10.103  19.413  0.00  0.00    +0.000 A 
ATOM     15  C   UNL     1       0.743   9.241  20.339  0.00  0.00    +0.000 A 
ATOM     16  C   UNL     1       1.684   8.286  19.957  0.00  0.00    +0.000 A 
BRANCH  14  17
ATOM     17  C   UNL     1      -0.681  11.353  19.940  0.00  0.00    +0.000 C 
ATOM     18  C   UNL     1      -0.899  11.416  21.482  0.00  0.00    +0.000 C 
ATOM     19  C   UNL     1       0.076  12.600  21.540  0.00  0.00    +0.000 C 
ATOM     20  C   UNL     1      -0.088  12.783  20.024  0.00  0.00    +0.000 C 
BRANCH  17  21
ATOM     21  N   UNL     1      -1.987  11.467  19.284  0.00  0.00    +0.000 NA
ATOM     22  H   UNL     1      -1.934  11.859  18.345  0.00  0.00    +0.000 HD
ATOM     23  H   UNL     1      -2.634  12.071  19.790  0.00  0.00    +0.000 HD
ENDBRANCH  17  21
ENDBRANCH  14  17
ENDBRANCH   8  11
BRANCH   9  24
ATOM     24  C   UNL     1       2.435   4.903  19.131  0.00  0.00    +0.000 A 
ATOM     25  C   UNL     1       2.544   4.713  20.520  0.00  0.00    +0.000 A 
ATOM     26  C   UNL     1       1.758   3.770  21.192  0.00  0.00    +0.000 A 
ATOM     27  C   UNL     1       0.785   3.058  20.499  0.00  0.00    +0.000 A 
ATOM     28  C   UNL     1       0.669   3.221  19.123  0.00  0.00    +0.000 A 
ATOM     29  C   UNL     1       1.541   4.077  18.442  0.00  0.00    +0.000 A 
ENDBRANCH   9  24
TORSDOF 4
ENDMDL
MODEL 5
REMARK VINA RESULT:      -7.6      1.911      4.314
REMARK  Name = 
REMARK  5 active torsions:
REMARK  status: ('A' for Active; 'I' for Inactive)
REMARK    1  A    between atoms: C_1  and  C_2
REMARK    2  A    between atoms: C_8  and  C_9
REMARK    3  A    between atoms: C_12  and  C_13
REMARK    4  A    between atoms: C_13  and  N_14
REMARK    5  A    between atoms: C_20  and  C_21
REMARK                            x       y       z     vdW  Elec       q    Type
REMARK                         _______ _______ _______ _____ _____    ______ ____
ROOT
ATOM      1  C   UNL     1       4.851   2.797  18.971  0.00  0.00    +0.000 C 
ATOM      2  C   UNL     1       3.589   3.063  19.733  0.00  0.00    +0.000 A 
ATOM      3  C   UNL     1       3.016   2.012  20.360  0.00  0.00    +0.000 A 
ATOM      4  C   UNL     1       1.829   2.180  21.165  0.00  0.00    +0.000 A 
ATOM      5  C   UNL     1       1.282   3.391  21.333  0.00  0.00    +0.000 A 
ATOM      6  C   UNL     1       1.856   4.520  20.693  0.00  0.00    +0.000 A 
ATOM      7  N   UNL     1       1.454   5.762  20.760  0.00  0.00    +0.000 NA
ATOM      8  C   UNL     1       2.263   6.458  19.908  0.00  0.00    +0.000 A 
ATOM      9  C   UNL     1       3.250   5.642  19.333  0.00  0.00    +0.000 A 
ATOM     10  N   UNL     1       2.984   4.354  19.867  0.00  0.00    +0.000 N 
ENDROOT
BRANCH   8  11
ATOM     11  C   UNL     1       1.960   7.865  19.664  0.00  0.00    +0.000 A 
ATOM     12  C   UNL     1       1.467   8.653  20.715  0.00  0.00    +0.000 A 
ATOM     13  C   UNL     1       0.973   9.944  20.479  0.00  0.00    +0.000 A 
ATOM     14  C   UNL     1       0.949  10.495  19.188  0.00  0.00    +0.000 A 
ATOM     15  C   UNL     1       1.563   9.727  18.177  0.00  0.00    +0.000 A 
ATOM     16  C   UNL     1       2.022   8.429  18.394  0.00  0.00    +0.000 A 
BRANCH  14  17
ATOM     17  C   UNL     1       0.177  11.811  18.798  0.00  0.00    +0.000 C 
ATOM     18  C   UNL     1      -1.195  11.605  18.088  0.00  0.00    +0.000 C 
ATOM     19  C   UNL     1      -1.893  12.126  19.352  0.00  0.00    +0.000 C 
ATOM     20  C   UNL     1      -0.554  12.717  19.821  0.00  0.00    +0.000 C 
BRANCH  17  21
ATOM     21  N   UNL     1       1.003  12.686  17.962  0.00  0.00    +0.000 NA
ATOM     22  H   UNL     1       1.813  13.065  18.450  0.00  0.00    +0.000 HD
ATOM     23  H   UNL     1       0.495  13.498  17.615  0.00  0.00    +0.000 HD
ENDBRANCH  17  21
ENDBRANCH  14  17
ENDBRANCH   8  11
BRANCH   9  24
ATOM     24  C   UNL     1       4.327   6.016  18.391  0.00  0.00    +0.000 A 
ATOM     25  C   UNL     1       4.052   6.218  17.027  0.00  0.00    +0.000 A 
ATOM     26  C   UNL     1       5.069   6.530  16.116  0.00  0.00    +0.000 A 
ATOM     27  C   UNL     1       6.368   6.732  16.569  0.00  0.00    +0.000 A 
ATOM     28  C   UNL     1       6.664   6.526  17.911  0.00  0.00    +0.000 A 
ATOM     29  C   UNL     1       5.665   6.096  18.792  0.00  0.00    +0.000 A 
ENDBRANCH   9  24
TORSDOF 4
ENDMDL
MODEL 6
REMARK VINA RESULT:      -7.5      1.925      4.312
REMARK  Name = 
REMARK  5 active torsions:
REMARK  status: ('A' for Active; 'I' for Inactive)
REMARK    1  A    between atoms: C_1  and  C_2
REMARK    2  A    between atoms: C_8  and  C_9
REMARK    3  A    between atoms: C_12  and  C_13
REMARK    4  A    between atoms: C_13  and  N_14
REMARK    5  A    between atoms: C_20  and  C_21
REMARK                            x       y       z     vdW  Elec       q    Type
REMARK                         _______ _______ _______ _____ _____    ______ ____
ROOT
ATOM      1  C   UNL     1       4.914   2.713  19.064  0.00  0.00    +0.000 C 
ATOM      2  C   UNL     1       3.699   3.031  19.880  0.00  0.00    +0.000 A 
ATOM      3  C   UNL     1       3.204   2.043  20.657  0.00  0.00    +0.000 A 
ATOM      4  C   UNL     1       2.070   2.270  21.521  0.00  0.00    +0.000 A 
ATOM      5  C   UNL     1       1.498   3.479  21.596  0.00  0.00    +0.000 A 
ATOM      6  C   UNL     1       1.991   4.544  20.797  0.00  0.00    +0.000 A 
ATOM      7  N   UNL     1       1.555   5.775  20.758  0.00  0.00    +0.000 NA
ATOM      8  C   UNL     1       2.282   6.392  19.780  0.00  0.00    +0.000 A 
ATOM      9  C   UNL     1       3.252   5.541  19.228  0.00  0.00    +0.000 A 
ATOM     10  N   UNL     1       3.064   4.314  19.916  0.00  0.00    +0.000 N 
ENDROOT
BRANCH   8  11
ATOM     11  C   UNL     1       1.918   7.756  19.407  0.00  0.00    +0.000 A 
ATOM     12  C   UNL     1       2.262   8.235  18.134  0.00  0.00    +0.000 A 
ATOM     13  C   UNL     1       2.117   9.591  17.810  0.00  0.00    +0.000 A 
ATOM     14  C   UNL     1       1.626  10.519  18.741  0.00  0.00    +0.000 A 
ATOM     15  C   UNL     1       1.174   9.986  19.966  0.00  0.00    +0.000 A 
ATOM     16  C   UNL     1       1.351   8.647  20.313  0.00  0.00    +0.000 A 
BRANCH  14  17
ATOM     17  C   UNL     1       1.682  12.081  18.553  0.00  0.00    +0.000 C 
ATOM     18  C   UNL     1       0.302  12.800  18.453  0.00  0.00    +0.000 C 
ATOM     19  C   UNL     1       0.563  13.426  19.830  0.00  0.00    +0.000 C 
ATOM     20  C   UNL     1       2.052  13.074  19.684  0.00  0.00    +0.000 C 
BRANCH  17  21
ATOM     21  N   UNL     1       2.479  12.449  17.380  0.00  0.00    +0.000 NA
ATOM     22  H   UNL     1       1.959  12.400  16.506  0.00  0.00    +0.000 HD
ATOM     23  H   UNL     1       3.288  11.844  17.244  0.00  0.00    +0.000 HD
ENDBRANCH  17  21
ENDBRANCH  14  17
ENDBRANCH   8  11
BRANCH   9  24
ATOM     24  C   UNL     1       4.250   5.835  18.176  0.00  0.00    +0.000 A 
ATOM     25  C   UNL     1       4.088   5.338  16.871  0.00  0.00    +0.000 A 
ATOM     26  C   UNL     1       5.046   5.570  15.877  0.00  0.00    +0.000 A 
ATOM     27  C   UNL     1       6.143   6.381  16.147  0.00  0.00    +0.000 A 
ATOM     28  C   UNL     1       6.329   6.872  17.435  0.00  0.00    +0.000 A 
ATOM     29  C   UNL     1       5.430   6.534  18.451  0.00  0.00    +0.000 A 
ENDBRANCH   9  24
TORSDOF 4
ENDMDL
MODEL 7
REMARK VINA RESULT:      -7.4      2.373      8.645
REMARK  Name = 
REMARK  5 active torsions:
REMARK  status: ('A' for Active; 'I' for Inactive)
REMARK    1  A    between atoms: C_1  and  C_2
REMARK    2  A    between atoms: C_8  and  C_9
REMARK    3  A    between atoms: C_12  and  C_13
REMARK    4  A    between atoms: C_13  and  N_14
REMARK    5  A    between atoms: C_20  and  C_21
REMARK                            x       y       z     vdW  Elec       q    Type
REMARK                         _______ _______ _______ _____ _____    ______ ____
ROOT
ATOM      1  C   UNL     1      -4.073  13.137  19.907  0.00  0.00    +0.000 C 
ATOM      2  C   UNL     1      -3.012  13.087  20.962  0.00  0.00    +0.000 A 
ATOM      3  C   UNL     1      -3.146  13.929  22.010  0.00  0.00    +0.000 A 
ATOM      4  C   UNL     1      -2.204  13.916  23.104  0.00  0.00    +0.000 A 
ATOM      5  C   UNL     1      -1.188  13.043  23.121  0.00  0.00    +0.000 A 
ATOM      6  C   UNL     1      -1.015  12.139  22.041  0.00  0.00    +0.000 A 
ATOM      7  N   UNL     1      -0.089  11.227  21.908  0.00  0.00    +0.000 NA
ATOM      8  C   UNL     1      -0.284  10.681  20.672  0.00  0.00    +0.000 A 
ATOM      9  C   UNL     1      -1.409  11.220  20.028  0.00  0.00    +0.000 A 
ATOM     10  N   UNL     1      -1.901  12.182  20.948  0.00  0.00    +0.000 N 
ENDROOT
BRANCH   8  11
ATOM     11  C   UNL     1       0.697   9.717  20.181  0.00  0.00    +0.000 A 
ATOM     12  C   UNL     1       1.126   9.792  18.847  0.00  0.00    +0.000 A 
ATOM     13  C   UNL     1       1.904   8.773  18.281  0.00  0.00    +0.000 A 
ATOM     14  C   UNL     1       2.281   7.641  19.020  0.00  0.00    +0.000 A 
ATOM     15  C   UNL     1       1.940   7.655  20.389  0.00  0.00    +0.000 A 
ATOM     16  C   UNL     1       1.133   8.644  20.952  0.00  0.00    +0.000 A 
BRANCH  14  17
ATOM     17  C   UNL     1       2.917   6.343  18.396  0.00  0.00    +0.000 C 
ATOM     18  C   UNL     1       3.572   5.357  19.409  0.00  0.00    +0.000 C 
ATOM     19  C   UNL     1       2.432   4.366  19.135  0.00  0.00    +0.000 C 
ATOM     20  C   UNL     1       2.087   5.149  17.859  0.00  0.00    +0.000 C 
BRANCH  17  21
ATOM     21  N   UNL     1       3.907   6.675  17.369  0.00  0.00    +0.000 NA
ATOM     22  H   UNL     1       3.934   6.005  16.602  0.00  0.00    +0.000 HD
ATOM     23  H   UNL     1       4.860   6.706  17.731  0.00  0.00    +0.000 HD
ENDBRANCH  17  21
ENDBRANCH  14  17
ENDBRANCH   8  11
BRANCH   9  24
ATOM     24  C   UNL     1      -1.970  10.877  18.703  0.00  0.00    +0.000 A 
ATOM     25  C   UNL     1      -1.767  11.720  17.596  0.00  0.00    +0.000 A 
ATOM     26  C   UNL     1      -2.329  11.431  16.347  0.00  0.00    +0.000 A 
ATOM     27  C   UNL     1      -3.033  10.246  16.160  0.00  0.00    +0.000 A 
ATOM     28  C   UNL     1      -3.256   9.405  17.244  0.00  0.00    +0.000 A 
ATOM     29  C   UNL     1      -2.793   9.762  18.515  0.00  0.00    +0.000 A 
ENDBRANCH   9  24
TORSDOF 4
ENDMDL
MODEL 8
REMARK VINA RESULT:      -7.4      1.810      4.166
REMARK  Name = 
REMARK  5 active torsions:
REMARK  status: ('A' for Active; 'I' for Inactive)
REMARK    1  A    between atoms: C_1  and  C_2
REMARK    2  A    between atoms: C_8  and  C_9
REMARK    3  A    between atoms: C_12  and  C_13
REMARK    4  A    between atoms: C_13  and  N_14
REMARK    5  A    between atoms: C_20  and  C_21
REMARK                            x       y       z     vdW  Elec       q    Type
REMARK                         _______ _______ _______ _____ _____    ______ ____
ROOT
ATOM      1  C   UNL     1       4.764   2.510  18.112  0.00  0.00    +0.000 C 
ATOM      2  C   UNL     1       3.383   2.757  18.638  0.00  0.00    +0.000 A 
ATOM      3  C   UNL     1       2.629   1.673  18.918  0.00  0.00    +0.000 A 
ATOM      4  C   UNL     1       1.306   1.808  19.482  0.00  0.00    +0.000 A 
ATOM      5  C   UNL     1       0.806   3.017  19.768  0.00  0.00    +0.000 A 
ATOM      6  C   UNL     1       1.569   4.182  19.491  0.00  0.00    +0.000 A 
ATOM      7  N   UNL     1       1.233   5.424  19.716  0.00  0.00    +0.000 NA
ATOM      8  C   UNL     1       2.247   6.179  19.198  0.00  0.00    +0.000 A 
ATOM      9  C   UNL     1       3.287   5.387  18.688  0.00  0.00    +0.000 A 
ATOM     10  N   UNL     1       2.838   4.057  18.895  0.00  0.00    +0.000 N 
ENDROOT
BRANCH   8  11
ATOM     11  C   UNL     1       2.085   7.630  19.177  0.00  0.00    +0.000 A 
ATOM     12  C   UNL     1       1.632   8.287  20.331  0.00  0.00    +0.000 A 
ATOM     13  C   UNL     1       1.269   9.641  20.295  0.00  0.00    +0.000 A 
ATOM     14  C   UNL     1       1.340  10.388  19.109  0.00  0.00    +0.000 A 
ATOM     15  C   UNL     1       1.914   9.733  17.999  0.00  0.00    +0.000 A 
ATOM     16  C   UNL     1       2.242   8.378  18.015  0.00  0.00    +0.000 A 
BRANCH  14  17
ATOM     17  C   UNL     1       0.708  11.817  18.920  0.00  0.00    +0.000 C 
ATOM     18  C   UNL     1       0.279  12.546  20.229  0.00  0.00    +0.000 C 
ATOM     19  C   UNL     1       1.430  13.539  20.018  0.00  0.00    +0.000 C 
ATOM     20  C   UNL     1       1.528  13.081  18.554  0.00  0.00    +0.000 C 
BRANCH  17  21
ATOM     21  N   UNL     1      -0.444  11.776  18.016  0.00  0.00    +0.000 NA
ATOM     22  H   UNL     1      -0.301  12.300  17.154  0.00  0.00    +0.000 HD
ATOM     23  H   UNL     1      -1.288  12.169  18.430  0.00  0.00    +0.000 HD
ENDBRANCH  17  21
ENDBRANCH  14  17
ENDBRANCH   8  11
BRANCH   9  24
ATOM     24  C   UNL     1       4.564   5.817  18.076  0.00  0.00    +0.000 A 
ATOM     25  C   UNL     1       4.624   6.182  16.719  0.00  0.00    +0.000 A 
ATOM     26  C   UNL     1       5.833   6.548  16.116  0.00  0.00    +0.000 A 
ATOM     27  C   UNL     1       6.990   6.642  16.881  0.00  0.00    +0.000 A 
ATOM     28  C   UNL     1       6.955   6.275  18.222  0.00  0.00    +0.000 A 
ATOM     29  C   UNL     1       5.768   5.794  18.786  0.00  0.00    +0.000 A 
ENDBRANCH   9  24
TORSDOF 4
ENDMDL
MODEL 9
REMARK VINA RESULT:      -7.4      1.835      4.078
REMARK  Name = 
REMARK  5 active torsions:
REMARK  status: ('A' for Active; 'I' for Inactive)
REMARK    1  A    between atoms: C_1  and  C_2
REMARK    2  A    between atoms: C_8  and  C_9
REMARK    3  A    between atoms: C_12  and  C_13
REMARK    4  A    between atoms: C_13  and  N_14
REMARK    5  A    between atoms: C_20  and  C_21
REMARK                            x       y       z     vdW  Elec       q    Type
REMARK                         _______ _______ _______ _____ _____    ______ ____
ROOT
ATOM      1  C   UNL     1       4.732   2.517  18.111  0.00  0.00    +0.000 C 
ATOM      2  C   UNL     1       3.355   2.763  18.647  0.00  0.00    +0.000 A 
ATOM      3  C   UNL     1       2.602   1.679  18.931  0.00  0.00    +0.000 A 
ATOM      4  C   UNL     1       1.284   1.814  19.505  0.00  0.00    +0.000 A 
ATOM      5  C   UNL     1       0.787   3.023  19.798  0.00  0.00    +0.000 A 
ATOM      6  C   UNL     1       1.548   4.187  19.517  0.00  0.00    +0.000 A 
ATOM      7  N   UNL     1       1.215   5.429  19.748  0.00  0.00    +0.000 NA
ATOM      8  C   UNL     1       2.225   6.185  19.224  0.00  0.00    +0.000 A 
ATOM      9  C   UNL     1       3.261   5.393  18.704  0.00  0.00    +0.000 A 
ATOM     10  N   UNL     1       2.813   4.063  18.912  0.00  0.00    +0.000 N 
ENDROOT
BRANCH   8  11
ATOM     11  C   UNL     1       2.064   7.636  19.208  0.00  0.00    +0.000 A 
ATOM     12  C   UNL     1       1.588   8.287  20.355  0.00  0.00    +0.000 A 
ATOM     13  C   UNL     1       1.226   9.641  20.319  0.00  0.00    +0.000 A 
ATOM     14  C   UNL     1       1.321  10.394  19.139  0.00  0.00    +0.000 A 
ATOM     15  C   UNL     1       1.918   9.745  18.038  0.00  0.00    +0.000 A 
ATOM     16  C   UNL     1       2.245   8.390  18.052  0.00  0.00    +0.000 A 
BRANCH  14  17
ATOM     17  C   UNL     1       0.694  11.825  18.944  0.00  0.00    +0.000 C 
ATOM     18  C   UNL     1      -0.794  11.854  18.480  0.00  0.00    +0.000 C 
ATOM     19  C   UNL     1      -1.185  12.382  19.867  0.00  0.00    +0.000 C 
ATOM     20  C   UNL     1       0.285  12.754  20.116  0.00  0.00    +0.000 C 
BRANCH  17  21
ATOM     21  N   UNL     1       1.484  12.632  18.011  0.00  0.00    +0.000 NA
ATOM     22  H   UNL     1       1.360  13.635  18.139  0.00  0.00    +0.000 HD
ATOM     23  H   UNL     1       1.249  12.456  17.036  0.00  0.00    +0.000 HD
ENDBRANCH  17  21
ENDBRANCH  14  17
ENDBRANCH   8  11
BRANCH   9  24
ATOM     24  C   UNL     1       4.533   5.824  18.084  0.00  0.00    +0.000 A 
ATOM     25  C   UNL     1       5.721   5.870  18.835  0.00  0.00    +0.000 A 
ATOM     26  C   UNL     1       6.923   6.317  18.274  0.00  0.00    +0.000 A 
ATOM     27  C   UNL     1       6.978   6.644  16.923  0.00  0.00    +0.000 A 
ATOM     28  C   UNL     1       5.813   6.617  16.166  0.00  0.00    +0.000 A 
ATOM     29  C   UNL     1       4.594   6.285  16.765  0.00  0.00    +0.000 A 
ENDBRANCH   9  24
TORSDOF 4
ENDMDL
