MODEL 1
REMARK VINA RESULT:      -8.8      0.000      0.000
REMARK  Name = 
REMARK  7 active torsions:
REMARK  status: ('A' for Active; 'I' for Inactive)
REMARK    1  A    between atoms: C_2  and  C_3
REMARK    2  A    between atoms: C_3  and  C_17
REMARK    3  A    between atoms: N_4  and  N_5
REMARK    4  A    between atoms: N_5  and  C_6
REMARK    5  A    between atoms: C_11  and  C_12
REMARK    6  A    between atoms: C_17  and  C_19
REMARK    7  A    between atoms: C_21  and  C_22
REMARK                            x       y       z     vdW  Elec       q    Type
REMARK                         _______ _______ _______ _____ _____    ______ ____
ROOT
ATOM      1  C   UNL     1       5.358   4.751  18.860  0.00  0.00    +0.000 C 
ATOM      2  N   UNL     1       4.715   5.865  19.055  0.00  0.00    +0.000 NA
ENDROOT
BRANCH   1   4
ATOM      3  N   UNL     1       4.300   2.502  19.628  0.00  0.00    +0.000 NA
ATOM      4  C   UNL     1       4.763   3.517  19.311  0.00  0.00    +0.000 C 
ENDBRANCH   1   4
BRANCH   2   5
ATOM      5  N   UNL     1       3.530   5.915  19.716  0.00  0.00    +0.000 N 
ATOM      6  H   UNL     1       3.394   5.498  20.639  0.00  0.00    +0.000 HD
BRANCH   5   7
ATOM      7  C   UNL     1       2.682   7.008  19.434  0.00  0.00    +0.000 A 
ATOM      8  C   UNL     1       2.765   7.645  18.195  0.00  0.00    +0.000 A 
ATOM      9  C   UNL     1       2.017   8.798  17.939  0.00  0.00    +0.000 A 
ATOM     10  C   UNL     1       1.181   9.346  18.921  0.00  0.00    +0.000 A 
ATOM     11 CL   UNL     1       0.333  10.784  18.488  0.00  0.00    +0.000 Cl
ATOM     12  C   UNL     1       1.076   8.737  20.172  0.00  0.00    +0.000 A 
ATOM     13  C   UNL     1       1.837   7.568  20.406  0.00  0.00    +0.000 A 
BRANCH  12  14
ATOM     14  C   UNL     1       0.216   9.235  21.303  0.00  0.00    +0.000 C 
ATOM     15  F   UNL     1      -0.680  10.211  20.999  0.00  0.00    +0.000 F 
ATOM     16  F   UNL     1      -0.521   8.232  21.864  0.00  0.00    +0.000 F 
ATOM     17  F   UNL     1       0.966   9.746  22.324  0.00  0.00    +0.000 F 
ENDBRANCH  12  14
ENDBRANCH   5   7
ENDBRANCH   2   5
BRANCH   1  18
ATOM     18  C   UNL     1       6.685   4.770  18.151  0.00  0.00    +0.000 C 
ATOM     19  O   UNL     1       7.693   4.828  18.853  0.00  0.00    +0.000 OA
BRANCH  18  20
ATOM     20  C   UNL     1       6.755   4.726  16.694  0.00  0.00    +0.000 A 
ATOM     21  C   UNL     1       6.048   3.865  15.816  0.00  0.00    +0.000 A 
ATOM     22  C   UNL     1       6.441   4.231  14.545  0.00  0.00    +0.000 A 
ATOM     23  O   UNL     1       7.345   5.246  14.664  0.00  0.00    +0.000 OA
ATOM     24  N   UNL     1       7.556   5.541  15.992  0.00  0.00    +0.000 NA
BRANCH  22  25
ATOM     25  C   UNL     1       6.023   3.707  13.284  0.00  0.00    +0.000 A 
ATOM     26  C   UNL     1       6.808   3.194  12.265  0.00  0.00    +0.000 A 
ATOM     27  C   UNL     1       5.936   2.832  11.208  0.00  0.00    +0.000 A 
ATOM     28  C   UNL     1       4.670   3.133  11.646  0.00  0.00    +0.000 A 
ATOM     29  O   UNL     1       4.710   3.653  12.898  0.00  0.00    +0.000 OA
ENDBRANCH  22  25
ENDBRANCH  18  20
ENDBRANCH   1  18
TORSDOF 7
ENDMDL
MODEL 2
REMARK VINA RESULT:      -8.7      1.093      1.481
REMARK  Name = 
REMARK  7 active torsions:
REMARK  status: ('A' for Active; 'I' for Inactive)
REMARK    1  A    between atoms: C_2  and  C_3
REMARK    2  A    between atoms: C_3  and  C_17
REMARK    3  A    between atoms: N_4  and  N_5
REMARK    4  A    between atoms: N_5  and  C_6
REMARK    5  A    between atoms: C_11  and  C_12
REMARK    6  A    between atoms: C_17  and  C_19
REMARK    7  A    between atoms: C_21  and  C_22
REMARK                            x       y       z     vdW  Elec       q    Type
REMARK                         _______ _______ _______ _____ _____    ______ ____
ROOT
ATOM      1  C   UNL     1       4.771   5.115  19.344  0.00  0.00    +0.000 C 
ATOM      2  N   UNL     1       4.110   6.228  19.469  0.00  0.00    +0.000 NA
ENDROOT
BRANCH   1   4
ATOM      3  N   UNL     1       3.481   2.891  19.746  0.00  0.00    +0.000 NA
ATOM      4  C   UNL     1       4.082   3.867  19.567  0.00  0.00    +0.000 C 
ENDBRANCH   1   4
BRANCH   2   5
ATOM      5  N   UNL     1       2.808   6.260  19.856  0.00  0.00    +0.000 N 
ATOM      6  H   UNL     1       2.449   5.707  20.636  0.00  0.00    +0.000 HD
BRANCH   5   7
ATOM      7  C   UNL     1       2.092   7.450  19.601  0.00  0.00    +0.000 A 
ATOM      8  C   UNL     1       2.077   7.985  18.313  0.00  0.00    +0.000 A 
ATOM      9  C   UNL     1       1.472   9.220  18.065  0.00  0.00    +0.000 A 
ATOM     10  C   UNL     1       0.879   9.953  19.102  0.00  0.00    +0.000 A 
ATOM     11 CL   UNL     1       0.189  11.472  18.669  0.00  0.00    +0.000 Cl
ATOM     12  C   UNL     1       0.877   9.449  20.404  0.00  0.00    +0.000 A 
ATOM     13  C   UNL     1       1.491   8.195  20.630  0.00  0.00    +0.000 A 
BRANCH  12  14
ATOM     14  C   UNL     1       0.277  10.145  21.596  0.00  0.00    +0.000 C 
ATOM     15  F   UNL     1       0.491   9.566  22.808  0.00  0.00    +0.000 F 
ATOM     16  F   UNL     1       0.734  11.425  21.723  0.00  0.00    +0.000 F 
ATOM     17  F   UNL     1      -1.080  10.256  21.490  0.00  0.00    +0.000 F 
ENDBRANCH  12  14
ENDBRANCH   5   7
ENDBRANCH   2   5
BRANCH   1  18
ATOM     18  C   UNL     1       6.222   5.149  18.946  0.00  0.00    +0.000 C 
ATOM     19  O   UNL     1       7.051   5.118  19.854  0.00  0.00    +0.000 OA
BRANCH  18  20
ATOM     20  C   UNL     1       6.611   5.225  17.541  0.00  0.00    +0.000 A 
ATOM     21  C   UNL     1       6.160   4.410  16.471  0.00  0.00    +0.000 A 
ATOM     22  C   UNL     1       6.800   4.890  15.348  0.00  0.00    +0.000 A 
ATOM     23  O   UNL     1       7.601   5.925  15.734  0.00  0.00    +0.000 OA
ATOM     24  N   UNL     1       7.501   6.121  17.093  0.00  0.00    +0.000 NA
BRANCH  22  25
ATOM     25  C   UNL     1       6.697   4.452  13.993  0.00  0.00    +0.000 A 
ATOM     26  C   UNL     1       5.773   3.581  13.439  0.00  0.00    +0.000 A 
ATOM     27  C   UNL     1       6.103   3.438  12.069  0.00  0.00    +0.000 A 
ATOM     28  C   UNL     1       7.201   4.237  11.860  0.00  0.00    +0.000 A 
ATOM     29  O   UNL     1       7.562   4.858  13.011  0.00  0.00    +0.000 OA
ENDBRANCH  22  25
ENDBRANCH  18  20
ENDBRANCH   1  18
TORSDOF 7
ENDMDL
MODEL 3
REMARK VINA RESULT:      -8.6      6.107      8.704
REMARK  Name = 
REMARK  7 active torsions:
REMARK  status: ('A' for Active; 'I' for Inactive)
REMARK    1  A    between atoms: C_2  and  C_3
REMARK    2  A    between atoms: C_3  and  C_17
REMARK    3  A    between atoms: N_4  and  N_5
REMARK    4  A    between atoms: N_5  and  C_6
REMARK    5  A    between atoms: C_11  and  C_12
REMARK    6  A    between atoms: C_17  and  C_19
REMARK    7  A    between atoms: C_21  and  C_22
REMARK                            x       y       z     vdW  Elec       q    Type
REMARK                         _______ _______ _______ _____ _____    ______ ____
ROOT
ATOM      1  C   UNL     1       0.848   9.878  21.477  0.00  0.00    +0.000 C 
ATOM      2  N   UNL     1       1.396   8.937  20.767  0.00  0.00    +0.000 NA
ENDROOT
BRANCH   1   4
ATOM      3  N   UNL     1       0.416   9.397  23.997  0.00  0.00    +0.000 NA
ATOM      4  C   UNL     1       0.603   9.641  22.879  0.00  0.00    +0.000 C 
ENDBRANCH   1   4
BRANCH   2   5
ATOM      5  N   UNL     1       1.697   7.718  21.285  0.00  0.00    +0.000 N 
ATOM      6  H   UNL     1       1.360   7.406  22.198  0.00  0.00    +0.000 HD
BRANCH   5   7
ATOM      7  C   UNL     1       1.955   6.676  20.368  0.00  0.00    +0.000 A 
ATOM      8  C   UNL     1       2.504   6.974  19.121  0.00  0.00    +0.000 A 
ATOM      9  C   UNL     1       2.660   5.974  18.157  0.00  0.00    +0.000 A 
ATOM     10  C   UNL     1       2.258   4.657  18.416  0.00  0.00    +0.000 A 
ATOM     11 CL   UNL     1       2.480   3.523  17.135  0.00  0.00    +0.000 Cl
ATOM     12  C   UNL     1       1.702   4.323  19.652  0.00  0.00    +0.000 A 
ATOM     13  C   UNL     1       1.560   5.350  20.613  0.00  0.00    +0.000 A 
BRANCH  12  14
ATOM     14  C   UNL     1       1.231   2.947  20.041  0.00  0.00    +0.000 C 
ATOM     15  F   UNL     1       0.206   2.428  19.314  0.00  0.00    +0.000 F 
ATOM     16  F   UNL     1       2.233   2.023  19.961  0.00  0.00    +0.000 F 
ATOM     17  F   UNL     1       0.805   2.904  21.338  0.00  0.00    +0.000 F 
ENDBRANCH  12  14
ENDBRANCH   5   7
ENDBRANCH   2   5
BRANCH   1  18
ATOM     18  C   UNL     1       0.507  11.195  20.833  0.00  0.00    +0.000 C 
ATOM     19  O   UNL     1       1.215  12.159  21.123  0.00  0.00    +0.000 OA
BRANCH  18  20
ATOM     20  C   UNL     1      -0.621  11.310  19.915  0.00  0.00    +0.000 A 
ATOM     21  C   UNL     1      -0.744  10.750  18.617  0.00  0.00    +0.000 A 
ATOM     22  C   UNL     1      -1.995  11.123  18.172  0.00  0.00    +0.000 A 
ATOM     23  O   UNL     1      -2.578  11.877  19.148  0.00  0.00    +0.000 OA
ATOM     24  N   UNL     1      -1.723  12.011  20.219  0.00  0.00    +0.000 NA
BRANCH  22  25
ATOM     25  C   UNL     1      -2.644  10.814  16.938  0.00  0.00    +0.000 A 
ATOM     26  C   UNL     1      -2.317   9.833  16.017  0.00  0.00    +0.000 A 
ATOM     27  C   UNL     1      -3.237   9.944  14.945  0.00  0.00    +0.000 A 
ATOM     28  C   UNL     1      -4.078  10.976  15.276  0.00  0.00    +0.000 A 
ATOM     29  O   UNL     1      -3.735  11.503  16.477  0.00  0.00    +0.000 OA
ENDBRANCH  22  25
ENDBRANCH  18  20
ENDBRANCH   1  18
TORSDOF 7
ENDMDL
MODEL 4
REMARK VINA RESULT:      -8.6      6.073      7.585
REMARK  Name = 
REMARK  7 active torsions:
REMARK  status: ('A' for Active; 'I' for Inactive)
REMARK    1  A    between atoms: C_2  and  C_3
REMARK    2  A    between atoms: C_3  and  C_17
REMARK    3  A    between atoms: N_4  and  N_5
REMARK    4  A    between atoms: N_5  and  C_6
REMARK    5  A    between atoms: C_11  and  C_12
REMARK    6  A    between atoms: C_17  and  C_19
REMARK    7  A    between atoms: C_21  and  C_22
REMARK                            x       y       z     vdW  Elec       q    Type
REMARK                         _______ _______ _______ _____ _____    ______ ____
ROOT
ATOM      1  C   UNL     1       7.564   6.642  18.023  0.00  0.00    +0.000 C 
ATOM      2  N   UNL     1       7.991   7.863  17.892  0.00  0.00    +0.000 NA
ENDROOT
BRANCH   1   4
ATOM      3  N   UNL     1       8.000   5.397  20.265  0.00  0.00    +0.000 NA
ATOM      4  C   UNL     1       7.779   5.959  19.276  0.00  0.00    +0.000 C 
ENDBRANCH   1   4
BRANCH   2   5
ATOM      5  N   UNL     1       8.682   8.500  18.873  0.00  0.00    +0.000 N 
ATOM      6  H   UNL     1       9.386   8.032  19.447  0.00  0.00    +0.000 HD
BRANCH   5   7
ATOM      7  C   UNL     1       8.877   9.890  18.722  0.00  0.00    +0.000 A 
ATOM      8  C   UNL     1       8.091  10.604  17.816  0.00  0.00    +0.000 A 
ATOM      9  C   UNL     1       8.344  11.956  17.569  0.00  0.00    +0.000 A 
ATOM     10  C   UNL     1       9.398  12.620  18.213  0.00  0.00    +0.000 A 
ATOM     11 CL   UNL     1       9.621  14.280  17.802  0.00  0.00    +0.000 Cl
ATOM     12  C   UNL     1      10.205  11.937  19.123  0.00  0.00    +0.000 A 
ATOM     13  C   UNL     1       9.926  10.571  19.362  0.00  0.00    +0.000 A 
BRANCH  12  14
ATOM     14  C   UNL     1      11.364  12.542  19.870  0.00  0.00    +0.000 C 
ATOM     15  F   UNL     1      11.057  13.459  20.825  0.00  0.00    +0.000 F 
ATOM     16  F   UNL     1      12.111  11.595  20.507  0.00  0.00    +0.000 F 
ATOM     17  F   UNL     1      12.232  13.180  19.030  0.00  0.00    +0.000 F 
ENDBRANCH  12  14
ENDBRANCH   5   7
ENDBRANCH   2   5
BRANCH   1  18
ATOM     18  C   UNL     1       6.835   5.980  16.884  0.00  0.00    +0.000 C 
ATOM     19  O   UNL     1       7.323   6.104  15.762  0.00  0.00    +0.000 OA
BRANCH  18  20
ATOM     20  C   UNL     1       5.601   5.236  17.117  0.00  0.00    +0.000 A 
ATOM     21  C   UNL     1       4.807   5.218  18.292  0.00  0.00    +0.000 A 
ATOM     22  C   UNL     1       3.744   4.387  18.006  0.00  0.00    +0.000 A 
ATOM     23  O   UNL     1       3.908   3.923  16.733  0.00  0.00    +0.000 OA
ATOM     24  N   UNL     1       5.066   4.431  16.188  0.00  0.00    +0.000 NA
BRANCH  22  25
ATOM     25  C   UNL     1       2.631   4.029  18.825  0.00  0.00    +0.000 A 
ATOM     26  C   UNL     1       1.957   2.820  18.879  0.00  0.00    +0.000 A 
ATOM     27  C   UNL     1       0.908   2.967  19.820  0.00  0.00    +0.000 A 
ATOM     28  C   UNL     1       1.007   4.252  20.295  0.00  0.00    +0.000 A 
ATOM     29  O   UNL     1       2.045   4.897  19.707  0.00  0.00    +0.000 OA
ENDBRANCH  22  25
ENDBRANCH  18  20
ENDBRANCH   1  18
TORSDOF 7
ENDMDL
MODEL 5
REMARK VINA RESULT:      -8.4      3.781      4.415
REMARK  Name = 
REMARK  7 active torsions:
REMARK  status: ('A' for Active; 'I' for Inactive)
REMARK    1  A    between atoms: C_2  and  C_3
REMARK    2  A    between atoms: C_3  and  C_17
REMARK    3  A    between atoms: N_4  and  N_5
REMARK    4  A    between atoms: N_5  and  C_6
REMARK    5  A    between atoms: C_11  and  C_12
REMARK    6  A    between atoms: C_17  and  C_19
REMARK    7  A    between atoms: C_21  and  C_22
REMARK                            x       y       z     vdW  Elec       q    Type
REMARK                         _______ _______ _______ _____ _____    ______ ____
ROOT
ATOM      1  C   UNL     1       6.348   5.303  17.628  0.00  0.00    +0.000 C 
ATOM      2  N   UNL     1       5.222   5.773  17.178  0.00  0.00    +0.000 NA
ENDROOT
BRANCH   1   4
ATOM      3  N   UNL     1       6.915   5.507  20.159  0.00  0.00    +0.000 NA
ATOM      4  C   UNL     1       6.634   5.412  19.038  0.00  0.00    +0.000 C 
ENDBRANCH   1   4
BRANCH   2   5
ATOM      5  N   UNL     1       4.330   6.411  17.977  0.00  0.00    +0.000 N 
ATOM      6  H   UNL     1       3.974   7.347  17.773  0.00  0.00    +0.000 HD
BRANCH   5   7
ATOM      7  C   UNL     1       3.455   5.604  18.736  0.00  0.00    +0.000 A 
ATOM      8  C   UNL     1       3.103   5.992  20.029  0.00  0.00    +0.000 A 
ATOM      9  C   UNL     1       2.331   5.151  20.837  0.00  0.00    +0.000 A 
ATOM     10  C   UNL     1       1.908   3.899  20.374  0.00  0.00    +0.000 A 
ATOM     11 CL   UNL     1       0.984   2.947  21.476  0.00  0.00    +0.000 Cl
ATOM     12  C   UNL     1       2.243   3.477  19.086  0.00  0.00    +0.000 A 
ATOM     13  C   UNL     1       3.019   4.346  18.285  0.00  0.00    +0.000 A 
BRANCH  12  14
ATOM     14  C   UNL     1       1.849   2.155  18.483  0.00  0.00    +0.000 C 
ATOM     15  F   UNL     1       0.517   1.889  18.423  0.00  0.00    +0.000 F 
ATOM     16  F   UNL     1       2.300   2.025  17.201  0.00  0.00    +0.000 F 
ATOM     17  F   UNL     1       2.392   1.103  19.164  0.00  0.00    +0.000 F 
ENDBRANCH  12  14
ENDBRANCH   5   7
ENDBRANCH   2   5
BRANCH   1  18
ATOM     18  C   UNL     1       7.311   4.637  16.682  0.00  0.00    +0.000 C 
ATOM     19  O   UNL     1       8.365   4.220  17.159  0.00  0.00    +0.000 OA
BRANCH  18  20
ATOM     20  C   UNL     1       6.995   4.506  15.263  0.00  0.00    +0.000 A 
ATOM     21  C   UNL     1       6.020   3.666  14.665  0.00  0.00    +0.000 A 
ATOM     22  C   UNL     1       6.094   3.922  13.312  0.00  0.00    +0.000 A 
ATOM     23  O   UNL     1       7.072   4.853  13.116  0.00  0.00    +0.000 OA
ATOM     24  N   UNL     1       7.644   5.201  14.319  0.00  0.00    +0.000 NA
BRANCH  22  25
ATOM     25  C   UNL     1       5.324   3.369  12.244  0.00  0.00    +0.000 A 
ATOM     26  C   UNL     1       4.204   3.902  11.627  0.00  0.00    +0.000 A 
ATOM     27  C   UNL     1       3.782   2.968  10.649  0.00  0.00    +0.000 A 
ATOM     28  C   UNL     1       4.672   1.924  10.716  0.00  0.00    +0.000 A 
ATOM     29  O   UNL     1       5.609   2.159  11.668  0.00  0.00    +0.000 OA
ENDBRANCH  22  25
ENDBRANCH  18  20
ENDBRANCH   1  18
TORSDOF 7
ENDMDL
MODEL 6
REMARK VINA RESULT:      -8.4      1.768      2.435
REMARK  Name = 
REMARK  7 active torsions:
REMARK  status: ('A' for Active; 'I' for Inactive)
REMARK    1  A    between atoms: C_2  and  C_3
REMARK    2  A    between atoms: C_3  and  C_17
REMARK    3  A    between atoms: N_4  and  N_5
REMARK    4  A    between atoms: N_5  and  C_6
REMARK    5  A    between atoms: C_11  and  C_12
REMARK    6  A    between atoms: C_17  and  C_19
REMARK    7  A    between atoms: C_21  and  C_22
REMARK                            x       y       z     vdW  Elec       q    Type
REMARK                         _______ _______ _______ _____ _____    ______ ____
ROOT
ATOM      1  C   UNL     1       3.026   4.130  19.912  0.00  0.00    +0.000 C 
ATOM      2  N   UNL     1       2.906   5.397  19.648  0.00  0.00    +0.000 NA
ENDROOT
BRANCH   1   4
ATOM      3  N   UNL     1       2.116   3.260  22.189  0.00  0.00    +0.000 NA
ATOM      4  C   UNL     1       2.548   3.635  21.180  0.00  0.00    +0.000 C 
ENDBRANCH   1   4
BRANCH   2   5
ATOM      5  N   UNL     1       2.397   6.281  20.545  0.00  0.00    +0.000 N 
ATOM      6  H   UNL     1       2.706   6.322  21.518  0.00  0.00    +0.000 HD
BRANCH   5   7
ATOM      7  C   UNL     1       1.902   7.501  20.034  0.00  0.00    +0.000 A 
ATOM      8  C   UNL     1       2.255   7.905  18.746  0.00  0.00    +0.000 A 
ATOM      9  C   UNL     1       1.869   9.160  18.265  0.00  0.00    +0.000 A 
ATOM     10  C   UNL     1       1.135  10.043  19.068  0.00  0.00    +0.000 A 
ATOM     11 CL   UNL     1       0.745  11.570  18.367  0.00  0.00    +0.000 Cl
ATOM     12  C   UNL     1       0.767   9.673  20.362  0.00  0.00    +0.000 A 
ATOM     13  C   UNL     1       1.162   8.397  20.825  0.00  0.00    +0.000 A 
BRANCH  12  14
ATOM     14  C   UNL     1      -0.017  10.537  21.315  0.00  0.00    +0.000 C 
ATOM     15  F   UNL     1      -1.223  10.983  20.877  0.00  0.00    +0.000 F 
ATOM     16  F   UNL     1      -0.276   9.894  22.491  0.00  0.00    +0.000 F 
ATOM     17  F   UNL     1       0.673  11.663  21.665  0.00  0.00    +0.000 F 
ENDBRANCH  12  14
ENDBRANCH   5   7
ENDBRANCH   2   5
BRANCH   1  18
ATOM     18  C   UNL     1       3.631   3.208  18.888  0.00  0.00    +0.000 C 
ATOM     19  O   UNL     1       3.182   2.065  18.830  0.00  0.00    +0.000 OA
BRANCH  18  20
ATOM     20  C   UNL     1       4.708   3.664  18.014  0.00  0.00    +0.000 A 
ATOM     21  C   UNL     1       4.741   3.649  16.596  0.00  0.00    +0.000 A 
ATOM     22  C   UNL     1       5.956   4.202  16.250  0.00  0.00    +0.000 A 
ATOM     23  O   UNL     1       6.616   4.515  17.403  0.00  0.00    +0.000 OA
ATOM     24  N   UNL     1       5.855   4.166  18.495  0.00  0.00    +0.000 NA
BRANCH  22  25
ATOM     25  C   UNL     1       6.500   4.448  14.953  0.00  0.00    +0.000 A 
ATOM     26  C   UNL     1       6.123   3.890  13.743  0.00  0.00    +0.000 A 
ATOM     27  C   UNL     1       6.979   4.427  12.750  0.00  0.00    +0.000 A 
ATOM     28  C   UNL     1       7.822   5.289  13.406  0.00  0.00    +0.000 A 
ATOM     29  O   UNL     1       7.537   5.315  14.732  0.00  0.00    +0.000 OA
ENDBRANCH  22  25
ENDBRANCH  18  20
ENDBRANCH   1  18
TORSDOF 7
ENDMDL
MODEL 7
REMARK VINA RESULT:      -8.3      5.998      9.517
REMARK  Name = 
REMARK  7 active torsions:
REMARK  status: ('A' for Active; 'I' for Inactive)
REMARK    1  A    between atoms: C_2  and  C_3
REMARK    2  A    between atoms: C_3  and  C_17
REMARK    3  A    between atoms: N_4  and  N_5
REMARK    4  A    between atoms: N_5  and  C_6
REMARK    5  A    between atoms: C_11  and  C_12
REMARK    6  A    between atoms: C_17  and  C_19
REMARK    7  A    between atoms: C_21  and  C_22
REMARK                            x       y       z     vdW  Elec       q    Type
REMARK                         _______ _______ _______ _____ _____    ______ ____
ROOT
ATOM      1  C   UNL     1       0.819   9.905  21.056  0.00  0.00    +0.000 C 
ATOM      2  N   UNL     1       1.416   8.941  20.419  0.00  0.00    +0.000 NA
ENDROOT
BRANCH   1   4
ATOM      3  N   UNL     1       0.380   9.587  23.600  0.00  0.00    +0.000 NA
ATOM      4  C   UNL     1       0.573   9.758  22.470  0.00  0.00    +0.000 C 
ENDBRANCH   1   4
BRANCH   2   5
ATOM      5  N   UNL     1       1.767   7.778  21.026  0.00  0.00    +0.000 N 
ATOM      6  H   UNL     1       1.458   7.530  21.968  0.00  0.00    +0.000 HD
BRANCH   5   7
ATOM      7  C   UNL     1       2.043   6.674  20.189  0.00  0.00    +0.000 A 
ATOM      8  C   UNL     1       2.627   6.884  18.940  0.00  0.00    +0.000 A 
ATOM      9  C   UNL     1       2.803   5.819  18.051  0.00  0.00    +0.000 A 
ATOM     10  C   UNL     1       2.384   4.525  18.388  0.00  0.00    +0.000 A 
ATOM     11 CL   UNL     1       2.634   3.305  17.194  0.00  0.00    +0.000 Cl
ATOM     12  C   UNL     1       1.793   4.279  19.628  0.00  0.00    +0.000 A 
ATOM     13  C   UNL     1       1.632   5.370  20.513  0.00  0.00    +0.000 A 
BRANCH  12  14
ATOM     14  C   UNL     1       1.302   2.935  20.097  0.00  0.00    +0.000 C 
ATOM     15  F   UNL     1       0.838   2.871  21.373  0.00  0.00    +0.000 F 
ATOM     16  F   UNL     1       0.284   2.465  19.320  0.00  0.00    +0.000 F 
ATOM     17  F   UNL     1       2.280   1.984  20.025  0.00  0.00    +0.000 F 
ENDBRANCH  12  14
ENDBRANCH   5   7
ENDBRANCH   2   5
BRANCH   1  18
ATOM     18  C   UNL     1       0.425  11.155  20.316  0.00  0.00    +0.000 C 
ATOM     19  O   UNL     1       1.124  12.152  20.491  0.00  0.00    +0.000 OA
BRANCH  18  20
ATOM     20  C   UNL     1      -0.742  11.170  19.440  0.00  0.00    +0.000 A 
ATOM     21  C   UNL     1      -2.028  11.703  19.715  0.00  0.00    +0.000 A 
ATOM     22  C   UNL     1      -2.767  11.492  18.570  0.00  0.00    +0.000 A 
ATOM     23  O   UNL     1      -1.966  10.853  17.669  0.00  0.00    +0.000 OA
ATOM     24  N   UNL     1      -0.720  10.634  18.211  0.00  0.00    +0.000 NA
BRANCH  22  25
ATOM     25  C   UNL     1      -4.120  11.851  18.289  0.00  0.00    +0.000 A 
ATOM     26  C   UNL     1      -4.867  11.567  17.158  0.00  0.00    +0.000 A 
ATOM     27  C   UNL     1      -6.140  12.162  17.338  0.00  0.00    +0.000 A 
ATOM     28  C   UNL     1      -6.103  12.765  18.571  0.00  0.00    +0.000 A 
ATOM     29  O   UNL     1      -4.893  12.577  19.155  0.00  0.00    +0.000 OA
ENDBRANCH  22  25
ENDBRANCH  18  20
ENDBRANCH   1  18
TORSDOF 7
ENDMDL
MODEL 8
REMARK VINA RESULT:      -8.2      1.854      2.404
REMARK  Name = 
REMARK  7 active torsions:
REMARK  status: ('A' for Active; 'I' for Inactive)
REMARK    1  A    between atoms: C_2  and  C_3
REMARK    2  A    between atoms: C_3  and  C_17
REMARK    3  A    between atoms: N_4  and  N_5
REMARK    4  A    between atoms: N_5  and  C_6
REMARK    5  A    between atoms: C_11  and  C_12
REMARK    6  A    between atoms: C_17  and  C_19
REMARK    7  A    between atoms: C_21  and  C_22
REMARK                            x       y       z     vdW  Elec       q    Type
REMARK                         _______ _______ _______ _____ _____    ______ ____
ROOT
ATOM      1  C   UNL     1       4.529   5.091  19.291  0.00  0.00    +0.000 C 
ATOM      2  N   UNL     1       3.814   6.172  19.396  0.00  0.00    +0.000 NA
ENDROOT
BRANCH   1   4
ATOM      3  N   UNL     1       3.387   2.761  19.486  0.00  0.00    +0.000 NA
ATOM      4  C   UNL     1       3.877   3.810  19.419  0.00  0.00    +0.000 C 
ENDBRANCH   1   4
BRANCH   2   5
ATOM      5  N   UNL     1       2.486   6.140  19.677  0.00  0.00    +0.000 N 
ATOM      6  H   UNL     1       2.010   5.299  20.009  0.00  0.00    +0.000 HD
BRANCH   5   7
ATOM      7  C   UNL     1       1.886   7.353  20.083  0.00  0.00    +0.000 A 
ATOM      8  C   UNL     1       1.171   7.403  21.280  0.00  0.00    +0.000 A 
ATOM      9  C   UNL     1       0.475   8.560  21.642  0.00  0.00    +0.000 A 
ATOM     10  C   UNL     1       0.468   9.686  20.808  0.00  0.00    +0.000 A 
ATOM     11 CL   UNL     1      -0.450  11.039  21.357  0.00  0.00    +0.000 Cl
ATOM     12  C   UNL     1       1.170   9.670  19.603  0.00  0.00    +0.000 A 
ATOM     13  C   UNL     1       1.872   8.491  19.260  0.00  0.00    +0.000 A 
BRANCH  12  14
ATOM     14  C   UNL     1       1.232  10.815  18.626  0.00  0.00    +0.000 C 
ATOM     15  F   UNL     1       0.049  11.223  18.096  0.00  0.00    +0.000 F 
ATOM     16  F   UNL     1       1.780  11.933  19.185  0.00  0.00    +0.000 F 
ATOM     17  F   UNL     1       2.023  10.524  17.552  0.00  0.00    +0.000 F 
ENDBRANCH  12  14
ENDBRANCH   5   7
ENDBRANCH   2   5
BRANCH   1  18
ATOM     18  C   UNL     1       6.004   5.196  19.013  0.00  0.00    +0.000 C 
ATOM     19  O   UNL     1       6.759   5.179  19.984  0.00  0.00    +0.000 OA
BRANCH  18  20
ATOM     20  C   UNL     1       6.501   5.320  17.646  0.00  0.00    +0.000 A 
ATOM     21  C   UNL     1       6.133   4.547  16.515  0.00  0.00    +0.000 A 
ATOM     22  C   UNL     1       6.859   5.064  15.463  0.00  0.00    +0.000 A 
ATOM     23  O   UNL     1       7.630   6.081  15.947  0.00  0.00    +0.000 OA
ATOM     24  N   UNL     1       7.425   6.228  17.301  0.00  0.00    +0.000 NA
BRANCH  22  25
ATOM     25  C   UNL     1       6.860   4.676  14.089  0.00  0.00    +0.000 A 
ATOM     26  C   UNL     1       6.168   3.637  13.488  0.00  0.00    +0.000 A 
ATOM     27  C   UNL     1       6.520   3.638  12.116  0.00  0.00    +0.000 A 
ATOM     28  C   UNL     1       7.397   4.682  11.954  0.00  0.00    +0.000 A 
ATOM     29  O   UNL     1       7.603   5.318  13.134  0.00  0.00    +0.000 OA
ENDBRANCH  22  25
ENDBRANCH  18  20
ENDBRANCH   1  18
TORSDOF 7
ENDMDL
MODEL 9
REMARK VINA RESULT:      -8.2      3.532      5.427
REMARK  Name = 
REMARK  7 active torsions:
REMARK  status: ('A' for Active; 'I' for Inactive)
REMARK    1  A    between atoms: C_2  and  C_3
REMARK    2  A    between atoms: C_3  and  C_17
REMARK    3  A    between atoms: N_4  and  N_5
REMARK    4  A    between atoms: N_5  and  C_6
REMARK    5  A    between atoms: C_11  and  C_12
REMARK    6  A    between atoms: C_17  and  C_19
REMARK    7  A    between atoms: C_21  and  C_22
REMARK                            x       y       z     vdW  Elec       q    Type
REMARK                         _______ _______ _______ _____ _____    ______ ____
ROOT
ATOM      1  C   UNL     1       5.616   5.033  18.324  0.00  0.00    +0.000 C 
ATOM      2  N   UNL     1       4.677   5.805  17.860  0.00  0.00    +0.000 NA
ENDROOT
BRANCH   1   4
ATOM      3  N   UNL     1       4.970   2.887  19.644  0.00  0.00    +0.000 NA
ATOM      4  C   UNL     1       5.244   3.860  19.076  0.00  0.00    +0.000 C 
ENDBRANCH   1   4
BRANCH   2   5
ATOM      5  N   UNL     1       3.362   5.576  18.105  0.00  0.00    +0.000 N 
ATOM      6  H   UNL     1       2.956   4.638  18.121  0.00  0.00    +0.000 HD
BRANCH   5   7
ATOM      7  C   UNL     1       2.683   6.523  18.903  0.00  0.00    +0.000 A 
ATOM      8  C   UNL     1       2.174   6.142  20.145  0.00  0.00    +0.000 A 
ATOM      9  C   UNL     1       1.402   7.031  20.898  0.00  0.00    +0.000 A 
ATOM     10  C   UNL     1       1.110   8.315  20.419  0.00  0.00    +0.000 A 
ATOM     11 CL   UNL     1       0.126   9.305  21.432  0.00  0.00    +0.000 Cl
ATOM     12  C   UNL     1       1.601   8.729  19.180  0.00  0.00    +0.000 A 
ATOM     13  C   UNL     1       2.385   7.815  18.439  0.00  0.00    +0.000 A 
BRANCH  12  14
ATOM     14  C   UNL     1       1.350  10.079  18.562  0.00  0.00    +0.000 C 
ATOM     15  F   UNL     1       1.509  11.157  19.375  0.00  0.00    +0.000 F 
ATOM     16  F   UNL     1       2.168  10.311  17.494  0.00  0.00    +0.000 F 
ATOM     17  F   UNL     1       0.080  10.187  18.073  0.00  0.00    +0.000 F 
ENDBRANCH  12  14
ENDBRANCH   5   7
ENDBRANCH   2   5
BRANCH   1  18
ATOM     18  C   UNL     1       7.058   5.362  18.045  0.00  0.00    +0.000 C 
ATOM     19  O   UNL     1       7.839   4.417  17.955  0.00  0.00    +0.000 OA
BRANCH  18  20
ATOM     20  C   UNL     1       7.495   6.747  17.899  0.00  0.00    +0.000 A 
ATOM     21  C   UNL     1       8.222   7.531  18.832  0.00  0.00    +0.000 A 
ATOM     22  C   UNL     1       8.407   8.753  18.221  0.00  0.00    +0.000 A 
ATOM     23  O   UNL     1       7.806   8.703  16.997  0.00  0.00    +0.000 OA
ATOM     24  N   UNL     1       7.224   7.470  16.803  0.00  0.00    +0.000 NA
BRANCH  22  25
ATOM     25  C   UNL     1       9.093   9.909  18.702  0.00  0.00    +0.000 A 
ATOM     26  C   UNL     1       9.710  10.909  17.969  0.00  0.00    +0.000 A 
ATOM     27  C   UNL     1      10.276  11.818  18.896  0.00  0.00    +0.000 A 
ATOM     28  C   UNL     1       9.963  11.330  20.141  0.00  0.00    +0.000 A 
ATOM     29  O   UNL     1       9.245  10.185  20.035  0.00  0.00    +0.000 OA
ENDBRANCH  22  25
ENDBRANCH  18  20
ENDBRANCH   1  18
TORSDOF 7
ENDMDL
