MODEL 1
REMARK VINA RESULT:      -8.0      0.000      0.000
REMARK  Name = 
REMARK  8 active torsions:
REMARK  status: ('A' for Active; 'I' for Inactive)
REMARK    1  A    between atoms: N_2  and  C_4
REMARK    2  A    between atoms: C_6  and  S_7
REMARK    3  A    between atoms: S_7  and  N_10
REMARK    4  A    between atoms: N_10  and  C_11
REMARK    5  A    between atoms: C_11  and  C_12
REMARK    6  A    between atoms: C_20  and  N_21
REMARK    7  A    between atoms: N_21  and  C_22
REMARK    8  A    between atoms: C_22  and  C_23
REMARK                            x       y       z     vdW  Elec       q    Type
REMARK                         _______ _______ _______ _____ _____    ______ ____
ROOT
ATOM      1  C   UNL     1       1.846   5.248  20.225  0.00  0.00    +0.000 A 
ATOM      2  C   UNL     1       1.428   6.354  20.987  0.00  0.00    +0.000 A 
ATOM      3  C   UNL     1       1.553   7.632  20.451  0.00  0.00    +0.000 A 
ATOM      4  C   UNL     1       2.160   7.809  19.211  0.00  0.00    +0.000 A 
ATOM      5  C   UNL     1       2.604   6.695  18.487  0.00  0.00    +0.000 A 
ATOM      6  C   UNL     1       2.397   5.375  18.932  0.00  0.00    +0.000 A 
ENDROOT
BRANCH   1   8
ATOM      7  O   UNL     1       0.772   3.218  20.196  0.00  0.00    +0.000 OA
ATOM      8  N   UNL     1       1.568   3.947  20.803  0.00  0.00    +0.000 N 
ATOM      9  O   UNL     1       2.131   3.664  21.869  0.00  0.00    +0.000 OA
ENDBRANCH   1   8
BRANCH   3  10
ATOM     10  S   UNL     1       0.779   8.998  21.282  0.00  0.00    +0.000 S 
ATOM     11  O   UNL     1      -0.524   8.539  21.712  0.00  0.00    +0.000 OA
ATOM     12  O   UNL     1       1.751   9.532  22.204  0.00  0.00    +0.000 OA
BRANCH  10  13
ATOM     13  N   UNL     1       0.585  10.145  20.071  0.00  0.00    +0.000 NA
ATOM     14  H   UNL     1       0.719   9.773  19.131  0.00  0.00    +0.000 HD
BRANCH  13  15
ATOM     15  C   UNL     1      -0.572  11.037  20.200  0.00  0.00    +0.000 C 
BRANCH  15  16
ATOM     16  C   UNL     1      -1.479  10.920  19.003  0.00  0.00    +0.000 A 
ATOM     17  C   UNL     1      -1.196  10.003  17.983  0.00  0.00    +0.000 A 
ATOM     18  C   UNL     1      -2.037   9.905  16.875  0.00  0.00    +0.000 A 
ATOM     19  C   UNL     1      -3.164  10.719  16.781  0.00  0.00    +0.000 A 
ATOM     20  C   UNL     1      -3.457  11.628  17.794  0.00  0.00    +0.000 A 
ATOM     21  C   UNL     1      -2.620  11.727  18.904  0.00  0.00    +0.000 A 
ENDBRANCH  15  16
ENDBRANCH  13  15
ENDBRANCH  10  13
ENDBRANCH   3  10
BRANCH   6  22
ATOM     22  N   UNL     1       2.787   4.293  18.121  0.00  0.00    +0.000 N 
ATOM     23  H   UNL     1       2.639   4.428  17.124  0.00  0.00    +0.000 HD
BRANCH  22  24
ATOM     24  C   UNL     1       4.100   3.695  18.399  0.00  0.00    +0.000 C 
BRANCH  24  25
ATOM     25  C   UNL     1       5.143   4.149  17.405  0.00  0.00    +0.000 A 
ATOM     26  C   UNL     1       6.424   4.529  17.831  0.00  0.00    +0.000 A 
ATOM     27  C   UNL     1       7.406   4.869  16.899  0.00  0.00    +0.000 A 
ATOM     28  C   UNL     1       7.122   4.827  15.536  0.00  0.00    +0.000 A 
ATOM     29  C   UNL     1       5.854   4.444  15.101  0.00  0.00    +0.000 A 
ATOM     30  C   UNL     1       4.869   4.107  16.031  0.00  0.00    +0.000 A 
ENDBRANCH  24  25
ENDBRANCH  22  24
ENDBRANCH   6  22
TORSDOF 8
ENDMDL
MODEL 2
REMARK VINA RESULT:      -8.0      1.208      1.869
REMARK  Name = 
REMARK  8 active torsions:
REMARK  status: ('A' for Active; 'I' for Inactive)
REMARK    1  A    between atoms: N_2  and  C_4
REMARK    2  A    between atoms: C_6  and  S_7
REMARK    3  A    between atoms: S_7  and  N_10
REMARK    4  A    between atoms: N_10  and  C_11
REMARK    5  A    between atoms: C_11  and  C_12
REMARK    6  A    between atoms: C_20  and  N_21
REMARK    7  A    between atoms: N_21  and  C_22
REMARK    8  A    between atoms: C_22  and  C_23
REMARK                            x       y       z     vdW  Elec       q    Type
REMARK                         _______ _______ _______ _____ _____    ______ ____
ROOT
ATOM      1  C   UNL     1       2.457   5.693  19.918  0.00  0.00    +0.000 A 
ATOM      2  C   UNL     1       1.879   6.674  20.743  0.00  0.00    +0.000 A 
ATOM      3  C   UNL     1       1.680   7.954  20.237  0.00  0.00    +0.000 A 
ATOM      4  C   UNL     1       2.126   8.272  18.957  0.00  0.00    +0.000 A 
ATOM      5  C   UNL     1       2.734   7.288  18.166  0.00  0.00    +0.000 A 
ATOM      6  C   UNL     1       2.854   5.950  18.589  0.00  0.00    +0.000 A 
ENDROOT
BRANCH   1   8
ATOM      7  O   UNL     1       3.497   3.662  20.179  0.00  0.00    +0.000 OA
ATOM      8  N   UNL     1       2.516   4.357  20.479  0.00  0.00    +0.000 N 
ATOM      9  O   UNL     1       1.577   3.999  21.202  0.00  0.00    +0.000 OA
ENDBRANCH   1   8
BRANCH   3  10
ATOM     10  S   UNL     1       0.706   9.112  21.168  0.00  0.00    +0.000 S 
ATOM     11  O   UNL     1      -0.575   8.482  21.404  0.00  0.00    +0.000 OA
ATOM     12  O   UNL     1       1.539   9.589  22.243  0.00  0.00    +0.000 OA
BRANCH  10  13
ATOM     13  N   UNL     1       0.498  10.401  20.112  0.00  0.00    +0.000 NA
ATOM     14  H   UNL     1       0.771  10.190  19.152  0.00  0.00    +0.000 HD
BRANCH  13  15
ATOM     15  C   UNL     1      -0.766  11.137  20.225  0.00  0.00    +0.000 C 
BRANCH  15  16
ATOM     16  C   UNL     1      -1.607  10.956  18.989  0.00  0.00    +0.000 A 
ATOM     17  C   UNL     1      -2.798  11.674  18.827  0.00  0.00    +0.000 A 
ATOM     18  C   UNL     1      -3.574  11.496  17.681  0.00  0.00    +0.000 A 
ATOM     19  C   UNL     1      -3.163  10.604  16.693  0.00  0.00    +0.000 A 
ATOM     20  C   UNL     1      -1.976   9.891  16.842  0.00  0.00    +0.000 A 
ATOM     21  C   UNL     1      -1.197  10.068  17.985  0.00  0.00    +0.000 A 
ENDBRANCH  15  16
ENDBRANCH  13  15
ENDBRANCH  10  13
ENDBRANCH   3  10
BRANCH   6  22
ATOM     22  N   UNL     1       3.397   4.987  17.717  0.00  0.00    +0.000 N 
ATOM     23  H   UNL     1       2.713   4.390  17.258  0.00  0.00    +0.000 HD
BRANCH  22  24
ATOM     24  C   UNL     1       4.432   5.446  16.781  0.00  0.00    +0.000 C 
BRANCH  24  25
ATOM     25  C   UNL     1       5.674   5.909  17.506  0.00  0.00    +0.000 A 
ATOM     26  C   UNL     1       6.201   5.169  18.574  0.00  0.00    +0.000 A 
ATOM     27  C   UNL     1       7.394   5.560  19.185  0.00  0.00    +0.000 A 
ATOM     28  C   UNL     1       8.073   6.689  18.732  0.00  0.00    +0.000 A 
ATOM     29  C   UNL     1       7.563   7.428  17.667  0.00  0.00    +0.000 A 
ATOM     30  C   UNL     1       6.368   7.041  17.057  0.00  0.00    +0.000 A 
ENDBRANCH  24  25
ENDBRANCH  22  24
ENDBRANCH   6  22
TORSDOF 8
ENDMDL
MODEL 3
REMARK VINA RESULT:      -7.9      2.813      8.463
REMARK  Name = 
REMARK  8 active torsions:
REMARK  status: ('A' for Active; 'I' for Inactive)
REMARK    1  A    between atoms: N_2  and  C_4
REMARK    2  A    between atoms: C_6  and  S_7
REMARK    3  A    between atoms: S_7  and  N_10
REMARK    4  A    between atoms: N_10  and  C_11
REMARK    5  A    between atoms: C_11  and  C_12
REMARK    6  A    between atoms: C_20  and  N_21
REMARK    7  A    between atoms: N_21  and  C_22
REMARK    8  A    between atoms: C_22  and  C_23
REMARK                            x       y       z     vdW  Elec       q    Type
REMARK                         _______ _______ _______ _____ _____    ______ ____
ROOT
ATOM      1  C   UNL     1       2.431   6.965  18.863  0.00  0.00    +0.000 A 
ATOM      2  C   UNL     1       2.768   5.779  18.187  0.00  0.00    +0.000 A 
ATOM      3  C   UNL     1       2.681   4.566  18.862  0.00  0.00    +0.000 A 
ATOM      4  C   UNL     1       2.343   4.546  20.213  0.00  0.00    +0.000 A 
ATOM      5  C   UNL     1       2.048   5.744  20.876  0.00  0.00    +0.000 A 
ATOM      6  C   UNL     1       2.010   6.984  20.209  0.00  0.00    +0.000 A 
ENDROOT
BRANCH   1   8
ATOM      7  O   UNL     1       1.370   8.809  17.996  0.00  0.00    +0.000 OA
ATOM      8  N   UNL     1       2.429   8.170  18.054  0.00  0.00    +0.000 N 
ATOM      9  O   UNL     1       3.479   8.464  17.466  0.00  0.00    +0.000 OA
ENDBRANCH   1   8
BRANCH   3  10
ATOM     10  S   UNL     1       2.834   3.052  17.946  0.00  0.00    +0.000 S 
ATOM     11  O   UNL     1       2.408   1.987  18.828  0.00  0.00    +0.000 OA
ATOM     12  O   UNL     1       2.223   3.279  16.660  0.00  0.00    +0.000 OA
BRANCH  10  13
ATOM     13  N   UNL     1       4.486   2.913  17.675  0.00  0.00    +0.000 NA
ATOM     14  H   UNL     1       4.813   1.948  17.636  0.00  0.00    +0.000 HD
BRANCH  13  15
ATOM     15  C   UNL     1       5.050   3.777  16.633  0.00  0.00    +0.000 C 
BRANCH  15  16
ATOM     16  C   UNL     1       5.983   4.799  17.227  0.00  0.00    +0.000 A 
ATOM     17  C   UNL     1       6.460   4.651  18.535  0.00  0.00    +0.000 A 
ATOM     18  C   UNL     1       7.320   5.606  19.080  0.00  0.00    +0.000 A 
ATOM     19  C   UNL     1       7.707   6.709  18.322  0.00  0.00    +0.000 A 
ATOM     20  C   UNL     1       7.242   6.860  17.018  0.00  0.00    +0.000 A 
ATOM     21  C   UNL     1       6.385   5.907  16.470  0.00  0.00    +0.000 A 
ENDBRANCH  15  16
ENDBRANCH  13  15
ENDBRANCH  10  13
ENDBRANCH   3  10
BRANCH   6  22
ATOM     22  N   UNL     1       1.623   8.144  20.908  0.00  0.00    +0.000 N 
ATOM     23  H   UNL     1       1.814   9.019  20.427  0.00  0.00    +0.000 HD
BRANCH  22  24
ATOM     24  C   UNL     1       0.285   8.138  21.515  0.00  0.00    +0.000 C 
BRANCH  24  25
ATOM     25  C   UNL     1      -0.251   9.538  21.699  0.00  0.00    +0.000 A 
ATOM     26  C   UNL     1      -0.418  10.393  20.600  0.00  0.00    +0.000 A 
ATOM     27  C   UNL     1      -0.990  11.656  20.768  0.00  0.00    +0.000 A 
ATOM     28  C   UNL     1      -1.405  12.073  22.030  0.00  0.00    +0.000 A 
ATOM     29  C   UNL     1      -1.249  11.230  23.128  0.00  0.00    +0.000 A 
ATOM     30  C   UNL     1      -0.674   9.968  22.964  0.00  0.00    +0.000 A 
ENDBRANCH  24  25
ENDBRANCH  22  24
ENDBRANCH   6  22
TORSDOF 8
ENDMDL
MODEL 4
REMARK VINA RESULT:      -7.9      3.206      4.832
REMARK  Name = 
REMARK  8 active torsions:
REMARK  status: ('A' for Active; 'I' for Inactive)
REMARK    1  A    between atoms: N_2  and  C_4
REMARK    2  A    between atoms: C_6  and  S_7
REMARK    3  A    between atoms: S_7  and  N_10
REMARK    4  A    between atoms: N_10  and  C_11
REMARK    5  A    between atoms: C_11  and  C_12
REMARK    6  A    between atoms: C_20  and  N_21
REMARK    7  A    between atoms: N_21  and  C_22
REMARK    8  A    between atoms: C_22  and  C_23
REMARK                            x       y       z     vdW  Elec       q    Type
REMARK                         _______ _______ _______ _____ _____    ______ ____
ROOT
ATOM      1  C   UNL     1       0.286   9.590  21.008  0.00  0.00    +0.000 A 
ATOM      2  C   UNL     1      -0.404  10.722  20.537  0.00  0.00    +0.000 A 
ATOM      3  C   UNL     1      -0.255  11.102  19.207  0.00  0.00    +0.000 A 
ATOM      4  C   UNL     1       0.630  10.411  18.383  0.00  0.00    +0.000 A 
ATOM      5  C   UNL     1       1.334   9.310  18.884  0.00  0.00    +0.000 A 
ATOM      6  C   UNL     1       1.134   8.816  20.187  0.00  0.00    +0.000 A 
ENDROOT
BRANCH   1   8
ATOM      7  O   UNL     1      -0.749   8.202  22.517  0.00  0.00    +0.000 OA
ATOM      8  N   UNL     1      -0.019   9.191  22.369  0.00  0.00    +0.000 N 
ATOM      9  O   UNL     1       0.458   9.875  23.284  0.00  0.00    +0.000 OA
ENDBRANCH   1   8
BRANCH   3  10
ATOM     10  S   UNL     1      -1.327  12.351  18.539  0.00  0.00    +0.000 S 
ATOM     11  O   UNL     1      -2.308  12.647  19.561  0.00  0.00    +0.000 OA
ATOM     12  O   UNL     1      -0.479  13.367  17.967  0.00  0.00    +0.000 OA
BRANCH  10  13
ATOM     13  N   UNL     1      -2.087  11.581  17.255  0.00  0.00    +0.000 NA
ATOM     14  H   UNL     1      -1.462  11.369  16.478  0.00  0.00    +0.000 HD
BRANCH  13  15
ATOM     15  C   UNL     1      -3.000  10.486  17.601  0.00  0.00    +0.000 C 
BRANCH  15  16
ATOM     16  C   UNL     1      -4.418  10.983  17.716  0.00  0.00    +0.000 A 
ATOM     17  C   UNL     1      -5.319  10.366  18.592  0.00  0.00    +0.000 A 
ATOM     18  C   UNL     1      -6.632  10.828  18.688  0.00  0.00    +0.000 A 
ATOM     19  C   UNL     1      -7.048  11.909  17.913  0.00  0.00    +0.000 A 
ATOM     20  C   UNL     1      -6.156  12.533  17.045  0.00  0.00    +0.000 A 
ATOM     21  C   UNL     1      -4.843  12.075  16.948  0.00  0.00    +0.000 A 
ENDBRANCH  15  16
ENDBRANCH  13  15
ENDBRANCH  10  13
ENDBRANCH   3  10
BRANCH   6  22
ATOM     22  N   UNL     1       1.807   7.653  20.607  0.00  0.00    +0.000 N 
ATOM     23  H   UNL     1       1.275   7.051  21.230  0.00  0.00    +0.000 HD
BRANCH  22  24
ATOM     24  C   UNL     1       2.508   6.881  19.573  0.00  0.00    +0.000 C 
BRANCH  24  25
ATOM     25  C   UNL     1       1.954   5.482  19.448  0.00  0.00    +0.000 A 
ATOM     26  C   UNL     1       1.984   4.804  18.220  0.00  0.00    +0.000 A 
ATOM     27  C   UNL     1       1.545   3.481  18.133  0.00  0.00    +0.000 A 
ATOM     28  C   UNL     1       1.078   2.823  19.268  0.00  0.00    +0.000 A 
ATOM     29  C   UNL     1       1.050   3.484  20.494  0.00  0.00    +0.000 A 
ATOM     30  C   UNL     1       1.485   4.808  20.584  0.00  0.00    +0.000 A 
ENDBRANCH  24  25
ENDBRANCH  22  24
ENDBRANCH   6  22
TORSDOF 8
ENDMDL
MODEL 5
REMARK VINA RESULT:      -7.9      1.528      1.965
REMARK  Name = 
REMARK  8 active torsions:
REMARK  status: ('A' for Active; 'I' for Inactive)
REMARK    1  A    between atoms: N_2  and  C_4
REMARK    2  A    between atoms: C_6  and  S_7
REMARK    3  A    between atoms: S_7  and  N_10
REMARK    4  A    between atoms: N_10  and  C_11
REMARK    5  A    between atoms: C_11  and  C_12
REMARK    6  A    between atoms: C_20  and  N_21
REMARK    7  A    between atoms: N_21  and  C_22
REMARK    8  A    between atoms: C_22  and  C_23
REMARK                            x       y       z     vdW  Elec       q    Type
REMARK                         _______ _______ _______ _____ _____    ______ ____
ROOT
ATOM      1  C   UNL     1       2.398   6.366  19.693  0.00  0.00    +0.000 A 
ATOM      2  C   UNL     1       1.744   7.365  20.437  0.00  0.00    +0.000 A 
ATOM      3  C   UNL     1       1.502   8.601  19.847  0.00  0.00    +0.000 A 
ATOM      4  C   UNL     1       1.977   8.862  18.564  0.00  0.00    +0.000 A 
ATOM      5  C   UNL     1       2.660   7.865  17.856  0.00  0.00    +0.000 A 
ATOM      6  C   UNL     1       2.829   6.563  18.364  0.00  0.00    +0.000 A 
ENDROOT
BRANCH   1   8
ATOM      7  O   UNL     1       1.510   4.671  20.962  0.00  0.00    +0.000 OA
ATOM      8  N   UNL     1       2.501   5.071  20.337  0.00  0.00    +0.000 N 
ATOM      9  O   UNL     1       3.576   4.464  20.231  0.00  0.00    +0.000 OA
ENDBRANCH   1   8
BRANCH   3  10
ATOM     10  S   UNL     1       0.441   9.761  20.672  0.00  0.00    +0.000 S 
ATOM     11  O   UNL     1      -0.699   9.012  21.156  0.00  0.00    +0.000 OA
ATOM     12  O   UNL     1       1.277  10.542  21.549  0.00  0.00    +0.000 OA
BRANCH  10  13
ATOM     13  N   UNL     1      -0.061  10.790  19.443  0.00  0.00    +0.000 NA
ATOM     14  H   UNL     1       0.187  10.462  18.510  0.00  0.00    +0.000 HD
BRANCH  13  15
ATOM     15  C   UNL     1      -1.428  11.311  19.548  0.00  0.00    +0.000 C 
BRANCH  15  16
ATOM     16  C   UNL     1      -2.216  11.011  18.300  0.00  0.00    +0.000 A 
ATOM     17  C   UNL     1      -1.699  10.154  17.321  0.00  0.00    +0.000 A 
ATOM     18  C   UNL     1      -2.433   9.886  16.165  0.00  0.00    +0.000 A 
ATOM     19  C   UNL     1      -3.685  10.470  15.983  0.00  0.00    +0.000 A 
ATOM     20  C   UNL     1      -4.210  11.318  16.956  0.00  0.00    +0.000 A 
ATOM     21  C   UNL     1      -3.480  11.586  18.113  0.00  0.00    +0.000 A 
ENDBRANCH  15  16
ENDBRANCH  13  15
ENDBRANCH  10  13
ENDBRANCH   3  10
BRANCH   6  22
ATOM     22  N   UNL     1       3.448   5.577  17.572  0.00  0.00    +0.000 N 
ATOM     23  H   UNL     1       2.809   4.954  17.085  0.00  0.00    +0.000 HD
BRANCH  22  24
ATOM     24  C   UNL     1       4.546   6.018  16.701  0.00  0.00    +0.000 C 
BRANCH  24  25
ATOM     25  C   UNL     1       5.802   6.307  17.488  0.00  0.00    +0.000 A 
ATOM     26  C   UNL     1       6.235   5.433  18.496  0.00  0.00    +0.000 A 
ATOM     27  C   UNL     1       7.440   5.665  19.162  0.00  0.00    +0.000 A 
ATOM     28  C   UNL     1       8.225   6.765  18.826  0.00  0.00    +0.000 A 
ATOM     29  C   UNL     1       7.808   7.637  17.821  0.00  0.00    +0.000 A 
ATOM     30  C   UNL     1       6.602   7.410  17.156  0.00  0.00    +0.000 A 
ENDBRANCH  24  25
ENDBRANCH  22  24
ENDBRANCH   6  22
TORSDOF 8
ENDMDL
MODEL 6
REMARK VINA RESULT:      -7.9      0.538      1.377
REMARK  Name = 
REMARK  8 active torsions:
REMARK  status: ('A' for Active; 'I' for Inactive)
REMARK    1  A    between atoms: N_2  and  C_4
REMARK    2  A    between atoms: C_6  and  S_7
REMARK    3  A    between atoms: S_7  and  N_10
REMARK    4  A    between atoms: N_10  and  C_11
REMARK    5  A    between atoms: C_11  and  C_12
REMARK    6  A    between atoms: C_20  and  N_21
REMARK    7  A    between atoms: N_21  and  C_22
REMARK    8  A    between atoms: C_22  and  C_23
REMARK                            x       y       z     vdW  Elec       q    Type
REMARK                         _______ _______ _______ _____ _____    ______ ____
ROOT
ATOM      1  C   UNL     1       2.060   4.915  20.435  0.00  0.00    +0.000 A 
ATOM      2  C   UNL     1       1.511   6.038  21.080  0.00  0.00    +0.000 A 
ATOM      3  C   UNL     1       1.687   7.297  20.515  0.00  0.00    +0.000 A 
ATOM      4  C   UNL     1       2.465   7.441  19.370  0.00  0.00    +0.000 A 
ATOM      5  C   UNL     1       3.033   6.313  18.765  0.00  0.00    +0.000 A 
ATOM      6  C   UNL     1       2.791   5.006  19.231  0.00  0.00    +0.000 A 
ENDROOT
BRANCH   1   8
ATOM      7  O   UNL     1       0.959   2.899  20.380  0.00  0.00    +0.000 OA
ATOM      8  N   UNL     1       1.727   3.630  21.021  0.00  0.00    +0.000 N 
ATOM      9  O   UNL     1       2.220   3.362  22.124  0.00  0.00    +0.000 OA
ENDBRANCH   1   8
BRANCH   3  10
ATOM     10  S   UNL     1       0.771   8.673  21.166  0.00  0.00    +0.000 S 
ATOM     11  O   UNL     1      -0.550   8.178  21.487  0.00  0.00    +0.000 OA
ATOM     12  O   UNL     1       1.615   9.309  22.147  0.00  0.00    +0.000 OA
BRANCH  10  13
ATOM     13  N   UNL     1       0.661   9.731  19.867  0.00  0.00    +0.000 NA
ATOM     14  H   UNL     1       0.634   9.264  18.961  0.00  0.00    +0.000 HD
BRANCH  13  15
ATOM     15  C   UNL     1      -0.303  10.828  20.002  0.00  0.00    +0.000 C 
BRANCH  15  16
ATOM     16  C   UNL     1      -1.320  10.790  18.892  0.00  0.00    +0.000 A 
ATOM     17  C   UNL     1      -2.455  11.610  18.938  0.00  0.00    +0.000 A 
ATOM     18  C   UNL     1      -3.395  11.564  17.909  0.00  0.00    +0.000 A 
ATOM     19  C   UNL     1      -3.206  10.704  16.829  0.00  0.00    +0.000 A 
ATOM     20  C   UNL     1      -2.077   9.891  16.772  0.00  0.00    +0.000 A 
ATOM     21  C   UNL     1      -1.134   9.935  17.797  0.00  0.00    +0.000 A 
ENDBRANCH  15  16
ENDBRANCH  13  15
ENDBRANCH  10  13
ENDBRANCH   3  10
BRANCH   6  22
ATOM     22  N   UNL     1       3.319   3.904  18.532  0.00  0.00    +0.000 N 
ATOM     23  H   UNL     1       2.967   2.998  18.832  0.00  0.00    +0.000 HD
BRANCH  22  24
ATOM     24  C   UNL     1       3.370   4.010  17.068  0.00  0.00    +0.000 C 
BRANCH  24  25
ATOM     25  C   UNL     1       4.779   4.236  16.573  0.00  0.00    +0.000 A 
ATOM     26  C   UNL     1       5.036   4.457  15.212  0.00  0.00    +0.000 A 
ATOM     27  C   UNL     1       6.330   4.747  14.775  0.00  0.00    +0.000 A 
ATOM     28  C   UNL     1       7.376   4.824  15.691  0.00  0.00    +0.000 A 
ATOM     29  C   UNL     1       7.132   4.613  17.046  0.00  0.00    +0.000 A 
ATOM     30  C   UNL     1       5.840   4.320  17.486  0.00  0.00    +0.000 A 
ENDBRANCH  24  25
ENDBRANCH  22  24
ENDBRANCH   6  22
TORSDOF 8
ENDMDL
MODEL 7
REMARK VINA RESULT:      -7.8      2.872      4.617
REMARK  Name = 
REMARK  8 active torsions:
REMARK  status: ('A' for Active; 'I' for Inactive)
REMARK    1  A    between atoms: N_2  and  C_4
REMARK    2  A    between atoms: C_6  and  S_7
REMARK    3  A    between atoms: S_7  and  N_10
REMARK    4  A    between atoms: N_10  and  C_11
REMARK    5  A    between atoms: C_11  and  C_12
REMARK    6  A    between atoms: C_20  and  N_21
REMARK    7  A    between atoms: N_21  and  C_22
REMARK    8  A    between atoms: C_22  and  C_23
REMARK                            x       y       z     vdW  Elec       q    Type
REMARK                         _______ _______ _______ _____ _____    ______ ____
ROOT
ATOM      1  C   UNL     1       5.806   5.150  18.646  0.00  0.00    +0.000 A 
ATOM      2  C   UNL     1       4.719   5.305  19.525  0.00  0.00    +0.000 A 
ATOM      3  C   UNL     1       3.507   4.696  19.217  0.00  0.00    +0.000 A 
ATOM      4  C   UNL     1       3.359   4.013  18.012  0.00  0.00    +0.000 A 
ATOM      5  C   UNL     1       4.446   3.904  17.135  0.00  0.00    +0.000 A 
ATOM      6  C   UNL     1       5.723   4.403  17.452  0.00  0.00    +0.000 A 
ENDROOT
BRANCH   1   8
ATOM      7  O   UNL     1       7.604   6.553  18.368  0.00  0.00    +0.000 OA
ATOM      8  N   UNL     1       7.064   5.712  19.100  0.00  0.00    +0.000 N 
ATOM      9  O   UNL     1       7.518   5.300  20.176  0.00  0.00    +0.000 OA
ENDBRANCH   1   8
BRANCH   3  10
ATOM     10  S   UNL     1       2.223   4.653  20.444  0.00  0.00    +0.000 S 
ATOM     11  O   UNL     1       0.974   4.483  19.734  0.00  0.00    +0.000 OA
ATOM     12  O   UNL     1       2.657   3.738  21.470  0.00  0.00    +0.000 OA
BRANCH  10  13
ATOM     13  N   UNL     1       2.265   6.189  21.120  0.00  0.00    +0.000 NA
ATOM     14  H   UNL     1       3.151   6.674  20.979  0.00  0.00    +0.000 HD
BRANCH  13  15
ATOM     15  C   UNL     1       1.084   7.030  20.899  0.00  0.00    +0.000 C 
BRANCH  15  16
ATOM     16  C   UNL     1       1.370   8.105  19.883  0.00  0.00    +0.000 A 
ATOM     17  C   UNL     1       2.139   7.824  18.747  0.00  0.00    +0.000 A 
ATOM     18  C   UNL     1       2.405   8.827  17.815  0.00  0.00    +0.000 A 
ATOM     19  C   UNL     1       1.903  10.112  18.011  0.00  0.00    +0.000 A 
ATOM     20  C   UNL     1       1.131  10.398  19.134  0.00  0.00    +0.000 A 
ATOM     21  C   UNL     1       0.862   9.398  20.067  0.00  0.00    +0.000 A 
ENDBRANCH  15  16
ENDBRANCH  13  15
ENDBRANCH  10  13
ENDBRANCH   3  10
BRANCH   6  22
ATOM     22  N   UNL     1       6.798   4.189  16.568  0.00  0.00    +0.000 N 
ATOM     23  H   UNL     1       6.883   3.238  16.218  0.00  0.00    +0.000 HD
BRANCH  22  24
ATOM     24  C   UNL     1       6.986   5.179  15.499  0.00  0.00    +0.000 C 
BRANCH  24  25
ATOM     25  C   UNL     1       6.616   4.619  14.147  0.00  0.00    +0.000 A 
ATOM     26  C   UNL     1       7.541   4.621  13.092  0.00  0.00    +0.000 A 
ATOM     27  C   UNL     1       7.219   4.027  11.869  0.00  0.00    +0.000 A 
ATOM     28  C   UNL     1       5.976   3.423  11.691  0.00  0.00    +0.000 A 
ATOM     29  C   UNL     1       5.053   3.410  12.735  0.00  0.00    +0.000 A 
ATOM     30  C   UNL     1       5.370   4.006  13.956  0.00  0.00    +0.000 A 
ENDBRANCH  24  25
ENDBRANCH  22  24
ENDBRANCH   6  22
TORSDOF 8
ENDMDL
MODEL 8
REMARK VINA RESULT:      -7.8      3.366      5.238
REMARK  Name = 
REMARK  8 active torsions:
REMARK  status: ('A' for Active; 'I' for Inactive)
REMARK    1  A    between atoms: N_2  and  C_4
REMARK    2  A    between atoms: C_6  and  S_7
REMARK    3  A    between atoms: S_7  and  N_10
REMARK    4  A    between atoms: N_10  and  C_11
REMARK    5  A    between atoms: C_11  and  C_12
REMARK    6  A    between atoms: C_20  and  N_21
REMARK    7  A    between atoms: N_21  and  C_22
REMARK    8  A    between atoms: C_22  and  C_23
REMARK                            x       y       z     vdW  Elec       q    Type
REMARK                         _______ _______ _______ _____ _____    ______ ____
ROOT
ATOM      1  C   UNL     1       0.405   9.589  21.081  0.00  0.00    +0.000 A 
ATOM      2  C   UNL     1      -0.215  10.766  20.625  0.00  0.00    +0.000 A 
ATOM      3  C   UNL     1      -0.057  11.144  19.296  0.00  0.00    +0.000 A 
ATOM      4  C   UNL     1       0.773  10.404  18.458  0.00  0.00    +0.000 A 
ATOM      5  C   UNL     1       1.411   9.256  18.945  0.00  0.00    +0.000 A 
ATOM      6  C   UNL     1       1.193   8.768  20.247  0.00  0.00    +0.000 A 
ENDROOT
BRANCH   1   8
ATOM      7  O   UNL     1      -0.751   8.304  22.594  0.00  0.00    +0.000 OA
ATOM      8  N   UNL     1       0.089   9.201  22.443  0.00  0.00    +0.000 N 
ATOM      9  O   UNL     1       0.668   9.804  23.357  0.00  0.00    +0.000 OA
ENDBRANCH   1   8
BRANCH   3  10
ATOM     10  S   UNL     1      -1.053  12.464  18.647  0.00  0.00    +0.000 S 
ATOM     11  O   UNL     1      -0.139  13.494  18.201  0.00  0.00    +0.000 OA
ATOM     12  O   UNL     1      -2.023  11.862  17.767  0.00  0.00    +0.000 OA
BRANCH  10  13
ATOM     13  N   UNL     1      -1.899  13.023  19.985  0.00  0.00    +0.000 NA
ATOM     14  H   UNL     1      -1.721  14.003  20.201  0.00  0.00    +0.000 HD
BRANCH  13  15
ATOM     15  C   UNL     1      -3.313  12.642  20.066  0.00  0.00    +0.000 C 
BRANCH  15  16
ATOM     16  C   UNL     1      -3.804  12.694  21.489  0.00  0.00    +0.000 A 
ATOM     17  C   UNL     1      -2.936  12.414  22.552  0.00  0.00    +0.000 A 
ATOM     18  C   UNL     1      -3.401  12.459  23.866  0.00  0.00    +0.000 A 
ATOM     19  C   UNL     1      -4.730  12.784  24.126  0.00  0.00    +0.000 A 
ATOM     20  C   UNL     1      -5.598  13.071  23.075  0.00  0.00    +0.000 A 
ATOM     21  C   UNL     1      -5.137  13.030  21.760  0.00  0.00    +0.000 A 
ENDBRANCH  15  16
ENDBRANCH  13  15
ENDBRANCH  10  13
ENDBRANCH   3  10
BRANCH   6  22
ATOM     22  N   UNL     1       1.794   7.562  20.653  0.00  0.00    +0.000 N 
ATOM     23  H   UNL     1       1.195   6.945  21.198  0.00  0.00    +0.000 HD
BRANCH  22  24
ATOM     24  C   UNL     1       2.553   6.822  19.635  0.00  0.00    +0.000 C 
BRANCH  24  25
ATOM     25  C   UNL     1       2.060   5.402  19.494  0.00  0.00    +0.000 A 
ATOM     26  C   UNL     1       1.593   4.690  20.608  0.00  0.00    +0.000 A 
ATOM     27  C   UNL     1       1.063   3.406  20.455  0.00  0.00    +0.000 A 
ATOM     28  C   UNL     1       0.991   2.826  19.191  0.00  0.00    +0.000 A 
ATOM     29  C   UNL     1       1.447   3.527  18.076  0.00  0.00    +0.000 A 
ATOM     30  C   UNL     1       1.980   4.808  18.226  0.00  0.00    +0.000 A 
ENDBRANCH  24  25
ENDBRANCH  22  24
ENDBRANCH   6  22
TORSDOF 8
ENDMDL
MODEL 9
REMARK VINA RESULT:      -7.8      0.729      1.636
REMARK  Name = 
REMARK  8 active torsions:
REMARK  status: ('A' for Active; 'I' for Inactive)
REMARK    1  A    between atoms: N_2  and  C_4
REMARK    2  A    between atoms: C_6  and  S_7
REMARK    3  A    between atoms: S_7  and  N_10
REMARK    4  A    between atoms: N_10  and  C_11
REMARK    5  A    between atoms: C_11  and  C_12
REMARK    6  A    between atoms: C_20  and  N_21
REMARK    7  A    between atoms: N_21  and  C_22
REMARK    8  A    between atoms: C_22  and  C_23
REMARK                            x       y       z     vdW  Elec       q    Type
REMARK                         _______ _______ _______ _____ _____    ______ ____
ROOT
ATOM      1  C   UNL     1       1.990   5.230  20.042  0.00  0.00    +0.000 A 
ATOM      2  C   UNL     1       1.563   6.292  20.858  0.00  0.00    +0.000 A 
ATOM      3  C   UNL     1       1.665   7.596  20.382  0.00  0.00    +0.000 A 
ATOM      4  C   UNL     1       2.259   7.839  19.147  0.00  0.00    +0.000 A 
ATOM      5  C   UNL     1       2.712   6.767  18.367  0.00  0.00    +0.000 A 
ATOM      6  C   UNL     1       2.528   5.425  18.752  0.00  0.00    +0.000 A 
ENDROOT
BRANCH   1   8
ATOM      7  O   UNL     1       2.668   3.336  21.150  0.00  0.00    +0.000 OA
ATOM      8  N   UNL     1       1.736   3.899  20.560  0.00  0.00    +0.000 N 
ATOM      9  O   UNL     1       0.614   3.414  20.364  0.00  0.00    +0.000 OA
ENDBRANCH   1   8
BRANCH   3  10
ATOM     10  S   UNL     1       0.879   8.910  21.283  0.00  0.00    +0.000 S 
ATOM     11  O   UNL     1      -0.468   8.468  21.571  0.00  0.00    +0.000 OA
ATOM     12  O   UNL     1       1.796   9.313  22.319  0.00  0.00    +0.000 OA
BRANCH  10  13
ATOM     13  N   UNL     1       0.817  10.172  20.177  0.00  0.00    +0.000 NA
ATOM     14  H   UNL     1       1.007   9.883  19.217  0.00  0.00    +0.000 HD
BRANCH  13  15
ATOM     15  C   UNL     1      -0.312  11.098  20.309  0.00  0.00    +0.000 C 
BRANCH  15  16
ATOM     16  C   UNL     1      -1.260  10.960  19.147  0.00  0.00    +0.000 A 
ATOM     17  C   UNL     1      -2.432  11.725  19.090  0.00  0.00    +0.000 A 
ATOM     18  C   UNL     1      -3.308  11.587  18.013  0.00  0.00    +0.000 A 
ATOM     19  C   UNL     1      -3.017  10.689  16.988  0.00  0.00    +0.000 A 
ATOM     20  C   UNL     1      -1.849   9.930  17.033  0.00  0.00    +0.000 A 
ATOM     21  C   UNL     1      -0.971  10.067  18.107  0.00  0.00    +0.000 A 
ENDBRANCH  15  16
ENDBRANCH  13  15
ENDBRANCH  10  13
ENDBRANCH   3  10
BRANCH   6  22
ATOM     22  N   UNL     1       2.927   4.388  17.888  0.00  0.00    +0.000 N 
ATOM     23  H   UNL     1       2.843   4.599  16.896  0.00  0.00    +0.000 HD
BRANCH  22  24
ATOM     24  C   UNL     1       4.200   3.721  18.195  0.00  0.00    +0.000 C 
BRANCH  24  25
ATOM     25  C   UNL     1       5.381   4.630  17.951  0.00  0.00    +0.000 A 
ATOM     26  C   UNL     1       5.631   5.154  16.674  0.00  0.00    +0.000 A 
ATOM     27  C   UNL     1       6.677   6.058  16.474  0.00  0.00    +0.000 A 
ATOM     28  C   UNL     1       7.476   6.451  17.546  0.00  0.00    +0.000 A 
ATOM     29  C   UNL     1       7.232   5.941  18.819  0.00  0.00    +0.000 A 
ATOM     30  C   UNL     1       6.190   5.034  19.021  0.00  0.00    +0.000 A 
ENDBRANCH  24  25
ENDBRANCH  22  24
ENDBRANCH   6  22
TORSDOF 8
ENDMDL
