MODEL 1
REMARK VINA RESULT:      -8.5      0.000      0.000
REMARK  Name = 
REMARK  9 active torsions:
REMARK  status: ('A' for Active; 'I' for Inactive)
REMARK    1  A    between atoms: C_1  and  C_2
REMARK    2  A    between atoms: C_7  and  C_8
REMARK    3  A    between atoms: C_10  and  C_11
REMARK    4  A    between atoms: C_11  and  O_12
REMARK    5  A    between atoms: C_11  and  C_21
REMARK    6  A    between atoms: O_12  and  C_13
REMARK    7  A    between atoms: C_13  and  C_14
REMARK    8  A    between atoms: N_25  and  C_26
REMARK    9  A    between atoms: C_29  and  C_30
REMARK                            x       y       z     vdW  Elec       q    Type
REMARK                         _______ _______ _______ _____ _____    ______ ____
ROOT
ATOM      1  C   UNL     1       0.629   9.721  19.229  0.00  0.00    +0.000 C 
ENDROOT
BRANCH   1   4
ATOM      2  C   UNL     1       2.460   6.322  19.239  0.00  0.00    +0.000 A 
ATOM      3  C   UNL     1       1.613   7.416  19.534  0.00  0.00    +0.000 A 
ATOM      4  C   UNL     1       1.601   8.614  18.793  0.00  0.00    +0.000 A 
ATOM      5  C   UNL     1       2.553   8.746  17.778  0.00  0.00    +0.000 A 
ATOM      6  C   UNL     1       3.533   7.766  17.595  0.00  0.00    +0.000 A 
ATOM      7  C   UNL     1       3.507   6.569  18.329  0.00  0.00    +0.000 A 
BRANCH   2  14
ATOM      8  C   UNL     1       1.293   4.050  17.545  0.00  0.00    +0.000 C 
ATOM      9  C   UNL     1       1.611   3.922  19.019  0.00  0.00    +0.000 A 
ATOM     10  C   UNL     1       1.350   2.663  19.594  0.00  0.00    +0.000 A 
ATOM     11  C   UNL     1       1.631   2.413  20.930  0.00  0.00    +0.000 A 
ATOM     12  C   UNL     1       2.135   3.433  21.725  0.00  0.00    +0.000 A 
ATOM     13  C   UNL     1       2.351   4.706  21.185  0.00  0.00    +0.000 A 
ATOM     14  C   UNL     1       2.124   4.987  19.823  0.00  0.00    +0.000 A 
ENDBRANCH   2  14
BRANCH   7  15
ATOM     15  C   UNL     1       4.604   5.660  18.118  0.00  0.00    +0.000 C 
ATOM     16  N   UNL     1       5.418   4.882  17.845  0.00  0.00    +0.000 NA
ENDBRANCH   7  15
ENDBRANCH   1   4
BRANCH   1  17
ATOM     17  C   UNL     1       0.154   9.751  20.658  0.00  0.00    +0.000 A 
ATOM     18  C   UNL     1      -0.396   8.797  21.495  0.00  0.00    +0.000 A 
ATOM     19  N   UNL     1      -0.612   9.286  22.758  0.00  0.00    +0.000 NA
ATOM     20  C   UNL     1      -0.208  10.530  22.717  0.00  0.00    +0.000 A 
ATOM     21  N   UNL     1       0.241  10.870  21.471  0.00  0.00    +0.000 N 
ATOM     22  C   UNL     1       0.714  12.189  21.126  0.00  0.00    +0.000 C 
ENDBRANCH   1  17
BRANCH   1  23
ATOM     23  O   UNL     1      -0.502   9.910  18.356  0.00  0.00    +0.000 OA
BRANCH  23  24
ATOM     24  C   UNL     1      -0.805  11.282  18.101  0.00  0.00    +0.000 C 
BRANCH  24  25
ATOM     25  C   UNL     1      -2.237  11.690  18.342  0.00  0.00    +0.000 A 
ATOM     26  C   UNL     1      -2.629  12.317  19.531  0.00  0.00    +0.000 A 
ATOM     27  C   UNL     1      -3.984  12.449  19.846  0.00  0.00    +0.000 A 
ATOM     28  C   UNL     1      -4.956  11.941  18.987  0.00  0.00    +0.000 A 
ATOM     29  C   UNL     1      -4.585  11.399  17.761  0.00  0.00    +0.000 A 
ATOM     30  C   UNL     1      -3.234  11.313  17.422  0.00  0.00    +0.000 A 
ATOM     31 BR   UNL     1      -2.822  10.696  15.668  0.00  0.00    +0.000 Br
ENDBRANCH  24  25
ENDBRANCH  23  24
ENDBRANCH   1  23
TORSDOF 7
ENDMDL
MODEL 2
REMARK VINA RESULT:      -8.5      1.128      1.473
REMARK  Name = 
REMARK  9 active torsions:
REMARK  status: ('A' for Active; 'I' for Inactive)
REMARK    1  A    between atoms: C_1  and  C_2
REMARK    2  A    between atoms: C_7  and  C_8
REMARK    3  A    between atoms: C_10  and  C_11
REMARK    4  A    between atoms: C_11  and  O_12
REMARK    5  A    between atoms: C_11  and  C_21
REMARK    6  A    between atoms: O_12  and  C_13
REMARK    7  A    between atoms: C_13  and  C_14
REMARK    8  A    between atoms: N_25  and  C_26
REMARK    9  A    between atoms: C_29  and  C_30
REMARK                            x       y       z     vdW  Elec       q    Type
REMARK                         _______ _______ _______ _____ _____    ______ ____
ROOT
ATOM      1  C   UNL     1       0.811   9.786  18.404  0.00  0.00    +0.000 C 
ENDROOT
BRANCH   1   4
ATOM      2  C   UNL     1       2.550   6.400  19.048  0.00  0.00    +0.000 A 
ATOM      3  C   UNL     1       1.687   7.519  19.089  0.00  0.00    +0.000 A 
ATOM      4  C   UNL     1       1.822   8.640  18.246  0.00  0.00    +0.000 A 
ATOM      5  C   UNL     1       2.935   8.671  17.401  0.00  0.00    +0.000 A 
ATOM      6  C   UNL     1       3.913   7.676  17.481  0.00  0.00    +0.000 A 
ATOM      7  C   UNL     1       3.741   6.556  18.311  0.00  0.00    +0.000 A 
BRANCH   2  14
ATOM      8  C   UNL     1       1.221   4.150  17.447  0.00  0.00    +0.000 C 
ATOM      9  C   UNL     1       1.506   4.071  18.931  0.00  0.00    +0.000 A 
ATOM     10  C   UNL     1       1.134   2.868  19.562  0.00  0.00    +0.000 A 
ATOM     11  C   UNL     1       1.373   2.663  20.914  0.00  0.00    +0.000 A 
ATOM     12  C   UNL     1       1.950   3.676  21.666  0.00  0.00    +0.000 A 
ATOM     13  C   UNL     1       2.280   4.899  21.068  0.00  0.00    +0.000 A 
ATOM     14  C   UNL     1       2.096   5.128  19.691  0.00  0.00    +0.000 A 
ENDBRANCH   2  14
BRANCH   7  15
ATOM     15  C   UNL     1       4.841   5.629  18.377  0.00  0.00    +0.000 C 
ATOM     16  N   UNL     1       5.803   4.984  18.397  0.00  0.00    +0.000 NA
ENDBRANCH   7  15
ENDBRANCH   1   4
BRANCH   1  17
ATOM     17  C   UNL     1       1.017  10.791  19.506  0.00  0.00    +0.000 A 
ATOM     18  C   UNL     1       0.674  10.813  20.847  0.00  0.00    +0.000 A 
ATOM     19  N   UNL     1       1.141  11.938  21.476  0.00  0.00    +0.000 NA
ATOM     20  C   UNL     1       1.765  12.617  20.548  0.00  0.00    +0.000 A 
ATOM     21  N   UNL     1       1.701  11.984  19.337  0.00  0.00    +0.000 N 
ATOM     22  C   UNL     1       2.273  12.521  18.125  0.00  0.00    +0.000 C 
ENDBRANCH   1  17
BRANCH   1  23
ATOM     23  O   UNL     1      -0.571   9.377  18.395  0.00  0.00    +0.000 OA
BRANCH  23  24
ATOM     24  C   UNL     1      -1.288   9.809  17.238  0.00  0.00    +0.000 C 
BRANCH  24  25
ATOM     25  C   UNL     1      -2.461  10.720  17.500  0.00  0.00    +0.000 A 
ATOM     26  C   UNL     1      -2.617  11.379  18.726  0.00  0.00    +0.000 A 
ATOM     27  C   UNL     1      -3.826  12.002  19.043  0.00  0.00    +0.000 A 
ATOM     28  C   UNL     1      -4.894  11.957  18.149  0.00  0.00    +0.000 A 
ATOM     29  C   UNL     1      -4.724  11.388  16.892  0.00  0.00    +0.000 A 
ATOM     30  C   UNL     1      -3.500  10.810  16.553  0.00  0.00    +0.000 A 
ATOM     31 BR   UNL     1      -3.305  10.187  14.764  0.00  0.00    +0.000 Br
ENDBRANCH  24  25
ENDBRANCH  23  24
ENDBRANCH   1  23
TORSDOF 7
ENDMDL
MODEL 3
REMARK VINA RESULT:      -8.4      1.079      1.444
REMARK  Name = 
REMARK  9 active torsions:
REMARK  status: ('A' for Active; 'I' for Inactive)
REMARK    1  A    between atoms: C_1  and  C_2
REMARK    2  A    between atoms: C_7  and  C_8
REMARK    3  A    between atoms: C_10  and  C_11
REMARK    4  A    between atoms: C_11  and  O_12
REMARK    5  A    between atoms: C_11  and  C_21
REMARK    6  A    between atoms: O_12  and  C_13
REMARK    7  A    between atoms: C_13  and  C_14
REMARK    8  A    between atoms: N_25  and  C_26
REMARK    9  A    between atoms: C_29  and  C_30
REMARK                            x       y       z     vdW  Elec       q    Type
REMARK                         _______ _______ _______ _____ _____    ______ ____
ROOT
ATOM      1  C   UNL     1       0.983   9.635  18.895  0.00  0.00    +0.000 C 
ENDROOT
BRANCH   1   4
ATOM      2  C   UNL     1       2.643   6.163  19.196  0.00  0.00    +0.000 A 
ATOM      3  C   UNL     1       1.834   7.308  19.379  0.00  0.00    +0.000 A 
ATOM      4  C   UNL     1       1.926   8.464  18.579  0.00  0.00    +0.000 A 
ATOM      5  C   UNL     1       2.945   8.498  17.623  0.00  0.00    +0.000 A 
ATOM      6  C   UNL     1       3.885   7.466  17.554  0.00  0.00    +0.000 A 
ATOM      7  C   UNL     1       3.756   6.313  18.345  0.00  0.00    +0.000 A 
BRANCH   2  14
ATOM      8  C   UNL     1       1.313   3.927  17.576  0.00  0.00    +0.000 C 
ATOM      9  C   UNL     1       1.618   3.827  19.055  0.00  0.00    +0.000 A 
ATOM     10  C   UNL     1       1.263   2.611  19.672  0.00  0.00    +0.000 A 
ATOM     11  C   UNL     1       1.521   2.388  21.017  0.00  0.00    +0.000 A 
ATOM     12  C   UNL     1       2.099   3.394  21.778  0.00  0.00    +0.000 A 
ATOM     13  C   UNL     1       2.411   4.628  21.196  0.00  0.00    +0.000 A 
ATOM     14  C   UNL     1       2.208   4.877  19.824  0.00  0.00    +0.000 A 
ENDBRANCH   2  14
BRANCH   7  15
ATOM     15  C   UNL     1       4.819   5.346  18.252  0.00  0.00    +0.000 C 
ATOM     16  N   UNL     1       5.705   4.601  18.301  0.00  0.00    +0.000 NA
ENDBRANCH   7  15
ENDBRANCH   1   4
BRANCH   1  17
ATOM     17  C   UNL     1       0.452   9.784  20.295  0.00  0.00    +0.000 A 
ATOM     18  C   UNL     1      -0.270   8.949  21.131  0.00  0.00    +0.000 A 
ATOM     19  N   UNL     1      -0.471   9.510  22.366  0.00  0.00    +0.000 NA
ATOM     20  C   UNL     1       0.109  10.681  22.310  0.00  0.00    +0.000 A 
ATOM     21  N   UNL     1       0.661  10.908  21.079  0.00  0.00    +0.000 N 
ATOM     22  C   UNL     1       1.335  12.133  20.721  0.00  0.00    +0.000 C 
ENDBRANCH   1  17
BRANCH   1  23
ATOM     23  O   UNL     1      -0.102   9.805  17.961  0.00  0.00    +0.000 OA
BRANCH  23  24
ATOM     24  C   UNL     1      -0.771  11.060  18.085  0.00  0.00    +0.000 C 
BRANCH  24  25
ATOM     25  C   UNL     1      -2.241  11.052  17.743  0.00  0.00    +0.000 A 
ATOM     26  C   UNL     1      -2.713  10.485  16.552  0.00  0.00    +0.000 A 
ATOM     27  C   UNL     1      -4.025  10.715  16.133  0.00  0.00    +0.000 A 
ATOM     28  C   UNL     1      -4.871  11.525  16.887  0.00  0.00    +0.000 A 
ATOM     29  C   UNL     1      -4.446  12.018  18.117  0.00  0.00    +0.000 A 
ATOM     30  C   UNL     1      -3.152  11.747  18.562  0.00  0.00    +0.000 A 
ATOM     31 BR   UNL     1      -2.702  12.332  20.318  0.00  0.00    +0.000 Br
ENDBRANCH  24  25
ENDBRANCH  23  24
ENDBRANCH   1  23
TORSDOF 7
ENDMDL
MODEL 4
REMARK VINA RESULT:      -8.4      3.270      7.903
REMARK  Name = 
REMARK  9 active torsions:
REMARK  status: ('A' for Active; 'I' for Inactive)
REMARK    1  A    between atoms: C_1  and  C_2
REMARK    2  A    between atoms: C_7  and  C_8
REMARK    3  A    between atoms: C_10  and  C_11
REMARK    4  A    between atoms: C_11  and  O_12
REMARK    5  A    between atoms: C_11  and  C_21
REMARK    6  A    between atoms: O_12  and  C_13
REMARK    7  A    between atoms: C_13  and  C_14
REMARK    8  A    between atoms: N_25  and  C_26
REMARK    9  A    between atoms: C_29  and  C_30
REMARK                            x       y       z     vdW  Elec       q    Type
REMARK                         _______ _______ _______ _____ _____    ______ ____
ROOT
ATOM      1  C   UNL     1       2.214   4.885  18.364  0.00  0.00    +0.000 C 
ENDROOT
BRANCH   1   4
ATOM      2  C   UNL     1       1.544   8.557  19.349  0.00  0.00    +0.000 A 
ATOM      3  C   UNL     1       1.503   7.149  19.226  0.00  0.00    +0.000 A 
ATOM      4  C   UNL     1       2.375   6.412  18.401  0.00  0.00    +0.000 A 
ATOM      5  C   UNL     1       3.254   7.139  17.592  0.00  0.00    +0.000 A 
ATOM      6  C   UNL     1       3.180   8.534  17.542  0.00  0.00    +0.000 A 
ATOM      7  C   UNL     1       2.320   9.246  18.394  0.00  0.00    +0.000 A 
BRANCH   2  14
ATOM      8  C   UNL     1      -0.985  10.258  19.033  0.00  0.00    +0.000 C 
ATOM      9  C   UNL     1      -0.338   9.954  20.366  0.00  0.00    +0.000 A 
ATOM     10  C   UNL     1      -0.982  10.494  21.497  0.00  0.00    +0.000 A 
ATOM     11  C   UNL     1      -0.501  10.257  22.777  0.00  0.00    +0.000 A 
ATOM     12  C   UNL     1       0.657   9.512  22.945  0.00  0.00    +0.000 A 
ATOM     13  C   UNL     1       1.341   9.010  21.831  0.00  0.00    +0.000 A 
ATOM     14  C   UNL     1       0.860   9.189  20.519  0.00  0.00    +0.000 A 
ENDBRANCH   2  14
BRANCH   7  15
ATOM     15  C   UNL     1       2.266  10.672  18.209  0.00  0.00    +0.000 C 
ATOM     16  N   UNL     1       2.218  11.830  18.191  0.00  0.00    +0.000 NA
ENDBRANCH   7  15
ENDBRANCH   1   4
BRANCH   1  17
ATOM     17  C   UNL     1       2.149   4.129  19.665  0.00  0.00    +0.000 A 
ATOM     18  C   UNL     1       2.667   4.363  20.927  0.00  0.00    +0.000 A 
ATOM     19  N   UNL     1       2.279   3.404  21.826  0.00  0.00    +0.000 NA
ATOM     20  C   UNL     1       1.532   2.575  21.143  0.00  0.00    +0.000 A 
ATOM     21  N   UNL     1       1.439   2.950  19.831  0.00  0.00    +0.000 N 
ATOM     22  C   UNL     1       0.707   2.201  18.838  0.00  0.00    +0.000 C 
ENDBRANCH   1  17
BRANCH   1  23
ATOM     23  O   UNL     1       3.118   4.204  17.472  0.00  0.00    +0.000 OA
BRANCH  23  24
ATOM     24  C   UNL     1       4.245   3.626  18.131  0.00  0.00    +0.000 C 
BRANCH  24  25
ATOM     25  C   UNL     1       5.508   4.451  18.108  0.00  0.00    +0.000 A 
ATOM     26  C   UNL     1       6.056   4.985  19.281  0.00  0.00    +0.000 A 
ATOM     27  C   UNL     1       7.063   5.951  19.214  0.00  0.00    +0.000 A 
ATOM     28  C   UNL     1       7.519   6.404  17.978  0.00  0.00    +0.000 A 
ATOM     29  C   UNL     1       7.051   5.817  16.807  0.00  0.00    +0.000 A 
ATOM     30  C   UNL     1       6.082   4.815  16.874  0.00  0.00    +0.000 A 
ATOM     31 BR   UNL     1       5.606   3.963  15.238  0.00  0.00    +0.000 Br
ENDBRANCH  24  25
ENDBRANCH  23  24
ENDBRANCH   1  23
TORSDOF 7
ENDMDL
MODEL 5
REMARK VINA RESULT:      -8.3      3.099      8.626
REMARK  Name = 
REMARK  9 active torsions:
REMARK  status: ('A' for Active; 'I' for Inactive)
REMARK    1  A    between atoms: C_1  and  C_2
REMARK    2  A    between atoms: C_7  and  C_8
REMARK    3  A    between atoms: C_10  and  C_11
REMARK    4  A    between atoms: C_11  and  O_12
REMARK    5  A    between atoms: C_11  and  C_21
REMARK    6  A    between atoms: O_12  and  C_13
REMARK    7  A    between atoms: C_13  and  C_14
REMARK    8  A    between atoms: N_25  and  C_26
REMARK    9  A    between atoms: C_29  and  C_30
REMARK                            x       y       z     vdW  Elec       q    Type
REMARK                         _______ _______ _______ _____ _____    ______ ____
ROOT
ATOM      1  C   UNL     1       2.796   6.542  18.332  0.00  0.00    +0.000 C 
ENDROOT
BRANCH   1   4
ATOM      2  C   UNL     1       1.071   9.657  19.824  0.00  0.00    +0.000 A 
ATOM      3  C   UNL     1       1.797   8.761  19.006  0.00  0.00    +0.000 A 
ATOM      4  C   UNL     1       1.982   7.398  19.313  0.00  0.00    +0.000 A 
ATOM      5  C   UNL     1       1.499   6.952  20.547  0.00  0.00    +0.000 A 
ATOM      6  C   UNL     1       0.956   7.857  21.463  0.00  0.00    +0.000 A 
ATOM      7  C   UNL     1       0.759   9.205  21.122  0.00  0.00    +0.000 A 
BRANCH   2  14
ATOM      8  C   UNL     1      -1.679   9.952  18.505  0.00  0.00    +0.000 C 
ATOM      9  C   UNL     1      -0.687  11.086  18.644  0.00  0.00    +0.000 A 
ATOM     10  C   UNL     1      -1.106  12.331  18.135  0.00  0.00    +0.000 A 
ATOM     11  C   UNL     1      -0.297  13.454  18.233  0.00  0.00    +0.000 A 
ATOM     12  C   UNL     1       0.963  13.341  18.802  0.00  0.00    +0.000 A 
ATOM     13  C   UNL     1       1.419  12.101  19.267  0.00  0.00    +0.000 A 
ATOM     14  C   UNL     1       0.610  10.949  19.228  0.00  0.00    +0.000 A 
ENDBRANCH   2  14
BRANCH   7  15
ATOM     15  C   UNL     1       0.264  10.067  22.163  0.00  0.00    +0.000 C 
ATOM     16  N   UNL     1      -0.245  10.689  22.999  0.00  0.00    +0.000 NA
ENDBRANCH   7  15
ENDBRANCH   1   4
BRANCH   1  17
ATOM     17  C   UNL     1       2.472   5.077  18.202  0.00  0.00    +0.000 A 
ATOM     18  C   UNL     1       1.446   4.382  17.585  0.00  0.00    +0.000 A 
ATOM     19  N   UNL     1       1.615   3.025  17.684  0.00  0.00    +0.000 NA
ATOM     20  C   UNL     1       2.726   2.865  18.356  0.00  0.00    +0.000 A 
ATOM     21  N   UNL     1       3.272   4.067  18.713  0.00  0.00    +0.000 N 
ATOM     22  C   UNL     1       4.481   4.194  19.492  0.00  0.00    +0.000 C 
ENDBRANCH   1  17
BRANCH   1  23
ATOM     23  O   UNL     1       4.225   6.697  18.438  0.00  0.00    +0.000 OA
BRANCH  23  24
ATOM     24  C   UNL     1       4.835   7.203  17.250  0.00  0.00    +0.000 C 
BRANCH  24  25
ATOM     25  C   UNL     1       5.596   6.194  16.427  0.00  0.00    +0.000 A 
ATOM     26  C   UNL     1       5.119   5.751  15.187  0.00  0.00    +0.000 A 
ATOM     27  C   UNL     1       5.692   4.638  14.567  0.00  0.00    +0.000 A 
ATOM     28  C   UNL     1       6.732   3.948  15.186  0.00  0.00    +0.000 A 
ATOM     29  C   UNL     1       7.277   4.431  16.371  0.00  0.00    +0.000 A 
ATOM     30  C   UNL     1       6.740   5.573  16.966  0.00  0.00    +0.000 A 
ATOM     31 BR   UNL     1       7.638   6.250  18.503  0.00  0.00    +0.000 Br
ENDBRANCH  24  25
ENDBRANCH  23  24
ENDBRANCH   1  23
TORSDOF 7
ENDMDL
MODEL 6
REMARK VINA RESULT:      -8.3      2.920      8.589
REMARK  Name = 
REMARK  9 active torsions:
REMARK  status: ('A' for Active; 'I' for Inactive)
REMARK    1  A    between atoms: C_1  and  C_2
REMARK    2  A    between atoms: C_7  and  C_8
REMARK    3  A    between atoms: C_10  and  C_11
REMARK    4  A    between atoms: C_11  and  O_12
REMARK    5  A    between atoms: C_11  and  C_21
REMARK    6  A    between atoms: O_12  and  C_13
REMARK    7  A    between atoms: C_13  and  C_14
REMARK    8  A    between atoms: N_25  and  C_26
REMARK    9  A    between atoms: C_29  and  C_30
REMARK                            x       y       z     vdW  Elec       q    Type
REMARK                         _______ _______ _______ _____ _____    ______ ____
ROOT
ATOM      1  C   UNL     1       3.090   6.693  18.312  0.00  0.00    +0.000 C 
ENDROOT
BRANCH   1   4
ATOM      2  C   UNL     1       1.100   9.664  19.769  0.00  0.00    +0.000 A 
ATOM      3  C   UNL     1       1.923   8.832  18.974  0.00  0.00    +0.000 A 
ATOM      4  C   UNL     1       2.172   7.476  19.263  0.00  0.00    +0.000 A 
ATOM      5  C   UNL     1       1.650   6.972  20.458  0.00  0.00    +0.000 A 
ATOM      6  C   UNL     1       1.003   7.821  21.361  0.00  0.00    +0.000 A 
ATOM      7  C   UNL     1       0.744   9.163  21.038  0.00  0.00    +0.000 A 
BRANCH   2  14
ATOM      8  C   UNL     1      -1.647   9.858  18.423  0.00  0.00    +0.000 C 
ATOM      9  C   UNL     1      -0.701  11.030  18.578  0.00  0.00    +0.000 A 
ATOM     10  C   UNL     1      -1.163  12.260  18.071  0.00  0.00    +0.000 A 
ATOM     11  C   UNL     1      -0.399  13.414  18.183  0.00  0.00    +0.000 A 
ATOM     12  C   UNL     1       0.858  13.346  18.765  0.00  0.00    +0.000 A 
ATOM     13  C   UNL     1       1.357  12.123  19.228  0.00  0.00    +0.000 A 
ATOM     14  C   UNL     1       0.594  10.940  19.175  0.00  0.00    +0.000 A 
ENDBRANCH   2  14
BRANCH   7  15
ATOM     15  C   UNL     1       0.141   9.969  22.067  0.00  0.00    +0.000 C 
ATOM     16  N   UNL     1      -0.222  10.633  22.945  0.00  0.00    +0.000 NA
ENDBRANCH   7  15
ENDBRANCH   1   4
BRANCH   1  17
ATOM     17  C   UNL     1       3.487   5.287  18.677  0.00  0.00    +0.000 A 
ATOM     18  C   UNL     1       4.570   4.750  19.350  0.00  0.00    +0.000 A 
ATOM     19  N   UNL     1       4.459   3.392  19.498  0.00  0.00    +0.000 NA
ATOM     20  C   UNL     1       3.327   3.075  18.923  0.00  0.00    +0.000 A 
ATOM     21  N   UNL     1       2.711   4.174  18.391  0.00  0.00    +0.000 N 
ATOM     22  C   UNL     1       1.464   4.117  17.668  0.00  0.00    +0.000 C 
ENDBRANCH   1  17
BRANCH   1  23
ATOM     23  O   UNL     1       4.261   7.412  17.876  0.00  0.00    +0.000 OA
BRANCH  23  24
ATOM     24  C   UNL     1       4.515   7.295  16.476  0.00  0.00    +0.000 C 
BRANCH  24  25
ATOM     25  C   UNL     1       5.439   6.173  16.073  0.00  0.00    +0.000 A 
ATOM     26  C   UNL     1       5.019   5.154  15.208  0.00  0.00    +0.000 A 
ATOM     27  C   UNL     1       5.788   3.998  15.054  0.00  0.00    +0.000 A 
ATOM     28  C   UNL     1       6.971   3.841  15.774  0.00  0.00    +0.000 A 
ATOM     29  C   UNL     1       7.446   4.882  16.564  0.00  0.00    +0.000 A 
ATOM     30  C   UNL     1       6.706   6.059  16.679  0.00  0.00    +0.000 A 
ATOM     31 BR   UNL     1       7.499   7.487  17.658  0.00  0.00    +0.000 Br
ENDBRANCH  24  25
ENDBRANCH  23  24
ENDBRANCH   1  23
TORSDOF 7
ENDMDL
MODEL 7
REMARK VINA RESULT:      -8.2      1.816      3.205
REMARK  Name = 
REMARK  9 active torsions:
REMARK  status: ('A' for Active; 'I' for Inactive)
REMARK    1  A    between atoms: C_1  and  C_2
REMARK    2  A    between atoms: C_7  and  C_8
REMARK    3  A    between atoms: C_10  and  C_11
REMARK    4  A    between atoms: C_11  and  O_12
REMARK    5  A    between atoms: C_11  and  C_21
REMARK    6  A    between atoms: O_12  and  C_13
REMARK    7  A    between atoms: C_13  and  C_14
REMARK    8  A    between atoms: N_25  and  C_26
REMARK    9  A    between atoms: C_29  and  C_30
REMARK                            x       y       z     vdW  Elec       q    Type
REMARK                         _______ _______ _______ _____ _____    ______ ____
ROOT
ATOM      1  C   UNL     1       0.781  10.178  18.626  0.00  0.00    +0.000 C 
ENDROOT
BRANCH   1   4
ATOM      2  C   UNL     1       2.415   6.702  19.022  0.00  0.00    +0.000 A 
ATOM      3  C   UNL     1       1.901   7.918  18.513  0.00  0.00    +0.000 A 
ATOM      4  C   UNL     1       1.298   8.906  19.315  0.00  0.00    +0.000 A 
ATOM      5  C   UNL     1       1.117   8.606  20.669  0.00  0.00    +0.000 A 
ATOM      6  C   UNL     1       1.431   7.335  21.160  0.00  0.00    +0.000 A 
ATOM      7  C   UNL     1       2.056   6.377  20.345  0.00  0.00    +0.000 A 
BRANCH   2  14
ATOM      8  C   UNL     1       1.600   4.083  17.654  0.00  0.00    +0.000 C 
ATOM      9  C   UNL     1       2.967   4.718  17.510  0.00  0.00    +0.000 A 
ATOM     10  C   UNL     1       3.874   4.033  16.678  0.00  0.00    +0.000 A 
ATOM     11  C   UNL     1       5.147   4.533  16.442  0.00  0.00    +0.000 A 
ATOM     12  C   UNL     1       5.549   5.704  17.070  0.00  0.00    +0.000 A 
ATOM     13  C   UNL     1       4.680   6.371  17.941  0.00  0.00    +0.000 A 
ATOM     14  C   UNL     1       3.365   5.921  18.171  0.00  0.00    +0.000 A 
ENDBRANCH   2  14
BRANCH   7  15
ATOM     15  C   UNL     1       2.267   5.077  20.926  0.00  0.00    +0.000 C 
ATOM     16  N   UNL     1       2.433   3.983  21.271  0.00  0.00    +0.000 NA
ENDBRANCH   7  15
ENDBRANCH   1   4
BRANCH   1  17
ATOM     17  C   UNL     1       1.574  11.451  18.760  0.00  0.00    +0.000 A 
ATOM     18  C   UNL     1       2.506  12.079  17.952  0.00  0.00    +0.000 A 
ATOM     19  N   UNL     1       2.914  13.278  18.477  0.00  0.00    +0.000 NA
ATOM     20  C   UNL     1       2.254  13.404  19.600  0.00  0.00    +0.000 A 
ATOM     21  N   UNL     1       1.451  12.322  19.831  0.00  0.00    +0.000 N 
ATOM     22  C   UNL     1       0.634  12.173  21.012  0.00  0.00    +0.000 C 
ENDBRANCH   1  17
BRANCH   1  23
ATOM     23  O   UNL     1      -0.612  10.467  18.859  0.00  0.00    +0.000 OA
BRANCH  23  24
ATOM     24  C   UNL     1      -1.417  10.386  17.682  0.00  0.00    +0.000 C 
BRANCH  24  25
ATOM     25  C   UNL     1      -2.737  11.113  17.744  0.00  0.00    +0.000 A 
ATOM     26  C   UNL     1      -3.152  11.781  18.903  0.00  0.00    +0.000 A 
ATOM     27  C   UNL     1      -4.472  12.220  19.031  0.00  0.00    +0.000 A 
ATOM     28  C   UNL     1      -5.392  11.980  18.013  0.00  0.00    +0.000 A 
ATOM     29  C   UNL     1      -4.973  11.402  16.820  0.00  0.00    +0.000 A 
ATOM     30  C   UNL     1      -3.642  11.009  16.670  0.00  0.00    +0.000 A 
ATOM     31 BR   UNL     1      -3.120  10.363  14.956  0.00  0.00    +0.000 Br
ENDBRANCH  24  25
ENDBRANCH  23  24
ENDBRANCH   1  23
TORSDOF 7
ENDMDL
MODEL 8
REMARK VINA RESULT:      -8.2      1.495      2.156
REMARK  Name = 
REMARK  9 active torsions:
REMARK  status: ('A' for Active; 'I' for Inactive)
REMARK    1  A    between atoms: C_1  and  C_2
REMARK    2  A    between atoms: C_7  and  C_8
REMARK    3  A    between atoms: C_10  and  C_11
REMARK    4  A    between atoms: C_11  and  O_12
REMARK    5  A    between atoms: C_11  and  C_21
REMARK    6  A    between atoms: O_12  and  C_13
REMARK    7  A    between atoms: C_13  and  C_14
REMARK    8  A    between atoms: N_25  and  C_26
REMARK    9  A    between atoms: C_29  and  C_30
REMARK                            x       y       z     vdW  Elec       q    Type
REMARK                         _______ _______ _______ _____ _____    ______ ____
ROOT
ATOM      1  C   UNL     1       1.131   9.608  18.259  0.00  0.00    +0.000 C 
ENDROOT
BRANCH   1   4
ATOM      2  C   UNL     1       2.737   6.204  19.121  0.00  0.00    +0.000 A 
ATOM      3  C   UNL     1       1.900   7.342  19.068  0.00  0.00    +0.000 A 
ATOM      4  C   UNL     1       2.123   8.435  18.207  0.00  0.00    +0.000 A 
ATOM      5  C   UNL     1       3.294   8.417  17.445  0.00  0.00    +0.000 A 
ATOM      6  C   UNL     1       4.239   7.403  17.623  0.00  0.00    +0.000 A 
ATOM      7  C   UNL     1       3.981   6.312  18.468  0.00  0.00    +0.000 A 
BRANCH   2  14
ATOM      8  C   UNL     1       1.288   4.031  17.516  0.00  0.00    +0.000 C 
ATOM      9  C   UNL     1       1.561   3.938  19.002  0.00  0.00    +0.000 A 
ATOM     10  C   UNL     1       1.117   2.760  19.633  0.00  0.00    +0.000 A 
ATOM     11  C   UNL     1       1.338   2.545  20.986  0.00  0.00    +0.000 A 
ATOM     12  C   UNL     1       1.968   3.524  21.740  0.00  0.00    +0.000 A 
ATOM     13  C   UNL     1       2.371   4.724  21.142  0.00  0.00    +0.000 A 
ATOM     14  C   UNL     1       2.207   4.961  19.763  0.00  0.00    +0.000 A 
ENDBRANCH   2  14
BRANCH   7  15
ATOM     15  C   UNL     1       5.051   5.363  18.639  0.00  0.00    +0.000 C 
ATOM     16  N   UNL     1       5.972   4.661  18.677  0.00  0.00    +0.000 NA
ENDBRANCH   7  15
ENDBRANCH   1   4
BRANCH   1  17
ATOM     17  C   UNL     1       1.213  10.578  19.408  0.00  0.00    +0.000 A 
ATOM     18  C   UNL     1       0.846  10.506  20.740  0.00  0.00    +0.000 A 
ATOM     19  N   UNL     1       1.184  11.644  21.427  0.00  0.00    +0.000 NA
ATOM     20  C   UNL     1       1.750  12.424  20.542  0.00  0.00    +0.000 A 
ATOM     21  N   UNL     1       1.773  11.842  19.304  0.00  0.00    +0.000 N 
ATOM     22  C   UNL     1       2.307  12.488  18.129  0.00  0.00    +0.000 C 
ENDBRANCH   1  17
BRANCH   1  23
ATOM     23  O   UNL     1      -0.247   9.241  18.052  0.00  0.00    +0.000 OA
BRANCH  23  24
ATOM     24  C   UNL     1      -1.157  10.332  18.201  0.00  0.00    +0.000 C 
BRANCH  24  25
ATOM     25  C   UNL     1      -2.293  10.373  17.210  0.00  0.00    +0.000 A 
ATOM     26  C   UNL     1      -2.226   9.689  15.989  0.00  0.00    +0.000 A 
ATOM     27  C   UNL     1      -3.161   9.946  14.984  0.00  0.00    +0.000 A 
ATOM     28  C   UNL     1      -4.159  10.898  15.181  0.00  0.00    +0.000 A 
ATOM     29  C   UNL     1      -4.294  11.516  16.419  0.00  0.00    +0.000 A 
ATOM     30  C   UNL     1      -3.392  11.223  17.442  0.00  0.00    +0.000 A 
ATOM     31 BR   UNL     1      -3.738  11.998  19.147  0.00  0.00    +0.000 Br
ENDBRANCH  24  25
ENDBRANCH  23  24
ENDBRANCH   1  23
TORSDOF 7
ENDMDL
MODEL 9
REMARK VINA RESULT:      -8.0      3.073      8.668
REMARK  Name = 
REMARK  9 active torsions:
REMARK  status: ('A' for Active; 'I' for Inactive)
REMARK    1  A    between atoms: C_1  and  C_2
REMARK    2  A    between atoms: C_7  and  C_8
REMARK    3  A    between atoms: C_10  and  C_11
REMARK    4  A    between atoms: C_11  and  O_12
REMARK    5  A    between atoms: C_11  and  C_21
REMARK    6  A    between atoms: O_12  and  C_13
REMARK    7  A    between atoms: C_13  and  C_14
REMARK    8  A    between atoms: N_25  and  C_26
REMARK    9  A    between atoms: C_29  and  C_30
REMARK                            x       y       z     vdW  Elec       q    Type
REMARK                         _______ _______ _______ _____ _____    ______ ____
ROOT
ATOM      1  C   UNL     1       2.848   6.494  18.371  0.00  0.00    +0.000 C 
ENDROOT
BRANCH   1   4
ATOM      2  C   UNL     1       0.795   9.418  19.834  0.00  0.00    +0.000 A 
ATOM      3  C   UNL     1       1.573   8.581  19.002  0.00  0.00    +0.000 A 
ATOM      4  C   UNL     1       2.005   7.293  19.377  0.00  0.00    +0.000 A 
ATOM      5  C   UNL     1       1.724   6.881  20.682  0.00  0.00    +0.000 A 
ATOM      6  C   UNL     1       1.133   7.764  21.591  0.00  0.00    +0.000 A 
ATOM      7  C   UNL     1       0.688   9.032  21.185  0.00  0.00    +0.000 A 
BRANCH   2  14
ATOM      8  C   UNL     1       1.877  12.283  19.965  0.00  0.00    +0.000 C 
ATOM      9  C   UNL     1       0.602  11.898  19.246  0.00  0.00    +0.000 A 
ATOM     10  C   UNL     1      -0.080  12.950  18.604  0.00  0.00    +0.000 A 
ATOM     11  C   UNL     1      -1.244  12.715  17.885  0.00  0.00    +0.000 A 
ATOM     12  C   UNL     1      -1.768  11.432  17.833  0.00  0.00    +0.000 A 
ATOM     13  C   UNL     1      -1.133  10.382  18.507  0.00  0.00    +0.000 A 
ATOM     14  C   UNL     1       0.074  10.570  19.208  0.00  0.00    +0.000 A 
ENDBRANCH   2  14
BRANCH   7  15
ATOM     15  C   UNL     1       0.164   9.891  22.215  0.00  0.00    +0.000 C 
ATOM     16  N   UNL     1      -0.134  10.596  23.086  0.00  0.00    +0.000 NA
ENDBRANCH   7  15
ENDBRANCH   1   4
BRANCH   1  17
ATOM     17  C   UNL     1       2.574   5.024  18.198  0.00  0.00    +0.000 A 
ATOM     18  C   UNL     1       1.587   4.313  17.539  0.00  0.00    +0.000 A 
ATOM     19  N   UNL     1       1.797   2.960  17.609  0.00  0.00    +0.000 NA
ATOM     20  C   UNL     1       2.896   2.818  18.304  0.00  0.00    +0.000 A 
ATOM     21  N   UNL     1       3.394   4.027  18.704  0.00  0.00    +0.000 N 
ATOM     22  C   UNL     1       4.579   4.173  19.515  0.00  0.00    +0.000 C 
ENDBRANCH   1  17
BRANCH   1  23
ATOM     23  O   UNL     1       4.271   6.696  18.482  0.00  0.00    +0.000 OA
BRANCH  23  24
ATOM     24  C   UNL     1       4.870   7.213  17.293  0.00  0.00    +0.000 C 
BRANCH  24  25
ATOM     25  C   UNL     1       5.631   6.213  16.459  0.00  0.00    +0.000 A 
ATOM     26  C   UNL     1       5.152   5.782  15.215  0.00  0.00    +0.000 A 
ATOM     27  C   UNL     1       5.725   4.677  14.582  0.00  0.00    +0.000 A 
ATOM     28  C   UNL     1       6.767   3.981  15.193  0.00  0.00    +0.000 A 
ATOM     29  C   UNL     1       7.313   4.452  16.382  0.00  0.00    +0.000 A 
ATOM     30  C   UNL     1       6.776   5.588  16.989  0.00  0.00    +0.000 A 
ATOM     31 BR   UNL     1       7.675   6.250  18.532  0.00  0.00    +0.000 Br
ENDBRANCH  24  25
ENDBRANCH  23  24
ENDBRANCH   1  23
TORSDOF 7
ENDMDL
