MODEL 1
REMARK VINA RESULT:      -8.6      0.000      0.000
REMARK  Name = 
REMARK  7 active torsions:
REMARK  status: ('A' for Active; 'I' for Inactive)
REMARK    1  A    between atoms: C_1  and  C_2
REMARK    2  A    between atoms: C_5  and  C_6
REMARK    3  A    between atoms: C_6  and  C_7
REMARK    4  A    between atoms: N_11  and  C_12
REMARK    5  A    between atoms: C_12  and  C_13
REMARK    6  A    between atoms: N_15  and  C_16
REMARK    7  A    between atoms: N_15  and  C_22
REMARK                            x       y       z     vdW  Elec       q    Type
REMARK                         _______ _______ _______ _____ _____    ______ ____
ROOT
ATOM      1  C   UNL     1       2.846   8.046  18.263  0.00  0.00    +0.000 C 
ENDROOT
BRANCH   1   7
ATOM      2  C   UNL     1       0.259  10.489  19.486  0.00  0.00    +0.000 C 
ATOM      3  C   UNL     1       0.893  11.750  20.083  0.00  0.00    +0.000 C 
ATOM      4  N   UNL     1       0.333   9.418  20.465  0.00  0.00    +0.000 N 
ATOM      5  C   UNL     1       1.304   8.495  20.163  0.00  0.00    +0.000 C 
ATOM      6  O   UNL     1       1.633   7.581  20.901  0.00  0.00    +0.000 OA
ATOM      7  N   UNL     1       1.793   8.772  18.929  0.00  0.00    +0.000 N 
ATOM      8  C   UNL     1       1.231   9.914  18.430  0.00  0.00    +0.000 C 
ATOM      9  O   UNL     1       1.515  10.418  17.349  0.00  0.00    +0.000 OA
ATOM     10  H   UNL     1      -0.078   9.448  21.387  0.00  0.00    +0.000 HD
BRANCH   2  15
ATOM     11  C   UNL     1      -5.146  11.430  17.399  0.00  0.00    +0.000 C 
ATOM     12  C   UNL     1      -3.770  11.186  17.945  0.00  0.00    +0.000 A 
ATOM     13  C   UNL     1      -3.244  11.979  18.966  0.00  0.00    +0.000 A 
ATOM     14  C   UNL     1      -1.953  11.749  19.454  0.00  0.00    +0.000 A 
ATOM     15  C   UNL     1      -1.145  10.717  18.938  0.00  0.00    +0.000 A 
ATOM     16  C   UNL     1      -1.689   9.928  17.909  0.00  0.00    +0.000 A 
ATOM     17  C   UNL     1      -2.981  10.159  17.422  0.00  0.00    +0.000 A 
ENDBRANCH   2  15
ENDBRANCH   1   7
BRANCH   1  18
ATOM     18  C   UNL     1       2.559   6.532  18.283  0.00  0.00    +0.000 C 
ATOM     19  O   UNL     1       1.410   6.126  18.088  0.00  0.00    +0.000 OA
ATOM     20  N   UNL     1       3.672   5.675  18.478  0.00  0.00    +0.000 N 
BRANCH  20  21
ATOM     21  C   UNL     1       5.068   6.177  18.435  0.00  0.00    +0.000 C 
ATOM     22  C   UNL     1       6.083   5.318  19.219  0.00  0.00    +0.000 C 
ATOM     23  C   UNL     1       7.462   5.756  18.770  0.00  0.00    +0.000 C 
ATOM     24  S   UNL     1       7.302   6.071  17.027  0.00  0.00    +0.000 S 
ATOM     25  O   UNL     1       7.477   4.828  16.315  0.00  0.00    +0.000 OA
ATOM     26  O   UNL     1       8.066   7.258  16.703  0.00  0.00    +0.000 OA
ATOM     27  C   UNL     1       5.575   6.490  17.024  0.00  0.00    +0.000 C 
ENDBRANCH  20  21
BRANCH  20  28
ATOM     28  C   UNL     1       3.442   4.243  18.549  0.00  0.00    +0.000 A 
ATOM     29  C   UNL     1       3.054   3.604  19.737  0.00  0.00    +0.000 A 
ATOM     30  C   UNL     1       2.874   2.220  19.807  0.00  0.00    +0.000 A 
ATOM     31  C   UNL     1       3.026   1.442  18.668  0.00  0.00    +0.000 A 
ATOM     32  C   UNL     1       3.362   2.054  17.465  0.00  0.00    +0.000 A 
ATOM     33  C   UNL     1       3.581   3.438  17.408  0.00  0.00    +0.000 A 
ENDBRANCH  20  28
ENDBRANCH   1  18
TORSDOF 5
ENDMDL
MODEL 2
REMARK VINA RESULT:      -8.5      0.118      1.204
REMARK  Name = 
REMARK  7 active torsions:
REMARK  status: ('A' for Active; 'I' for Inactive)
REMARK    1  A    between atoms: C_1  and  C_2
REMARK    2  A    between atoms: C_5  and  C_6
REMARK    3  A    between atoms: C_6  and  C_7
REMARK    4  A    between atoms: N_11  and  C_12
REMARK    5  A    between atoms: C_12  and  C_13
REMARK    6  A    between atoms: N_15  and  C_16
REMARK    7  A    between atoms: N_15  and  C_22
REMARK                            x       y       z     vdW  Elec       q    Type
REMARK                         _______ _______ _______ _____ _____    ______ ____
ROOT
ATOM      1  C   UNL     1       2.883   7.978  18.285  0.00  0.00    +0.000 C 
ENDROOT
BRANCH   1   7
ATOM      2  C   UNL     1       0.335  10.436  19.556  0.00  0.00    +0.000 C 
ATOM      3  C   UNL     1       0.988  11.650  20.226  0.00  0.00    +0.000 C 
ATOM      4  N   UNL     1       0.353   9.321  20.486  0.00  0.00    +0.000 N 
ATOM      5  C   UNL     1       1.306   8.384  20.166  0.00  0.00    +0.000 C 
ATOM      6  O   UNL     1       1.591   7.429  20.869  0.00  0.00    +0.000 OA
ATOM      7  N   UNL     1       1.833   8.702  18.958  0.00  0.00    +0.000 N 
ATOM      8  C   UNL     1       1.317   9.882  18.499  0.00  0.00    +0.000 C 
ATOM      9  O   UNL     1       1.642  10.426  17.450  0.00  0.00    +0.000 OA
ATOM     10  H   UNL     1      -0.080   9.320  21.399  0.00  0.00    +0.000 HD
BRANCH   2  15
ATOM     11  C   UNL     1      -4.993  11.506  17.336  0.00  0.00    +0.000 C 
ATOM     12  C   UNL     1      -3.626  11.237  17.891  0.00  0.00    +0.000 A 
ATOM     13  C   UNL     1      -2.810  10.238  17.357  0.00  0.00    +0.000 A 
ATOM     14  C   UNL     1      -1.543   9.989  17.896  0.00  0.00    +0.000 A 
ATOM     15  C   UNL     1      -1.049  10.730  18.986  0.00  0.00    +0.000 A 
ATOM     16  C   UNL     1      -1.884  11.731  19.514  0.00  0.00    +0.000 A 
ATOM     17  C   UNL     1      -3.151  11.980  18.975  0.00  0.00    +0.000 A 
ENDBRANCH   2  15
ENDBRANCH   1   7
BRANCH   1  18
ATOM     18  C   UNL     1       2.583   6.466  18.283  0.00  0.00    +0.000 C 
ATOM     19  O   UNL     1       1.433   6.072  18.073  0.00  0.00    +0.000 OA
ATOM     20  N   UNL     1       3.688   5.597  18.476  0.00  0.00    +0.000 N 
BRANCH  20  21
ATOM     21  C   UNL     1       5.087   6.088  18.451  0.00  0.00    +0.000 C 
ATOM     22  C   UNL     1       6.103   5.167  19.160  0.00  0.00    +0.000 C 
ATOM     23  C   UNL     1       7.482   5.623  18.726  0.00  0.00    +0.000 C 
ATOM     24  S   UNL     1       7.304   6.062  17.011  0.00  0.00    +0.000 S 
ATOM     25  O   UNL     1       7.458   4.871  16.211  0.00  0.00    +0.000 OA
ATOM     26  O   UNL     1       8.076   7.262  16.763  0.00  0.00    +0.000 OA
ATOM     27  C   UNL     1       5.581   6.496  17.059  0.00  0.00    +0.000 C 
ENDBRANCH  20  21
BRANCH  20  28
ATOM     28  C   UNL     1       3.446   4.167  18.526  0.00  0.00    +0.000 A 
ATOM     29  C   UNL     1       3.612   3.338  17.405  0.00  0.00    +0.000 A 
ATOM     30  C   UNL     1       3.338   1.968  17.450  0.00  0.00    +0.000 A 
ATOM     31  C   UNL     1       2.940   1.381  18.642  0.00  0.00    +0.000 A 
ATOM     32  C   UNL     1       2.814   2.167  19.782  0.00  0.00    +0.000 A 
ATOM     33  C   UNL     1       3.052   3.548  19.722  0.00  0.00    +0.000 A 
ENDBRANCH  20  28
ENDBRANCH   1  18
TORSDOF 5
ENDMDL
MODEL 3
REMARK VINA RESULT:      -8.1      1.629      1.807
REMARK  Name = 
REMARK  7 active torsions:
REMARK  status: ('A' for Active; 'I' for Inactive)
REMARK    1  A    between atoms: C_1  and  C_2
REMARK    2  A    between atoms: C_5  and  C_6
REMARK    3  A    between atoms: C_6  and  C_7
REMARK    4  A    between atoms: N_11  and  C_12
REMARK    5  A    between atoms: C_12  and  C_13
REMARK    6  A    between atoms: N_15  and  C_16
REMARK    7  A    between atoms: N_15  and  C_22
REMARK                            x       y       z     vdW  Elec       q    Type
REMARK                         _______ _______ _______ _____ _____    ______ ____
ROOT
ATOM      1  C   UNL     1       2.343   8.474  20.245  0.00  0.00    +0.000 C 
ENDROOT
BRANCH   1   7
ATOM      2  C   UNL     1      -0.150  11.261  19.831  0.00  0.00    +0.000 C 
ATOM      3  C   UNL     1       0.531  12.621  19.641  0.00  0.00    +0.000 C 
ATOM      4  N   UNL     1      -0.124  10.917  21.242  0.00  0.00    +0.000 N 
ATOM      5  C   UNL     1       0.811   9.952  21.531  0.00  0.00    +0.000 C 
ATOM      6  O   UNL     1       1.100   9.596  22.662  0.00  0.00    +0.000 OA
ATOM      7  N   UNL     1       1.316   9.479  20.366  0.00  0.00    +0.000 N 
ATOM      8  C   UNL     1       0.803  10.166  19.300  0.00  0.00    +0.000 C 
ATOM      9  O   UNL     1       1.112   9.973  18.130  0.00  0.00    +0.000 OA
ATOM     10  H   UNL     1      -0.538  11.468  21.980  0.00  0.00    +0.000 HD
BRANCH   2  15
ATOM     11  C   UNL     1      -5.517  11.043  17.464  0.00  0.00    +0.000 C 
ATOM     12  C   UNL     1      -4.151  11.096  18.082  0.00  0.00    +0.000 A 
ATOM     13  C   UNL     1      -3.813  12.082  19.009  0.00  0.00    +0.000 A 
ATOM     14  C   UNL     1      -2.530  12.127  19.566  0.00  0.00    +0.000 A 
ATOM     15  C   UNL     1      -1.542  11.188  19.213  0.00  0.00    +0.000 A 
ATOM     16  C   UNL     1      -1.898  10.202  18.275  0.00  0.00    +0.000 A 
ATOM     17  C   UNL     1      -3.182  10.158  17.719  0.00  0.00    +0.000 A 
ENDBRANCH   2  15
ENDBRANCH   1   7
BRANCH   1  18
ATOM     18  C   UNL     1       1.727   7.062  20.276  0.00  0.00    +0.000 C 
ATOM     19  O   UNL     1       0.578   6.906  20.701  0.00  0.00    +0.000 OA
ATOM     20  N   UNL     1       2.519   6.008  19.752  0.00  0.00    +0.000 N 
BRANCH  20  21
ATOM     21  C   UNL     1       3.773   6.266  19.003  0.00  0.00    +0.000 C 
ATOM     22  C   UNL     1       4.918   5.277  19.309  0.00  0.00    +0.000 C 
ATOM     23  C   UNL     1       5.954   5.460  18.219  0.00  0.00    +0.000 C 
ATOM     24  S   UNL     1       5.017   5.736  16.732  0.00  0.00    +0.000 S 
ATOM     25  O   UNL     1       4.663   4.457  16.165  0.00  0.00    +0.000 OA
ATOM     26  O   UNL     1       5.679   6.765  15.957  0.00  0.00    +0.000 OA
ATOM     27  C   UNL     1       3.574   6.440  17.494  0.00  0.00    +0.000 C 
ENDBRANCH  20  21
BRANCH  20  28
ATOM     28  C   UNL     1       1.996   4.655  19.803  0.00  0.00    +0.000 A 
ATOM     29  C   UNL     1       1.974   3.903  20.988  0.00  0.00    +0.000 A 
ATOM     30  C   UNL     1       1.506   2.587  21.021  0.00  0.00    +0.000 A 
ATOM     31  C   UNL     1       0.996   2.004  19.871  0.00  0.00    +0.000 A 
ATOM     32  C   UNL     1       0.959   2.741  18.692  0.00  0.00    +0.000 A 
ATOM     33  C   UNL     1       1.465   4.049  18.655  0.00  0.00    +0.000 A 
ENDBRANCH  20  28
ENDBRANCH   1  18
TORSDOF 5
ENDMDL
MODEL 4
REMARK VINA RESULT:      -8.0      1.648      2.212
REMARK  Name = 
REMARK  7 active torsions:
REMARK  status: ('A' for Active; 'I' for Inactive)
REMARK    1  A    between atoms: C_1  and  C_2
REMARK    2  A    between atoms: C_5  and  C_6
REMARK    3  A    between atoms: C_6  and  C_7
REMARK    4  A    between atoms: N_11  and  C_12
REMARK    5  A    between atoms: C_12  and  C_13
REMARK    6  A    between atoms: N_15  and  C_16
REMARK    7  A    between atoms: N_15  and  C_22
REMARK                            x       y       z     vdW  Elec       q    Type
REMARK                         _______ _______ _______ _____ _____    ______ ____
ROOT
ATOM      1  C   UNL     1       2.282   8.506  20.489  0.00  0.00    +0.000 C 
ENDROOT
BRANCH   1   7
ATOM      2  C   UNL     1      -0.168  11.330  20.072  0.00  0.00    +0.000 C 
ATOM      3  C   UNL     1       0.531  12.690  19.976  0.00  0.00    +0.000 C 
ATOM      4  N   UNL     1      -0.216  10.924  21.466  0.00  0.00    +0.000 N 
ATOM      5  C   UNL     1       0.697   9.940  21.760  0.00  0.00    +0.000 C 
ATOM      6  O   UNL     1       0.926   9.533  22.887  0.00  0.00    +0.000 OA
ATOM      7  N   UNL     1       1.257   9.514  20.602  0.00  0.00    +0.000 N 
ATOM      8  C   UNL     1       0.803  10.250  19.542  0.00  0.00    +0.000 C 
ATOM      9  O   UNL     1       1.170  10.105  18.382  0.00  0.00    +0.000 OA
ATOM     10  H   UNL     1      -0.663  11.447  22.206  0.00  0.00    +0.000 HD
BRANCH   2  15
ATOM     11  C   UNL     1      -5.390  11.136  17.399  0.00  0.00    +0.000 C 
ATOM     12  C   UNL     1      -4.050  11.188  18.069  0.00  0.00    +0.000 A 
ATOM     13  C   UNL     1      -3.041  10.281  17.745  0.00  0.00    +0.000 A 
ATOM     14  C   UNL     1      -1.800  10.334  18.390  0.00  0.00    +0.000 A 
ATOM     15  C   UNL     1      -1.527  11.296  19.382  0.00  0.00    +0.000 A 
ATOM     16  C   UNL     1      -2.555  12.202  19.699  0.00  0.00    +0.000 A 
ATOM     17  C   UNL     1      -3.796  12.148  19.052  0.00  0.00    +0.000 A 
ENDBRANCH   2  15
ENDBRANCH   1   7
BRANCH   1  18
ATOM     18  C   UNL     1       1.655   7.099  20.424  0.00  0.00    +0.000 C 
ATOM     19  O   UNL     1       0.494   6.930  20.806  0.00  0.00    +0.000 OA
ATOM     20  N   UNL     1       2.455   6.069  19.865  0.00  0.00    +0.000 N 
BRANCH  20  21
ATOM     21  C   UNL     1       3.733   6.358  19.169  0.00  0.00    +0.000 C 
ATOM     22  C   UNL     1       4.859   5.339  19.446  0.00  0.00    +0.000 C 
ATOM     23  C   UNL     1       5.928   5.575  18.398  0.00  0.00    +0.000 C 
ATOM     24  S   UNL     1       5.036   5.951  16.905  0.00  0.00    +0.000 S 
ATOM     25  O   UNL     1       4.686   4.713  16.252  0.00  0.00    +0.000 OA
ATOM     26  O   UNL     1       5.730   7.018  16.213  0.00  0.00    +0.000 OA
ATOM     27  C   UNL     1       3.579   6.624  17.668  0.00  0.00    +0.000 C 
ENDBRANCH  20  21
BRANCH  20  28
ATOM     28  C   UNL     1       1.922   4.720  19.825  0.00  0.00    +0.000 A 
ATOM     29  C   UNL     1       1.506   4.113  18.630  0.00  0.00    +0.000 A 
ATOM     30  C   UNL     1       0.956   2.828  18.605  0.00  0.00    +0.000 A 
ATOM     31  C   UNL     1       0.858   2.094  19.777  0.00  0.00    +0.000 A 
ATOM     32  C   UNL     1       1.308   2.650  20.970  0.00  0.00    +0.000 A 
ATOM     33  C   UNL     1       1.823   3.954  20.997  0.00  0.00    +0.000 A 
ENDBRANCH  20  28
ENDBRANCH   1  18
TORSDOF 5
ENDMDL
MODEL 5
REMARK VINA RESULT:      -7.9      2.057      2.989
REMARK  Name = 
REMARK  7 active torsions:
REMARK  status: ('A' for Active; 'I' for Inactive)
REMARK    1  A    between atoms: C_1  and  C_2
REMARK    2  A    between atoms: C_5  and  C_6
REMARK    3  A    between atoms: C_6  and  C_7
REMARK    4  A    between atoms: N_11  and  C_12
REMARK    5  A    between atoms: C_12  and  C_13
REMARK    6  A    between atoms: N_15  and  C_16
REMARK    7  A    between atoms: N_15  and  C_22
REMARK                            x       y       z     vdW  Elec       q    Type
REMARK                         _______ _______ _______ _____ _____    ______ ____
ROOT
ATOM      1  C   UNL     1       2.250   8.487  20.218  0.00  0.00    +0.000 C 
ENDROOT
BRANCH   1   7
ATOM      2  C   UNL     1      -0.451  10.794  18.978  0.00  0.00    +0.000 C 
ATOM      3  C   UNL     1      -1.794  10.074  18.814  0.00  0.00    +0.000 C 
ATOM      4  N   UNL     1       0.395  10.476  17.841  0.00  0.00    +0.000 N 
ATOM      5  C   UNL     1       1.383   9.574  18.155  0.00  0.00    +0.000 C 
ATOM      6  O   UNL     1       2.130   9.065  17.337  0.00  0.00    +0.000 OA
ATOM      7  N   UNL     1       1.378   9.382  19.497  0.00  0.00    +0.000 N 
ATOM      8  C   UNL     1       0.352  10.069  20.083  0.00  0.00    +0.000 C 
ATOM      9  O   UNL     1       0.090  10.048  21.280  0.00  0.00    +0.000 OA
ATOM     10  H   UNL     1       0.165  10.670  16.877  0.00  0.00    +0.000 HD
BRANCH   2  15
ATOM     11  C   UNL     1      -0.965  16.569  19.897  0.00  0.00    +0.000 C 
ATOM     12  C   UNL     1      -0.821  15.093  19.668  0.00  0.00    +0.000 A 
ATOM     13  C   UNL     1       0.155  14.585  18.810  0.00  0.00    +0.000 A 
ATOM     14  C   UNL     1       0.267  13.206  18.596  0.00  0.00    +0.000 A 
ATOM     15  C   UNL     1      -0.592  12.291  19.232  0.00  0.00    +0.000 A 
ATOM     16  C   UNL     1      -1.572  12.819  20.092  0.00  0.00    +0.000 A 
ATOM     17  C   UNL     1      -1.683  14.198  20.306  0.00  0.00    +0.000 A 
ENDBRANCH   2  15
ENDBRANCH   1   7
BRANCH   1  18
ATOM     18  C   UNL     1       1.666   7.061  20.239  0.00  0.00    +0.000 C 
ATOM     19  O   UNL     1       0.514   6.878  20.645  0.00  0.00    +0.000 OA
ATOM     20  N   UNL     1       2.490   6.026  19.727  0.00  0.00    +0.000 N 
BRANCH  20  21
ATOM     21  C   UNL     1       3.750   6.313  18.998  0.00  0.00    +0.000 C 
ATOM     22  C   UNL     1       4.937   5.407  19.386  0.00  0.00    +0.000 C 
ATOM     23  C   UNL     1       5.994   5.590  18.315  0.00  0.00    +0.000 C 
ATOM     24  S   UNL     1       5.086   5.735  16.791  0.00  0.00    +0.000 S 
ATOM     25  O   UNL     1       4.818   4.411  16.285  0.00  0.00    +0.000 OA
ATOM     26  O   UNL     1       5.714   6.758  15.980  0.00  0.00    +0.000 OA
ATOM     27  C   UNL     1       3.586   6.397  17.477  0.00  0.00    +0.000 C 
ENDBRANCH  20  21
BRANCH  20  28
ATOM     28  C   UNL     1       1.998   4.661  19.768  0.00  0.00    +0.000 A 
ATOM     29  C   UNL     1       1.975   3.908  20.952  0.00  0.00    +0.000 A 
ATOM     30  C   UNL     1       1.538   2.581  20.976  0.00  0.00    +0.000 A 
ATOM     31  C   UNL     1       1.059   1.988  19.818  0.00  0.00    +0.000 A 
ATOM     32  C   UNL     1       1.022   2.725  18.639  0.00  0.00    +0.000 A 
ATOM     33  C   UNL     1       1.499   4.044  18.611  0.00  0.00    +0.000 A 
ENDBRANCH  20  28
ENDBRANCH   1  18
TORSDOF 5
ENDMDL
MODEL 6
REMARK VINA RESULT:      -7.9      2.060      3.054
REMARK  Name = 
REMARK  7 active torsions:
REMARK  status: ('A' for Active; 'I' for Inactive)
REMARK    1  A    between atoms: C_1  and  C_2
REMARK    2  A    between atoms: C_5  and  C_6
REMARK    3  A    between atoms: C_6  and  C_7
REMARK    4  A    between atoms: N_11  and  C_12
REMARK    5  A    between atoms: C_12  and  C_13
REMARK    6  A    between atoms: N_15  and  C_16
REMARK    7  A    between atoms: N_15  and  C_22
REMARK                            x       y       z     vdW  Elec       q    Type
REMARK                         _______ _______ _______ _____ _____    ______ ____
ROOT
ATOM      1  C   UNL     1       2.244   8.482  20.217  0.00  0.00    +0.000 C 
ENDROOT
BRANCH   1   7
ATOM      2  C   UNL     1      -0.446  10.794  18.963  0.00  0.00    +0.000 C 
ATOM      3  C   UNL     1      -1.791  10.080  18.801  0.00  0.00    +0.000 C 
ATOM      4  N   UNL     1       0.400  10.467  17.828  0.00  0.00    +0.000 N 
ATOM      5  C   UNL     1       1.384   9.563  18.148  0.00  0.00    +0.000 C 
ATOM      6  O   UNL     1       2.130   9.046  17.333  0.00  0.00    +0.000 OA
ATOM      7  N   UNL     1       1.377   9.377  19.491  0.00  0.00    +0.000 N 
ATOM      8  C   UNL     1       0.353  10.072  20.073  0.00  0.00    +0.000 C 
ATOM      9  O   UNL     1       0.090  10.058  21.270  0.00  0.00    +0.000 OA
ATOM     10  H   UNL     1       0.172  10.658  16.863  0.00  0.00    +0.000 HD
BRANCH   2  15
ATOM     11  C   UNL     1      -0.995  16.552  19.966  0.00  0.00    +0.000 C 
ATOM     12  C   UNL     1      -0.868  15.081  19.704  0.00  0.00    +0.000 A 
ATOM     13  C   UNL     1      -1.696  14.156  20.342  0.00  0.00    +0.000 A 
ATOM     14  C   UNL     1      -1.555  12.785  20.098  0.00  0.00    +0.000 A 
ATOM     15  C   UNL     1      -0.581  12.293  19.209  0.00  0.00    +0.000 A 
ATOM     16  C   UNL     1       0.247  13.238  18.575  0.00  0.00    +0.000 A 
ATOM     17  C   UNL     1       0.104  14.608  18.819  0.00  0.00    +0.000 A 
ENDBRANCH   2  15
ENDBRANCH   1   7
BRANCH   1  18
ATOM     18  C   UNL     1       1.659   7.057  20.236  0.00  0.00    +0.000 C 
ATOM     19  O   UNL     1       0.509   6.874  20.645  0.00  0.00    +0.000 OA
ATOM     20  N   UNL     1       2.482   6.023  19.719  0.00  0.00    +0.000 N 
BRANCH  20  21
ATOM     21  C   UNL     1       3.740   6.312  18.988  0.00  0.00    +0.000 C 
ATOM     22  C   UNL     1       4.931   5.412  19.380  0.00  0.00    +0.000 C 
ATOM     23  C   UNL     1       5.986   5.593  18.307  0.00  0.00    +0.000 C 
ATOM     24  S   UNL     1       5.077   5.727  16.784  0.00  0.00    +0.000 S 
ATOM     25  O   UNL     1       4.815   4.399  16.285  0.00  0.00    +0.000 OA
ATOM     26  O   UNL     1       5.701   6.748  15.966  0.00  0.00    +0.000 OA
ATOM     27  C   UNL     1       3.575   6.386  17.467  0.00  0.00    +0.000 C 
ENDBRANCH  20  21
BRANCH  20  28
ATOM     28  C   UNL     1       1.990   4.658  19.758  0.00  0.00    +0.000 A 
ATOM     29  C   UNL     1       1.502   4.004  18.616  0.00  0.00    +0.000 A 
ATOM     30  C   UNL     1       0.992   2.704  18.669  0.00  0.00    +0.000 A 
ATOM     31  C   UNL     1       1.007   2.002  19.865  0.00  0.00    +0.000 A 
ATOM     32  C   UNL     1       1.529   2.606  21.004  0.00  0.00    +0.000 A 
ATOM     33  C   UNL     1       2.004   3.925  20.954  0.00  0.00    +0.000 A 
ENDBRANCH  20  28
ENDBRANCH   1  18
TORSDOF 5
ENDMDL
MODEL 7
REMARK VINA RESULT:      -7.9      1.731      2.146
REMARK  Name = 
REMARK  7 active torsions:
REMARK  status: ('A' for Active; 'I' for Inactive)
REMARK    1  A    between atoms: C_1  and  C_2
REMARK    2  A    between atoms: C_5  and  C_6
REMARK    3  A    between atoms: C_6  and  C_7
REMARK    4  A    between atoms: N_11  and  C_12
REMARK    5  A    between atoms: C_12  and  C_13
REMARK    6  A    between atoms: N_15  and  C_16
REMARK    7  A    between atoms: N_15  and  C_22
REMARK                            x       y       z     vdW  Elec       q    Type
REMARK                         _______ _______ _______ _____ _____    ______ ____
ROOT
ATOM      1  C   UNL     1       2.126   8.289  20.603  0.00  0.00    +0.000 C 
ENDROOT
BRANCH   1   7
ATOM      2  C   UNL     1      -0.111  10.924  19.118  0.00  0.00    +0.000 C 
ATOM      3  C   UNL     1       0.533  12.314  19.155  0.00  0.00    +0.000 C 
ATOM      4  N   UNL     1      -0.634  10.613  20.437  0.00  0.00    +0.000 N 
ATOM      5  C   UNL     1       0.149   9.709  21.114  0.00  0.00    +0.000 C 
ATOM      6  O   UNL     1      -0.021   9.395  22.281  0.00  0.00    +0.000 OA
ATOM      7  N   UNL     1       1.095   9.238  20.265  0.00  0.00    +0.000 N 
ATOM      8  C   UNL     1       1.020   9.871  19.055  0.00  0.00    +0.000 C 
ATOM      9  O   UNL     1       1.776   9.669  18.113  0.00  0.00    +0.000 OA
ATOM     10  H   UNL     1      -1.329  11.157  20.927  0.00  0.00    +0.000 HD
BRANCH   2  15
ATOM     11  C   UNL     1      -4.059  10.228  14.831  0.00  0.00    +0.000 C 
ATOM     12  C   UNL     1      -3.039  10.405  15.916  0.00  0.00    +0.000 A 
ATOM     13  C   UNL     1      -2.137   9.390  16.237  0.00  0.00    +0.000 A 
ATOM     14  C   UNL     1      -1.202   9.565  17.263  0.00  0.00    +0.000 A 
ATOM     15  C   UNL     1      -1.138  10.760  18.003  0.00  0.00    +0.000 A 
ATOM     16  C   UNL     1      -2.054  11.773  17.670  0.00  0.00    +0.000 A 
ATOM     17  C   UNL     1      -2.989  11.597  16.643  0.00  0.00    +0.000 A 
ENDBRANCH   2  15
ENDBRANCH   1   7
BRANCH   1  18
ATOM     18  C   UNL     1       1.593   6.847  20.495  0.00  0.00    +0.000 C 
ATOM     19  O   UNL     1       0.449   6.588  20.880  0.00  0.00    +0.000 OA
ATOM     20  N   UNL     1       2.454   5.892  19.895  0.00  0.00    +0.000 N 
BRANCH  20  21
ATOM     21  C   UNL     1       3.703   6.288  19.199  0.00  0.00    +0.000 C 
ATOM     22  C   UNL     1       4.902   5.349  19.448  0.00  0.00    +0.000 C 
ATOM     23  C   UNL     1       5.945   5.686  18.401  0.00  0.00    +0.000 C 
ATOM     24  S   UNL     1       5.019   6.027  16.921  0.00  0.00    +0.000 S 
ATOM     25  O   UNL     1       4.756   4.781  16.243  0.00  0.00    +0.000 OA
ATOM     26  O   UNL     1       5.628   7.156  16.249  0.00  0.00    +0.000 OA
ATOM     27  C   UNL     1       3.521   6.575  17.705  0.00  0.00    +0.000 C 
ENDBRANCH  20  21
BRANCH  20  28
ATOM     28  C   UNL     1       2.011   4.513  19.812  0.00  0.00    +0.000 A 
ATOM     29  C   UNL     1       2.058   3.642  20.913  0.00  0.00    +0.000 A 
ATOM     30  C   UNL     1       1.667   2.304  20.815  0.00  0.00    +0.000 A 
ATOM     31  C   UNL     1       1.166   1.814  19.619  0.00  0.00    +0.000 A 
ATOM     32  C   UNL     1       1.060   2.666  18.524  0.00  0.00    +0.000 A 
ATOM     33  C   UNL     1       1.490   3.998  18.616  0.00  0.00    +0.000 A 
ENDBRANCH  20  28
ENDBRANCH   1  18
TORSDOF 5
ENDMDL
MODEL 8
REMARK VINA RESULT:      -7.8      1.759      2.180
REMARK  Name = 
REMARK  7 active torsions:
REMARK  status: ('A' for Active; 'I' for Inactive)
REMARK    1  A    between atoms: C_1  and  C_2
REMARK    2  A    between atoms: C_5  and  C_6
REMARK    3  A    between atoms: C_6  and  C_7
REMARK    4  A    between atoms: N_11  and  C_12
REMARK    5  A    between atoms: C_12  and  C_13
REMARK    6  A    between atoms: N_15  and  C_16
REMARK    7  A    between atoms: N_15  and  C_22
REMARK                            x       y       z     vdW  Elec       q    Type
REMARK                         _______ _______ _______ _____ _____    ______ ____
ROOT
ATOM      1  C   UNL     1       2.111   8.316  20.598  0.00  0.00    +0.000 C 
ENDROOT
BRANCH   1   7
ATOM      2  C   UNL     1      -0.118  10.917  19.042  0.00  0.00    +0.000 C 
ATOM      3  C   UNL     1       0.526  12.307  19.048  0.00  0.00    +0.000 C 
ATOM      4  N   UNL     1      -0.647  10.638  20.366  0.00  0.00    +0.000 N 
ATOM      5  C   UNL     1       0.132   9.749  21.067  0.00  0.00    +0.000 C 
ATOM      6  O   UNL     1      -0.043   9.463  22.240  0.00  0.00    +0.000 OA
ATOM      7  N   UNL     1       1.081   9.258  20.233  0.00  0.00    +0.000 N 
ATOM      8  C   UNL     1       1.012   9.862  19.008  0.00  0.00    +0.000 C 
ATOM      9  O   UNL     1       1.772   9.637  18.074  0.00  0.00    +0.000 OA
ATOM     10  H   UNL     1      -1.344  11.194  20.839  0.00  0.00    +0.000 HD
BRANCH   2  15
ATOM     11  C   UNL     1      -4.057  10.252  14.740  0.00  0.00    +0.000 C 
ATOM     12  C   UNL     1      -3.061  10.423  15.848  0.00  0.00    +0.000 A 
ATOM     13  C   UNL     1      -2.952  11.627  16.545  0.00  0.00    +0.000 A 
ATOM     14  C   UNL     1      -2.008  11.776  17.568  0.00  0.00    +0.000 A 
ATOM     15  C   UNL     1      -1.141  10.727  17.926  0.00  0.00    +0.000 A 
ATOM     16  C   UNL     1      -1.262   9.521  17.214  0.00  0.00    +0.000 A 
ATOM     17  C   UNL     1      -2.207   9.372  16.192  0.00  0.00    +0.000 A 
ENDBRANCH   2  15
ENDBRANCH   1   7
BRANCH   1  18
ATOM     18  C   UNL     1       1.583   6.871  20.501  0.00  0.00    +0.000 C 
ATOM     19  O   UNL     1       0.444   6.609  20.896  0.00  0.00    +0.000 OA
ATOM     20  N   UNL     1       2.444   5.918  19.898  0.00  0.00    +0.000 N 
BRANCH  20  21
ATOM     21  C   UNL     1       3.684   6.316  19.189  0.00  0.00    +0.000 C 
ATOM     22  C   UNL     1       4.891   5.386  19.436  0.00  0.00    +0.000 C 
ATOM     23  C   UNL     1       5.923   5.722  18.378  0.00  0.00    +0.000 C 
ATOM     24  S   UNL     1       4.984   6.048  16.903  0.00  0.00    +0.000 S 
ATOM     25  O   UNL     1       4.724   4.795  16.236  0.00  0.00    +0.000 OA
ATOM     26  O   UNL     1       5.582   7.176  16.219  0.00  0.00    +0.000 OA
ATOM     27  C   UNL     1       3.489   6.592  17.695  0.00  0.00    +0.000 C 
ENDBRANCH  20  21
BRANCH  20  28
ATOM     28  C   UNL     1       2.006   4.536  19.825  0.00  0.00    +0.000 A 
ATOM     29  C   UNL     1       1.521   3.964  18.638  0.00  0.00    +0.000 A 
ATOM     30  C   UNL     1       1.064   2.644  18.586  0.00  0.00    +0.000 A 
ATOM     31  C   UNL     1       1.132   1.842  19.715  0.00  0.00    +0.000 A 
ATOM     32  C   UNL     1       1.654   2.366  20.893  0.00  0.00    +0.000 A 
ATOM     33  C   UNL     1       2.075   3.702  20.952  0.00  0.00    +0.000 A 
ENDBRANCH  20  28
ENDBRANCH   1  18
TORSDOF 5
ENDMDL
MODEL 9
REMARK VINA RESULT:      -7.7      2.601      4.037
REMARK  Name = 
REMARK  7 active torsions:
REMARK  status: ('A' for Active; 'I' for Inactive)
REMARK    1  A    between atoms: C_1  and  C_2
REMARK    2  A    between atoms: C_5  and  C_6
REMARK    3  A    between atoms: C_6  and  C_7
REMARK    4  A    between atoms: N_11  and  C_12
REMARK    5  A    between atoms: C_12  and  C_13
REMARK    6  A    between atoms: N_15  and  C_16
REMARK    7  A    between atoms: N_15  and  C_22
REMARK                            x       y       z     vdW  Elec       q    Type
REMARK                         _______ _______ _______ _____ _____    ______ ____
ROOT
ATOM      1  C   UNL     1       1.012   8.077  18.434  0.00  0.00    +0.000 C 
ENDROOT
BRANCH   1   7
ATOM      2  C   UNL     1       0.464  11.056  20.665  0.00  0.00    +0.000 C 
ATOM      3  C   UNL     1       1.550  12.121  20.483  0.00  0.00    +0.000 C 
ATOM      4  N   UNL     1       0.989   9.989  21.499  0.00  0.00    +0.000 N 
ATOM      5  C   UNL     1       1.300   8.862  20.777  0.00  0.00    +0.000 C 
ATOM      6  O   UNL     1       1.870   7.888  21.240  0.00  0.00    +0.000 OA
ATOM      7  N   UNL     1       0.854   9.027  19.507  0.00  0.00    +0.000 N 
ATOM      8  C   UNL     1       0.325  10.277  19.337  0.00  0.00    +0.000 C 
ATOM      9  O   UNL     1      -0.120  10.709  18.281  0.00  0.00    +0.000 OA
ATOM     10  H   UNL     1       1.333  10.106  22.441  0.00  0.00    +0.000 HD
BRANCH   2  15
ATOM     11  C   UNL     1      -4.615  13.234  22.644  0.00  0.00    +0.000 C 
ATOM     12  C   UNL     1      -3.322  12.665  22.142  0.00  0.00    +0.000 A 
ATOM     13  C   UNL     1      -2.434  12.015  23.000  0.00  0.00    +0.000 A 
ATOM     14  C   UNL     1      -1.224  11.502  22.518  0.00  0.00    +0.000 A 
ATOM     15  C   UNL     1      -0.862  11.621  21.164  0.00  0.00    +0.000 A 
ATOM     16  C   UNL     1      -1.767  12.280  20.312  0.00  0.00    +0.000 A 
ATOM     17  C   UNL     1      -2.977  12.793  20.794  0.00  0.00    +0.000 A 
ENDBRANCH   2  15
ENDBRANCH   1   7
BRANCH   1  18
ATOM     18  C   UNL     1       2.505   7.824  18.148  0.00  0.00    +0.000 C 
ATOM     19  O   UNL     1       3.263   8.782  17.966  0.00  0.00    +0.000 OA
ATOM     20  N   UNL     1       2.937   6.473  18.164  0.00  0.00    +0.000 N 
BRANCH  20  21
ATOM     21  C   UNL     1       2.067   5.376  18.653  0.00  0.00    +0.000 C 
ATOM     22  C   UNL     1       1.928   4.185  17.681  0.00  0.00    +0.000 C 
ATOM     23  C   UNL     1       1.331   3.041  18.475  0.00  0.00    +0.000 C 
ATOM     24  S   UNL     1       2.083   3.152  20.083  0.00  0.00    +0.000 S 
ATOM     25  O   UNL     1       3.346   2.455  20.051  0.00  0.00    +0.000 OA
ATOM     26  O   UNL     1       1.073   2.871  21.082  0.00  0.00    +0.000 OA
ATOM     27  C   UNL     1       2.398   4.902  20.072  0.00  0.00    +0.000 C 
ENDBRANCH  20  21
BRANCH  20  28
ATOM     28  C   UNL     1       4.326   6.185  17.856  0.00  0.00    +0.000 A 
ATOM     29  C   UNL     1       5.252   5.814  18.844  0.00  0.00    +0.000 A 
ATOM     30  C   UNL     1       6.597   5.578  18.545  0.00  0.00    +0.000 A 
ATOM     31  C   UNL     1       7.039   5.653  17.233  0.00  0.00    +0.000 A 
ATOM     32  C   UNL     1       6.134   5.969  16.226  0.00  0.00    +0.000 A 
ATOM     33  C   UNL     1       4.794   6.244  16.535  0.00  0.00    +0.000 A 
ENDBRANCH  20  28
ENDBRANCH   1  18
TORSDOF 5
ENDMDL
