MODEL 1
REMARK VINA RESULT:      -8.9      0.000      0.000
REMARK  Name = 
REMARK  3 active torsions:
REMARK  status: ('A' for Active; 'I' for Inactive)
REMARK    1  A    between atoms: C_1  and  C_2
REMARK    2  A    between atoms: C_5  and  N_6
REMARK    3  A    between atoms: N_16  and  C_17
REMARK                            x       y       z     vdW  Elec       q    Type
REMARK                         _______ _______ _______ _____ _____    ______ ____
ROOT
ATOM      1  N   UNL     1       2.264   7.388  19.392  0.00  0.00    +0.000 N 
ATOM      2  C   UNL     1       2.577   6.069  19.830  0.00  0.00    +0.000 A 
ATOM      3  N   UNL     1       1.761   5.498  20.758  0.00  0.00    +0.000 NA
ATOM      4  C   UNL     1       2.122   4.225  21.051  0.00  0.00    +0.000 A 
ATOM      5  N   UNL     1       1.508   3.404  21.902  0.00  0.00    +0.000 NA
ATOM      6  O   UNL     1       2.252   2.227  21.851  0.00  0.00    +0.000 OA
ATOM      7  N   UNL     1       3.325   2.322  20.963  0.00  0.00    +0.000 NA
ATOM      8  C   UNL     1       3.242   3.554  20.463  0.00  0.00    +0.000 A 
ATOM      9  N   UNL     1       4.067   4.116  19.538  0.00  0.00    +0.000 NA
ATOM     10  C   UNL     1       3.709   5.396  19.235  0.00  0.00    +0.000 A 
ATOM     11  N   UNL     1       4.494   6.105  18.287  0.00  0.00    +0.000 N 
ATOM     12  H   UNL     1       2.067   7.376  18.395  0.00  0.00    +0.000 HD
ATOM     13  H   UNL     1       4.889   6.947  18.703  0.00  0.00    +0.000 HD
ENDROOT
BRANCH   1  18
ATOM     14  C   UNL     1      -0.541  11.413  22.360  0.00  0.00    +0.000 C 
ATOM     15  C   UNL     1       0.112  10.310  21.582  0.00  0.00    +0.000 A 
ATOM     16  C   UNL     1       0.769   9.272  22.242  0.00  0.00    +0.000 A 
ATOM     17  C   UNL     1       1.446   8.295  21.513  0.00  0.00    +0.000 A 
ATOM     18  C   UNL     1       1.479   8.318  20.112  0.00  0.00    +0.000 A 
ATOM     19  C   UNL     1       0.793   9.345  19.454  0.00  0.00    +0.000 A 
ATOM     20  C   UNL     1       0.106  10.325  20.183  0.00  0.00    +0.000 A 
ENDBRANCH   1  18
BRANCH  11  21
ATOM     21  C   UNL     1       5.319   5.538  17.287  0.00  0.00    +0.000 A 
ATOM     22  C   UNL     1       4.901   5.469  15.953  0.00  0.00    +0.000 A 
ATOM     23  C   UNL     1       5.773   5.054  14.942  0.00  0.00    +0.000 A 
ATOM     24  C   UNL     1       7.079   4.685  15.252  0.00  0.00    +0.000 A 
ATOM     25  C   UNL     1       7.505   4.709  16.579  0.00  0.00    +0.000 A 
ATOM     26  C   UNL     1       6.632   5.137  17.577  0.00  0.00    +0.000 A 
ATOM     27  F   UNL     1       7.066   5.157  18.850  0.00  0.00    +0.000 F 
ENDBRANCH  11  21
TORSDOF 2
ENDMDL
MODEL 2
REMARK VINA RESULT:      -8.9      0.286      1.002
REMARK  Name = 
REMARK  3 active torsions:
REMARK  status: ('A' for Active; 'I' for Inactive)
REMARK    1  A    between atoms: C_1  and  C_2
REMARK    2  A    between atoms: C_5  and  N_6
REMARK    3  A    between atoms: N_16  and  C_17
REMARK                            x       y       z     vdW  Elec       q    Type
REMARK                         _______ _______ _______ _____ _____    ______ ____
ROOT
ATOM      1  N   UNL     1       2.338   7.510  19.444  0.00  0.00    +0.000 N 
ATOM      2  C   UNL     1       2.530   6.138  19.774  0.00  0.00    +0.000 A 
ATOM      3  N   UNL     1       1.635   5.558  20.620  0.00  0.00    +0.000 NA
ATOM      4  C   UNL     1       1.884   4.240  20.812  0.00  0.00    +0.000 A 
ATOM      5  N   UNL     1       1.175   3.401  21.566  0.00  0.00    +0.000 NA
ATOM      6  O   UNL     1       1.827   2.177  21.437  0.00  0.00    +0.000 OA
ATOM      7  N   UNL     1       2.939   2.260  20.598  0.00  0.00    +0.000 NA
ATOM      8  C   UNL     1       2.972   3.533  20.206  0.00  0.00    +0.000 A 
ATOM      9  N   UNL     1       3.875   4.103  19.362  0.00  0.00    +0.000 NA
ATOM     10  C   UNL     1       3.629   5.429  19.160  0.00  0.00    +0.000 A 
ATOM     11  N   UNL     1       4.505   6.150  18.305  0.00  0.00    +0.000 N 
ATOM     12  H   UNL     1       2.181   7.600  18.443  0.00  0.00    +0.000 HD
ATOM     13  H   UNL     1       4.947   6.919  18.807  0.00  0.00    +0.000 HD
ENDROOT
BRANCH   1  18
ATOM     14  C   UNL     1      -1.018  10.991  22.528  0.00  0.00    +0.000 C 
ATOM     15  C   UNL     1      -0.071  10.145  21.729  0.00  0.00    +0.000 A 
ATOM     16  C   UNL     1      -0.032  10.247  20.339  0.00  0.00    +0.000 A 
ATOM     17  C   UNL     1       0.790   9.400  19.597  0.00  0.00    +0.000 A 
ATOM     18  C   UNL     1       1.599   8.437  20.215  0.00  0.00    +0.000 A 
ATOM     19  C   UNL     1       1.578   8.358  21.612  0.00  0.00    +0.000 A 
ATOM     20  C   UNL     1       0.759   9.213  22.362  0.00  0.00    +0.000 A 
ENDBRANCH   1  18
BRANCH  11  21
ATOM     21  C   UNL     1       5.324   5.606  17.288  0.00  0.00    +0.000 A 
ATOM     22  C   UNL     1       4.930   5.637  15.945  0.00  0.00    +0.000 A 
ATOM     23  C   UNL     1       5.803   5.241  14.927  0.00  0.00    +0.000 A 
ATOM     24  C   UNL     1       7.084   4.793  15.237  0.00  0.00    +0.000 A 
ATOM     25  C   UNL     1       7.482   4.718  16.571  0.00  0.00    +0.000 A 
ATOM     26  C   UNL     1       6.610   5.126  17.576  0.00  0.00    +0.000 A 
ATOM     27  F   UNL     1       7.017   5.050  18.856  0.00  0.00    +0.000 F 
ENDBRANCH  11  21
TORSDOF 2
ENDMDL
MODEL 3
REMARK VINA RESULT:      -8.7      0.994      1.360
REMARK  Name = 
REMARK  3 active torsions:
REMARK  status: ('A' for Active; 'I' for Inactive)
REMARK    1  A    between atoms: C_1  and  C_2
REMARK    2  A    between atoms: C_5  and  N_6
REMARK    3  A    between atoms: N_16  and  C_17
REMARK                            x       y       z     vdW  Elec       q    Type
REMARK                         _______ _______ _______ _____ _____    ______ ____
ROOT
ATOM      1  N   UNL     1       2.281   7.607  19.466  0.00  0.00    +0.000 N 
ATOM      2  C   UNL     1       2.508   6.232  19.761  0.00  0.00    +0.000 A 
ATOM      3  N   UNL     1       1.578   5.582  20.512  0.00  0.00    +0.000 NA
ATOM      4  C   UNL     1       1.871   4.269  20.676  0.00  0.00    +0.000 A 
ATOM      5  N   UNL     1       1.145   3.372  21.341  0.00  0.00    +0.000 NA
ATOM      6  O   UNL     1       1.859   2.183  21.220  0.00  0.00    +0.000 OA
ATOM      7  N   UNL     1       3.028   2.346  20.474  0.00  0.00    +0.000 NA
ATOM      8  C   UNL     1       3.034   3.634  20.132  0.00  0.00    +0.000 A 
ATOM      9  N   UNL     1       3.972   4.274  19.384  0.00  0.00    +0.000 NA
ATOM     10  C   UNL     1       3.683   5.595  19.211  0.00  0.00    +0.000 A 
ATOM     11  N   UNL     1       4.589   6.386  18.454  0.00  0.00    +0.000 N 
ATOM     12  H   UNL     1       2.198   7.729  18.460  0.00  0.00    +0.000 HD
ATOM     13  H   UNL     1       4.955   7.153  19.017  0.00  0.00    +0.000 HD
ENDROOT
BRANCH   1  18
ATOM     14  C   UNL     1      -0.760  11.389  22.522  0.00  0.00    +0.000 C 
ATOM     15  C   UNL     1      -0.041  10.343  21.723  0.00  0.00    +0.000 A 
ATOM     16  C   UNL     1       0.720   9.364  22.362  0.00  0.00    +0.000 A 
ATOM     17  C   UNL     1       1.453   8.446  21.611  0.00  0.00    +0.000 A 
ATOM     18  C   UNL     1       1.443   8.470  20.210  0.00  0.00    +0.000 A 
ATOM     19  C   UNL     1       0.655   9.435  19.574  0.00  0.00    +0.000 A 
ATOM     20  C   UNL     1      -0.090  10.356  20.325  0.00  0.00    +0.000 A 
ENDBRANCH   1  18
BRANCH  11  21
ATOM     21  C   UNL     1       5.507   5.918  17.485  0.00  0.00    +0.000 A 
ATOM     22  C   UNL     1       6.577   5.089  17.841  0.00  0.00    +0.000 A 
ATOM     23  C   UNL     1       7.391   4.501  16.867  0.00  0.00    +0.000 A 
ATOM     24  C   UNL     1       7.154   4.745  15.517  0.00  0.00    +0.000 A 
ATOM     25  C   UNL     1       6.118   5.598  15.143  0.00  0.00    +0.000 A 
ATOM     26  C   UNL     1       5.306   6.168  16.119  0.00  0.00    +0.000 A 
ATOM     27  F   UNL     1       4.307   6.985  15.736  0.00  0.00    +0.000 F 
ENDBRANCH  11  21
TORSDOF 2
ENDMDL
MODEL 4
REMARK VINA RESULT:      -8.4      1.019      1.598
REMARK  Name = 
REMARK  3 active torsions:
REMARK  status: ('A' for Active; 'I' for Inactive)
REMARK    1  A    between atoms: C_1  and  C_2
REMARK    2  A    between atoms: C_5  and  N_6
REMARK    3  A    between atoms: N_16  and  C_17
REMARK                            x       y       z     vdW  Elec       q    Type
REMARK                         _______ _______ _______ _____ _____    ______ ____
ROOT
ATOM      1  N   UNL     1       2.264   7.482  19.472  0.00  0.00    +0.000 N 
ATOM      2  C   UNL     1       2.601   6.156  19.867  0.00  0.00    +0.000 A 
ATOM      3  N   UNL     1       1.844   5.570  20.835  0.00  0.00    +0.000 NA
ATOM      4  C   UNL     1       2.221   4.292  21.083  0.00  0.00    +0.000 A 
ATOM      5  N   UNL     1       1.661   3.457  21.957  0.00  0.00    +0.000 NA
ATOM      6  O   UNL     1       2.398   2.281  21.840  0.00  0.00    +0.000 OA
ATOM      7  N   UNL     1       3.413   2.389  20.887  0.00  0.00    +0.000 NA
ATOM      8  C   UNL     1       3.300   3.630  20.415  0.00  0.00    +0.000 A 
ATOM      9  N   UNL     1       4.066   4.206  19.449  0.00  0.00    +0.000 NA
ATOM     10  C   UNL     1       3.692   5.492  19.190  0.00  0.00    +0.000 A 
ATOM     11  N   UNL     1       4.417   6.216  18.206  0.00  0.00    +0.000 N 
ATOM     12  H   UNL     1       2.004   7.487  18.489  0.00  0.00    +0.000 HD
ATOM     13  H   UNL     1       4.839   7.050  18.610  0.00  0.00    +0.000 HD
ENDROOT
BRANCH   1  18
ATOM     14  C   UNL     1      -1.075  10.926  22.614  0.00  0.00    +0.000 C 
ATOM     15  C   UNL     1      -0.134  10.091  21.798  0.00  0.00    +0.000 A 
ATOM     16  C   UNL     1      -0.132  10.183  20.407  0.00  0.00    +0.000 A 
ATOM     17  C   UNL     1       0.686   9.344  19.650  0.00  0.00    +0.000 A 
ATOM     18  C   UNL     1       1.528   8.401  20.255  0.00  0.00    +0.000 A 
ATOM     19  C   UNL     1       1.544   8.334  21.652  0.00  0.00    +0.000 A 
ATOM     20  C   UNL     1       0.729   9.180  22.417  0.00  0.00    +0.000 A 
ENDBRANCH   1  18
BRANCH  11  21
ATOM     21  C   UNL     1       5.175   5.665  17.146  0.00  0.00    +0.000 A 
ATOM     22  C   UNL     1       6.508   6.038  16.937  0.00  0.00    +0.000 A 
ATOM     23  C   UNL     1       7.302   5.382  15.991  0.00  0.00    +0.000 A 
ATOM     24  C   UNL     1       6.770   4.349  15.226  0.00  0.00    +0.000 A 
ATOM     25  C   UNL     1       5.434   3.987  15.391  0.00  0.00    +0.000 A 
ATOM     26  C   UNL     1       4.655   4.637  16.344  0.00  0.00    +0.000 A 
ATOM     27  F   UNL     1       3.370   4.269  16.491  0.00  0.00    +0.000 F 
ENDBRANCH  11  21
TORSDOF 2
ENDMDL
MODEL 5
REMARK VINA RESULT:      -8.4      1.680      6.921
REMARK  Name = 
REMARK  3 active torsions:
REMARK  status: ('A' for Active; 'I' for Inactive)
REMARK    1  A    between atoms: C_1  and  C_2
REMARK    2  A    between atoms: C_5  and  N_6
REMARK    3  A    between atoms: N_16  and  C_17
REMARK                            x       y       z     vdW  Elec       q    Type
REMARK                         _______ _______ _______ _____ _____    ______ ____
ROOT
ATOM      1  N   UNL     1       4.290   6.303  18.061  0.00  0.00    +0.000 N 
ATOM      2  C   UNL     1       3.636   5.535  19.066  0.00  0.00    +0.000 A 
ATOM      3  N   UNL     1       4.122   4.291  19.331  0.00  0.00    +0.000 NA
ATOM      4  C   UNL     1       3.459   3.681  20.344  0.00  0.00    +0.000 A 
ATOM      5  N   UNL     1       3.715   2.473  20.843  0.00  0.00    +0.000 NA
ATOM      6  O   UNL     1       2.772   2.305  21.854  0.00  0.00    +0.000 OA
ATOM      7  N   UNL     1       1.935   3.416  21.982  0.00  0.00    +0.000 NA
ATOM      8  C   UNL     1       2.363   4.270  21.052  0.00  0.00    +0.000 A 
ATOM      9  N   UNL     1       1.867   5.510  20.795  0.00  0.00    +0.000 NA
ATOM     10  C   UNL     1       2.530   6.132  19.779  0.00  0.00    +0.000 A 
ATOM     11  N   UNL     1       2.106   7.434  19.400  0.00  0.00    +0.000 N 
ATOM     12  H   UNL     1       4.672   7.149  18.475  0.00  0.00    +0.000 HD
ATOM     13  H   UNL     1       1.817   7.448  18.423  0.00  0.00    +0.000 HD
ENDROOT
BRANCH   1  18
ATOM     14  C   UNL     1       7.365   4.466  13.582  0.00  0.00    +0.000 C 
ATOM     15  C   UNL     1       6.596   4.874  14.803  0.00  0.00    +0.000 A 
ATOM     16  C   UNL     1       5.299   4.406  15.012  0.00  0.00    +0.000 A 
ATOM     17  C   UNL     1       4.560   4.855  16.106  0.00  0.00    +0.000 A 
ATOM     18  C   UNL     1       5.091   5.771  17.024  0.00  0.00    +0.000 A 
ATOM     19  C   UNL     1       6.404   6.215  16.827  0.00  0.00    +0.000 A 
ATOM     20  C   UNL     1       7.153   5.761  15.732  0.00  0.00    +0.000 A 
ENDBRANCH   1  18
BRANCH  11  21
ATOM     21  C   UNL     1       1.395   8.354  20.205  0.00  0.00    +0.000 A 
ATOM     22  C   UNL     1       1.469   8.305  21.602  0.00  0.00    +0.000 A 
ATOM     23  C   UNL     1       0.894   9.305  22.392  0.00  0.00    +0.000 A 
ATOM     24  C   UNL     1       0.221  10.368  21.796  0.00  0.00    +0.000 A 
ATOM     25  C   UNL     1       0.102  10.416  20.408  0.00  0.00    +0.000 A 
ATOM     26  C   UNL     1       0.689   9.422  19.630  0.00  0.00    +0.000 A 
ATOM     27  F   UNL     1       0.567   9.490  18.292  0.00  0.00    +0.000 F 
ENDBRANCH  11  21
TORSDOF 2
ENDMDL
MODEL 6
REMARK VINA RESULT:      -8.2      1.491      1.909
REMARK  Name = 
REMARK  3 active torsions:
REMARK  status: ('A' for Active; 'I' for Inactive)
REMARK    1  A    between atoms: C_1  and  C_2
REMARK    2  A    between atoms: C_5  and  N_6
REMARK    3  A    between atoms: N_16  and  C_17
REMARK                            x       y       z     vdW  Elec       q    Type
REMARK                         _______ _______ _______ _____ _____    ______ ____
ROOT
ATOM      1  N   UNL     1       2.654   7.153  18.190  0.00  0.00    +0.000 N 
ATOM      2  C   UNL     1       2.712   5.745  18.398  0.00  0.00    +0.000 A 
ATOM      3  N   UNL     1       1.757   5.180  19.187  0.00  0.00    +0.000 NA
ATOM      4  C   UNL     1       1.879   3.832  19.263  0.00  0.00    +0.000 A 
ATOM      5  N   UNL     1       1.086   3.002  19.938  0.00  0.00    +0.000 NA
ATOM      6  O   UNL     1       1.621   1.738  19.703  0.00  0.00    +0.000 OA
ATOM      7  N   UNL     1       2.745   1.789  18.876  0.00  0.00    +0.000 NA
ATOM      8  C   UNL     1       2.902   3.082  18.598  0.00  0.00    +0.000 A 
ATOM      9  N   UNL     1       3.863   3.636  17.810  0.00  0.00    +0.000 NA
ATOM     10  C   UNL     1       3.746   4.992  17.726  0.00  0.00    +0.000 A 
ATOM     11  N   UNL     1       4.694   5.699  16.940  0.00  0.00    +0.000 N 
ATOM     12  H   UNL     1       2.517   7.345  17.201  0.00  0.00    +0.000 HD
ATOM     13  H   UNL     1       5.202   6.375  17.509  0.00  0.00    +0.000 HD
ENDROOT
BRANCH   1  18
ATOM     14  C   UNL     1      -0.399  10.684  21.522  0.00  0.00    +0.000 C 
ATOM     15  C   UNL     1       0.477   9.811  20.673  0.00  0.00    +0.000 A 
ATOM     16  C   UNL     1       0.662  10.097  19.321  0.00  0.00    +0.000 A 
ATOM     17  C   UNL     1       1.410   9.235  18.518  0.00  0.00    +0.000 A 
ATOM     18  C   UNL     1       1.998   8.074  19.039  0.00  0.00    +0.000 A 
ATOM     19  C   UNL     1       1.833   7.807  20.403  0.00  0.00    +0.000 A 
ATOM     20  C   UNL     1       1.089   8.675  21.214  0.00  0.00    +0.000 A 
ENDBRANCH   1  18
BRANCH  11  21
ATOM     21  C   UNL     1       5.468   5.171  15.879  0.00  0.00    +0.000 A 
ATOM     22  C   UNL     1       4.884   4.397  14.870  0.00  0.00    +0.000 A 
ATOM     23  C   UNL     1       5.616   4.007  13.744  0.00  0.00    +0.000 A 
ATOM     24  C   UNL     1       6.953   4.374  13.616  0.00  0.00    +0.000 A 
ATOM     25  C   UNL     1       7.564   5.113  14.627  0.00  0.00    +0.000 A 
ATOM     26  C   UNL     1       6.823   5.507  15.738  0.00  0.00    +0.000 A 
ATOM     27  F   UNL     1       7.432   6.223  16.701  0.00  0.00    +0.000 F 
ENDBRANCH  11  21
TORSDOF 2
ENDMDL
MODEL 7
REMARK VINA RESULT:      -8.0      1.880      7.068
REMARK  Name = 
REMARK  3 active torsions:
REMARK  status: ('A' for Active; 'I' for Inactive)
REMARK    1  A    between atoms: C_1  and  C_2
REMARK    2  A    between atoms: C_5  and  N_6
REMARK    3  A    between atoms: N_16  and  C_17
REMARK                            x       y       z     vdW  Elec       q    Type
REMARK                         _______ _______ _______ _____ _____    ______ ____
ROOT
ATOM      1  N   UNL     1       4.628   5.814  16.997  0.00  0.00    +0.000 N 
ATOM      2  C   UNL     1       4.139   5.100  18.128  0.00  0.00    +0.000 A 
ATOM      3  N   UNL     1       4.722   3.907  18.426  0.00  0.00    +0.000 NA
ATOM      4  C   UNL     1       4.215   3.350  19.553  0.00  0.00    +0.000 A 
ATOM      5  N   UNL     1       4.595   2.201  20.109  0.00  0.00    +0.000 NA
ATOM      6  O   UNL     1       3.784   2.071  21.234  0.00  0.00    +0.000 OA
ATOM      7  N   UNL     1       2.904   3.146  21.374  0.00  0.00    +0.000 NA
ATOM      8  C   UNL     1       3.174   3.940  20.339  0.00  0.00    +0.000 A 
ATOM      9  N   UNL     1       2.581   5.130  20.049  0.00  0.00    +0.000 NA
ATOM     10  C   UNL     1       3.087   5.698  18.918  0.00  0.00    +0.000 A 
ATOM     11  N   UNL     1       2.548   6.943  18.494  0.00  0.00    +0.000 N 
ATOM     12  H   UNL     1       5.005   6.709  17.299  0.00  0.00    +0.000 HD
ATOM     13  H   UNL     1       2.150   6.863  17.560  0.00  0.00    +0.000 HD
ENDROOT
BRANCH   1  18
ATOM     14  C   UNL     1       7.362   3.836  12.361  0.00  0.00    +0.000 C 
ATOM     15  C   UNL     1       6.675   4.275  13.619  0.00  0.00    +0.000 A 
ATOM     16  C   UNL     1       5.333   3.963  13.837  0.00  0.00    +0.000 A 
ATOM     17  C   UNL     1       4.676   4.445  14.969  0.00  0.00    +0.000 A 
ATOM     18  C   UNL     1       5.337   5.240  15.917  0.00  0.00    +0.000 A 
ATOM     19  C   UNL     1       6.690   5.524  15.708  0.00  0.00    +0.000 A 
ATOM     20  C   UNL     1       7.356   5.036  14.575  0.00  0.00    +0.000 A 
ENDBRANCH   1  18
BRANCH  11  21
ATOM     21  C   UNL     1       1.881   7.890  19.306  0.00  0.00    +0.000 A 
ATOM     22  C   UNL     1       1.697   7.671  20.676  0.00  0.00    +0.000 A 
ATOM     23  C   UNL     1       1.179   8.671  21.505  0.00  0.00    +0.000 A 
ATOM     24  C   UNL     1       0.821   9.906  20.972  0.00  0.00    +0.000 A 
ATOM     25  C   UNL     1       0.959  10.132  19.604  0.00  0.00    +0.000 A 
ATOM     26  C   UNL     1       1.488   9.134  18.789  0.00  0.00    +0.000 A 
ATOM     27  F   UNL     1       1.618   9.375  17.472  0.00  0.00    +0.000 F 
ENDBRANCH  11  21
TORSDOF 2
ENDMDL
MODEL 8
REMARK VINA RESULT:      -8.0      4.772      7.093
REMARK  Name = 
REMARK  3 active torsions:
REMARK  status: ('A' for Active; 'I' for Inactive)
REMARK    1  A    between atoms: C_1  and  C_2
REMARK    2  A    between atoms: C_5  and  N_6
REMARK    3  A    between atoms: N_16  and  C_17
REMARK                            x       y       z     vdW  Elec       q    Type
REMARK                         _______ _______ _______ _____ _____    ______ ____
ROOT
ATOM      1  N   UNL     1       6.609   6.576  17.864  0.00  0.00    +0.000 N 
ATOM      2  C   UNL     1       6.403   5.850  16.656  0.00  0.00    +0.000 A 
ATOM      3  N   UNL     1       7.340   5.970  15.676  0.00  0.00    +0.000 NA
ATOM      4  C   UNL     1       7.068   5.190  14.601  0.00  0.00    +0.000 A 
ATOM      5  N   UNL     1       7.805   5.077  13.498  0.00  0.00    +0.000 NA
ATOM      6  O   UNL     1       7.111   4.166  12.705  0.00  0.00    +0.000 OA
ATOM      7  N   UNL     1       5.944   3.713  13.324  0.00  0.00    +0.000 NA
ATOM      8  C   UNL     1       5.919   4.341  14.499  0.00  0.00    +0.000 A 
ATOM      9  N   UNL     1       4.975   4.215  15.469  0.00  0.00    +0.000 NA
ATOM     10  C   UNL     1       5.243   4.995  16.556  0.00  0.00    +0.000 A 
ATOM     11  N   UNL     1       4.328   4.966  17.643  0.00  0.00    +0.000 N 
ATOM     12  H   UNL     1       6.696   5.924  18.640  0.00  0.00    +0.000 HD
ATOM     13  H   UNL     1       3.946   5.895  17.817  0.00  0.00    +0.000 HD
ENDROOT
BRANCH   1  18
ATOM     14  C   UNL     1       9.631  11.377  18.704  0.00  0.00    +0.000 C 
ATOM     15  C   UNL     1       8.903  10.097  18.417  0.00  0.00    +0.000 A 
ATOM     16  C   UNL     1       7.859  10.070  17.493  0.00  0.00    +0.000 A 
ATOM     17  C   UNL     1       7.132   8.897  17.292  0.00  0.00    +0.000 A 
ATOM     18  C   UNL     1       7.428   7.721  17.995  0.00  0.00    +0.000 A 
ATOM     19  C   UNL     1       8.496   7.746  18.899  0.00  0.00    +0.000 A 
ATOM     20  C   UNL     1       9.234   8.921  19.099  0.00  0.00    +0.000 A 
ENDBRANCH   1  18
BRANCH  11  21
ATOM     21  C   UNL     1       3.424   3.923  17.954  0.00  0.00    +0.000 A 
ATOM     22  C   UNL     1       3.879   2.670  18.380  0.00  0.00    +0.000 A 
ATOM     23  C   UNL     1       2.987   1.694  18.834  0.00  0.00    +0.000 A 
ATOM     24  C   UNL     1       1.619   1.951  18.856  0.00  0.00    +0.000 A 
ATOM     25  C   UNL     1       1.142   3.178  18.400  0.00  0.00    +0.000 A 
ATOM     26  C   UNL     1       2.039   4.148  17.962  0.00  0.00    +0.000 A 
ATOM     27  F   UNL     1       1.557   5.328  17.531  0.00  0.00    +0.000 F 
ENDBRANCH  11  21
TORSDOF 2
ENDMDL
MODEL 9
REMARK VINA RESULT:      -7.9      2.881      4.124
REMARK  Name = 
REMARK  3 active torsions:
REMARK  status: ('A' for Active; 'I' for Inactive)
REMARK    1  A    between atoms: C_1  and  C_2
REMARK    2  A    between atoms: C_5  and  N_6
REMARK    3  A    between atoms: N_16  and  C_17
REMARK                            x       y       z     vdW  Elec       q    Type
REMARK                         _______ _______ _______ _____ _____    ______ ____
ROOT
ATOM      1  N   UNL     1       3.712   6.223  17.254  0.00  0.00    +0.000 N 
ATOM      2  C   UNL     1       5.050   5.844  17.564  0.00  0.00    +0.000 A 
ATOM      3  N   UNL     1       5.434   5.884  18.869  0.00  0.00    +0.000 NA
ATOM      4  C   UNL     1       6.704   5.445  19.048  0.00  0.00    +0.000 A 
ATOM      5  N   UNL     1       7.352   5.348  20.208  0.00  0.00    +0.000 NA
ATOM      6  O   UNL     1       8.608   4.852  19.867  0.00  0.00    +0.000 OA
ATOM      7  N   UNL     1       8.733   4.638  18.492  0.00  0.00    +0.000 NA
ATOM      8  C   UNL     1       7.555   5.000  17.986  0.00  0.00    +0.000 A 
ATOM      9  N   UNL     1       7.183   4.958  16.678  0.00  0.00    +0.000 NA
ATOM     10  C   UNL     1       5.905   5.395  16.489  0.00  0.00    +0.000 A 
ATOM     11  N   UNL     1       5.392   5.413  15.165  0.00  0.00    +0.000 N 
ATOM     12  H   UNL     1       3.222   5.434  16.842  0.00  0.00    +0.000 HD
ATOM     13  H   UNL     1       5.121   6.358  14.896  0.00  0.00    +0.000 HD
ENDROOT
BRANCH   1  18
ATOM     14  C   UNL     1       0.752   9.680  20.744  0.00  0.00    +0.000 C 
ATOM     15  C   UNL     1       1.443   8.742  19.799  0.00  0.00    +0.000 A 
ATOM     16  C   UNL     1       1.819   7.466  20.217  0.00  0.00    +0.000 A 
ATOM     17  C   UNL     1       2.535   6.630  19.360  0.00  0.00    +0.000 A 
ATOM     18  C   UNL     1       2.889   7.036  18.066  0.00  0.00    +0.000 A 
ATOM     19  C   UNL     1       2.484   8.306  17.641  0.00  0.00    +0.000 A 
ATOM     20  C   UNL     1       1.758   9.147  18.496  0.00  0.00    +0.000 A 
ENDBRANCH   1  18
BRANCH  11  21
ATOM     21  C   UNL     1       5.848   4.634  14.075  0.00  0.00    +0.000 A 
ATOM     22  C   UNL     1       5.037   3.650  13.497  0.00  0.00    +0.000 A 
ATOM     23  C   UNL     1       5.426   2.990  12.328  0.00  0.00    +0.000 A 
ATOM     24  C   UNL     1       6.643   3.293  11.723  0.00  0.00    +0.000 A 
ATOM     25  C   UNL     1       7.482   4.242  12.304  0.00  0.00    +0.000 A 
ATOM     26  C   UNL     1       7.080   4.903  13.462  0.00  0.00    +0.000 A 
ATOM     27  F   UNL     1       7.904   5.819  14.003  0.00  0.00    +0.000 F 
ENDBRANCH  11  21
TORSDOF 2
ENDMDL
