MODEL 1
REMARK VINA RESULT:      -8.5      0.000      0.000
REMARK  Name = 
REMARK  2 active torsions:
REMARK  status: ('A' for Active; 'I' for Inactive)
REMARK    1  A    between atoms: N_1  and  C_2
REMARK    2  A    between atoms: C_18  and  C_19
REMARK                            x       y       z     vdW  Elec       q    Type
REMARK                         _______ _______ _______ _____ _____    ______ ____
ROOT
ATOM      1  C   UNL     1       1.383   7.765  19.924  0.00  0.00    +0.000 C 
ATOM      2  C   UNL     1       1.624   9.270  20.211  0.00  0.00    +0.000 C 
ATOM      3  N   UNL     1       1.432  10.065  18.997  0.00  0.00    +0.000 N 
ATOM      4  C   UNL     1       0.146  10.538  18.775  0.00  0.00    +0.000 A 
ATOM      5  C   UNL     1      -0.367  11.559  19.747  0.00  0.00    +0.000 A 
ATOM      6  C   UNL     1      -1.631  11.974  19.686  0.00  0.00    +0.000 A 
ATOM      7  C   UNL     1      -2.465  11.368  18.629  0.00  0.00    +0.000 A 
ATOM      8  N   UNL     1      -3.727  11.697  18.641  0.00  0.00    +0.000 NA
ATOM      9  C   UNL     1      -4.578  11.146  17.707  0.00  0.00    +0.000 A 
ATOM     10  O   UNL     1      -5.778  11.387  17.664  0.00  0.00    +0.000 OA
ATOM     11  C   UNL     1      -4.002  10.201  16.715  0.00  0.00    +0.000 A 
ATOM     12  C   UNL     1      -2.700   9.928  16.770  0.00  0.00    +0.000 A 
ATOM     13  N   UNL     1      -1.876  10.500  17.712  0.00  0.00    +0.000 N 
ATOM     14  N   UNL     1      -0.568  10.081  17.781  0.00  0.00    +0.000 NA
ATOM     15  C   UNL     1       2.299   9.665  17.888  0.00  0.00    +0.000 C 
ATOM     16  C   UNL     1       2.219   8.170  17.589  0.00  0.00    +0.000 C 
ATOM     17  C   UNL     1       2.447   7.320  18.855  0.00  0.00    +0.000 C 
ENDROOT
BRANCH  17  18
ATOM     18  C   UNL     1       2.605   5.866  18.415  0.00  0.00    +0.000 A 
ATOM     19  C   UNL     1       1.573   4.947  18.749  0.00  0.00    +0.000 A 
ATOM     20  C   UNL     1       1.640   3.615  18.349  0.00  0.00    +0.000 A 
ATOM     21  F   UNL     1       0.620   2.791  18.640  0.00  0.00    +0.000 F 
ATOM     22  C   UNL     1       2.737   3.153  17.645  0.00  0.00    +0.000 A 
ATOM     23  F   UNL     1       2.805   1.876  17.251  0.00  0.00    +0.000 F 
ATOM     24  C   UNL     1       3.783   4.021  17.336  0.00  0.00    +0.000 A 
ATOM     25  C   UNL     1       3.710   5.364  17.722  0.00  0.00    +0.000 A 
ATOM     26  F   UNL     1       4.734   6.168  17.417  0.00  0.00    +0.000 F 
ENDBRANCH  17  18
BRANCH   1  27
ATOM     27  N   UNL     1       1.417   7.114  21.240  0.00  0.00    +0.000 NA
ATOM     28  H   UNL     1       0.456   6.917  21.527  0.00  0.00    +0.000 HD
ATOM     29  H   UNL     1       1.867   6.205  21.128  0.00  0.00    +0.000 HD
ENDBRANCH   1  27
TORSDOF 2
ENDMDL
MODEL 2
REMARK VINA RESULT:      -8.2      1.062      1.105
REMARK  Name = 
REMARK  2 active torsions:
REMARK  status: ('A' for Active; 'I' for Inactive)
REMARK    1  A    between atoms: N_1  and  C_2
REMARK    2  A    between atoms: C_18  and  C_19
REMARK                            x       y       z     vdW  Elec       q    Type
REMARK                         _______ _______ _______ _____ _____    ______ ____
ROOT
ATOM      1  C   UNL     1       1.352   8.489  20.432  0.00  0.00    +0.000 C 
ATOM      2  C   UNL     1       1.607  10.010  20.263  0.00  0.00    +0.000 C 
ATOM      3  N   UNL     1       1.221  10.453  18.922  0.00  0.00    +0.000 N 
ATOM      4  C   UNL     1      -0.092  10.878  18.775  0.00  0.00    +0.000 A 
ATOM      5  C   UNL     1      -0.473  12.135  19.501  0.00  0.00    +0.000 A 
ATOM      6  C   UNL     1      -1.739  12.548  19.519  0.00  0.00    +0.000 A 
ATOM      7  C   UNL     1      -2.711  11.699  18.801  0.00  0.00    +0.000 A 
ATOM      8  N   UNL     1      -3.962  12.048  18.911  0.00  0.00    +0.000 NA
ATOM      9  C   UNL     1      -4.934  11.285  18.299  0.00  0.00    +0.000 A 
ATOM     10  O   UNL     1      -6.131  11.534  18.372  0.00  0.00    +0.000 OA
ATOM     11  C   UNL     1      -4.496  10.095  17.524  0.00  0.00    +0.000 A 
ATOM     12  C   UNL     1      -3.195   9.817  17.456  0.00  0.00    +0.000 A 
ATOM     13  N   UNL     1      -2.250  10.603  18.075  0.00  0.00    +0.000 N 
ATOM     14  N   UNL     1      -0.939  10.187  18.059  0.00  0.00    +0.000 NA
ATOM     15  C   UNL     1       1.919   9.749  17.846  0.00  0.00    +0.000 C 
ATOM     16  C   UNL     1       1.822   8.231  17.976  0.00  0.00    +0.000 C 
ATOM     17  C   UNL     1       2.252   7.748  19.376  0.00  0.00    +0.000 C 
ENDROOT
BRANCH  17  18
ATOM     18  C   UNL     1       2.369   6.226  19.326  0.00  0.00    +0.000 A 
ATOM     19  C   UNL     1       1.608   5.463  20.253  0.00  0.00    +0.000 A 
ATOM     20  C   UNL     1       1.643   4.071  20.240  0.00  0.00    +0.000 A 
ATOM     21  F   UNL     1       0.870   3.387  21.098  0.00  0.00    +0.000 F 
ATOM     22  C   UNL     1       2.453   3.404  19.338  0.00  0.00    +0.000 A 
ATOM     23  F   UNL     1       2.487   2.067  19.314  0.00  0.00    +0.000 F 
ATOM     24  C   UNL     1       3.240   4.125  18.442  0.00  0.00    +0.000 A 
ATOM     25  C   UNL     1       3.193   5.523  18.443  0.00  0.00    +0.000 A 
ATOM     26  F   UNL     1       3.967   6.185  17.576  0.00  0.00    +0.000 F 
ENDBRANCH  17  18
BRANCH   1  27
ATOM     27  N   UNL     1       1.595   8.216  21.855  0.00  0.00    +0.000 NA
ATOM     28  H   UNL     1       2.213   7.405  21.927  0.00  0.00    +0.000 HD
ATOM     29  H   UNL     1       2.120   9.002  22.238  0.00  0.00    +0.000 HD
ENDBRANCH   1  27
TORSDOF 2
ENDMDL
MODEL 3
REMARK VINA RESULT:      -7.9      1.105      1.454
REMARK  Name = 
REMARK  2 active torsions:
REMARK  status: ('A' for Active; 'I' for Inactive)
REMARK    1  A    between atoms: N_1  and  C_2
REMARK    2  A    between atoms: C_18  and  C_19
REMARK                            x       y       z     vdW  Elec       q    Type
REMARK                         _______ _______ _______ _____ _____    ______ ____
ROOT
ATOM      1  C   UNL     1       1.447   7.662  20.075  0.00  0.00    +0.000 C 
ATOM      2  C   UNL     1       1.684   9.176  20.321  0.00  0.00    +0.000 C 
ATOM      3  N   UNL     1       1.571   9.927  19.069  0.00  0.00    +0.000 N 
ATOM      4  C   UNL     1       0.304  10.399  18.755  0.00  0.00    +0.000 A 
ATOM      5  C   UNL     1      -0.257  11.458  19.657  0.00  0.00    +0.000 A 
ATOM      6  C   UNL     1      -1.512  11.879  19.505  0.00  0.00    +0.000 A 
ATOM      7  C   UNL     1      -2.287  11.240  18.424  0.00  0.00    +0.000 A 
ATOM      8  N   UNL     1      -3.544  11.577  18.349  0.00  0.00    +0.000 NA
ATOM      9  C   UNL     1      -4.344  10.997  17.387  0.00  0.00    +0.000 A 
ATOM     10  O   UNL     1      -5.537  11.244  17.264  0.00  0.00    +0.000 OA
ATOM     11  C   UNL     1      -3.719  10.013  16.466  0.00  0.00    +0.000 A 
ATOM     12  C   UNL     1      -2.424   9.734  16.607  0.00  0.00    +0.000 A 
ATOM     13  N   UNL     1      -1.653  10.335  17.576  0.00  0.00    +0.000 N 
ATOM     14  N   UNL     1      -0.355   9.910  17.737  0.00  0.00    +0.000 NA
ATOM     15  C   UNL     1       2.498   9.480  18.029  0.00  0.00    +0.000 C 
ATOM     16  C   UNL     1       2.423   7.976  17.780  0.00  0.00    +0.000 C 
ATOM     17  C   UNL     1       2.568   7.171  19.087  0.00  0.00    +0.000 C 
ENDROOT
BRANCH  17  18
ATOM     18  C   UNL     1       2.740   5.701  18.710  0.00  0.00    +0.000 A 
ATOM     19  C   UNL     1       3.847   4.994  19.253  0.00  0.00    +0.000 A 
ATOM     20  C   UNL     1       4.043   3.644  18.977  0.00  0.00    +0.000 A 
ATOM     21  F   UNL     1       5.071   2.999  19.550  0.00  0.00    +0.000 F 
ATOM     22  C   UNL     1       3.176   2.972  18.133  0.00  0.00    +0.000 A 
ATOM     23  F   UNL     1       3.353   1.673  17.868  0.00  0.00    +0.000 F 
ATOM     24  C   UNL     1       2.103   3.648  17.555  0.00  0.00    +0.000 A 
ATOM     25  C   UNL     1       1.895   5.001  17.845  0.00  0.00    +0.000 A 
ATOM     26  F   UNL     1       0.861   5.622  17.267  0.00  0.00    +0.000 F 
ENDBRANCH  17  18
BRANCH   1  27
ATOM     27  N   UNL     1       1.398   7.060  21.413  0.00  0.00    +0.000 NA
ATOM     28  H   UNL     1       1.630   7.781  22.100  0.00  0.00    +0.000 HD
ATOM     29  H   UNL     1       0.431   6.796  21.602  0.00  0.00    +0.000 HD
ENDBRANCH   1  27
TORSDOF 2
ENDMDL
MODEL 4
REMARK VINA RESULT:      -7.7      0.833      1.608
REMARK  Name = 
REMARK  2 active torsions:
REMARK  status: ('A' for Active; 'I' for Inactive)
REMARK    1  A    between atoms: N_1  and  C_2
REMARK    2  A    between atoms: C_18  and  C_19
REMARK                            x       y       z     vdW  Elec       q    Type
REMARK                         _______ _______ _______ _____ _____    ______ ____
ROOT
ATOM      1  C   UNL     1       1.385   8.000  20.149  0.00  0.00    +0.000 C 
ATOM      2  C   UNL     1       1.632   9.526  20.287  0.00  0.00    +0.000 C 
ATOM      3  N   UNL     1       1.370  10.209  19.019  0.00  0.00    +0.000 N 
ATOM      4  C   UNL     1       0.070  10.658  18.827  0.00  0.00    +0.000 A 
ATOM      5  C   UNL     1      -0.395  11.762  19.731  0.00  0.00    +0.000 A 
ATOM      6  C   UNL     1      -1.663  12.168  19.702  0.00  0.00    +0.000 A 
ATOM      7  C   UNL     1      -2.550  11.469  18.751  0.00  0.00    +0.000 A 
ATOM      8  N   UNL     1      -3.811  11.796  18.803  0.00  0.00    +0.000 NA
ATOM      9  C   UNL     1      -4.709  11.162  17.971  0.00  0.00    +0.000 A 
ATOM     10  O   UNL     1      -5.911  11.397  17.973  0.00  0.00    +0.000 OA
ATOM     11  C   UNL     1      -4.183  10.133  17.037  0.00  0.00    +0.000 A 
ATOM     12  C   UNL     1      -2.878   9.868  17.044  0.00  0.00    +0.000 A 
ATOM     13  N   UNL     1      -2.007  10.523  17.885  0.00  0.00    +0.000 N 
ATOM     14  N   UNL     1      -0.695  10.113  17.918  0.00  0.00    +0.000 NA
ATOM     15  C   UNL     1       2.177   9.712  17.904  0.00  0.00    +0.000 C 
ATOM     16  C   UNL     1       2.090   8.196  17.744  0.00  0.00    +0.000 C 
ATOM     17  C   UNL     1       2.391   7.462  19.067  0.00  0.00    +0.000 C 
ENDROOT
BRANCH  17  18
ATOM     18  C   UNL     1       2.534   5.975  18.750  0.00  0.00    +0.000 A 
ATOM     19  C   UNL     1       3.404   5.595  17.692  0.00  0.00    +0.000 A 
ATOM     20  C   UNL     1       3.606   4.255  17.373  0.00  0.00    +0.000 A 
ATOM     21  F   UNL     1       4.475   3.935  16.401  0.00  0.00    +0.000 F 
ATOM     22  C   UNL     1       2.929   3.266  18.064  0.00  0.00    +0.000 A 
ATOM     23  F   UNL     1       3.123   1.975  17.769  0.00  0.00    +0.000 F 
ATOM     24  C   UNL     1       2.040   3.609  19.081  0.00  0.00    +0.000 A 
ATOM     25  C   UNL     1       1.850   4.954  19.415  0.00  0.00    +0.000 A 
ATOM     26  F   UNL     1       0.984   5.250  20.390  0.00  0.00    +0.000 F 
ENDBRANCH  17  18
BRANCH   1  27
ATOM     27  N   UNL     1       1.495   7.470  21.514  0.00  0.00    +0.000 NA
ATOM     28  H   UNL     1       0.889   6.650  21.591  0.00  0.00    +0.000 HD
ATOM     29  H   UNL     1       2.447   7.126  21.640  0.00  0.00    +0.000 HD
ENDBRANCH   1  27
TORSDOF 2
ENDMDL
MODEL 5
REMARK VINA RESULT:      -7.6      5.391      8.910
REMARK  Name = 
REMARK  2 active torsions:
REMARK  status: ('A' for Active; 'I' for Inactive)
REMARK    1  A    between atoms: N_1  and  C_2
REMARK    2  A    between atoms: C_18  and  C_19
REMARK                            x       y       z     vdW  Elec       q    Type
REMARK                         _______ _______ _______ _____ _____    ______ ____
ROOT
ATOM      1  C   UNL     1       0.833  13.237  20.762  0.00  0.00    +0.000 C 
ATOM      2  C   UNL     1      -0.091  12.208  21.466  0.00  0.00    +0.000 C 
ATOM      3  N   UNL     1      -0.674  11.284  20.490  0.00  0.00    +0.000 N 
ATOM      4  C   UNL     1       0.052  10.129  20.235  0.00  0.00    +0.000 A 
ATOM      5  C   UNL     1       0.171   9.151  21.366  0.00  0.00    +0.000 A 
ATOM      6  C   UNL     1       0.952   8.078  21.252  0.00  0.00    +0.000 A 
ATOM      7  C   UNL     1       1.674   7.932  19.973  0.00  0.00    +0.000 A 
ATOM      8  N   UNL     1       2.518   6.940  19.906  0.00  0.00    +0.000 NA
ATOM      9  C   UNL     1       3.258   6.757  18.757  0.00  0.00    +0.000 A 
ATOM     10  O   UNL     1       4.084   5.863  18.623  0.00  0.00    +0.000 OA
ATOM     11  C   UNL     1       3.042   7.707  17.635  0.00  0.00    +0.000 A 
ATOM     12  C   UNL     1       2.153   8.687  17.785  0.00  0.00    +0.000 A 
ATOM     13  N   UNL     1       1.428   8.839  18.945  0.00  0.00    +0.000 N 
ATOM     14  N   UNL     1       0.616   9.941  19.071  0.00  0.00    +0.000 NA
ATOM     15  C   UNL     1      -1.444  11.949  19.438  0.00  0.00    +0.000 C 
ATOM     16  C   UNL     1      -0.659  13.061  18.747  0.00  0.00    +0.000 C 
ATOM     17  C   UNL     1      -0.062  14.056  19.762  0.00  0.00    +0.000 C 
ENDROOT
BRANCH  17  18
ATOM     18  C   UNL     1       0.473  15.253  18.978  0.00  0.00    +0.000 A 
ATOM     19  C   UNL     1      -0.442  16.274  18.605  0.00  0.00    +0.000 A 
ATOM     20  C   UNL     1      -0.014  17.408  17.919  0.00  0.00    +0.000 A 
ATOM     21  F   UNL     1      -0.900  18.374  17.630  0.00  0.00    +0.000 F 
ATOM     22  C   UNL     1       1.314  17.541  17.555  0.00  0.00    +0.000 A 
ATOM     23  F   UNL     1       1.735  18.631  16.902  0.00  0.00    +0.000 F 
ATOM     24  C   UNL     1       2.228  16.539  17.873  0.00  0.00    +0.000 A 
ATOM     25  C   UNL     1       1.804  15.407  18.577  0.00  0.00    +0.000 A 
ATOM     26  F   UNL     1       2.705  14.460  18.859  0.00  0.00    +0.000 F 
ENDBRANCH  17  18
BRANCH   1  27
ATOM     27  N   UNL     1       1.492  13.967  21.852  0.00  0.00    +0.000 NA
ATOM     28  H   UNL     1       1.084  13.661  22.738  0.00  0.00    +0.000 HD
ATOM     29  H   UNL     1       2.469  13.674  21.879  0.00  0.00    +0.000 HD
ENDBRANCH   1  27
TORSDOF 2
ENDMDL
MODEL 6
REMARK VINA RESULT:      -7.6      5.438      9.052
REMARK  Name = 
REMARK  2 active torsions:
REMARK  status: ('A' for Active; 'I' for Inactive)
REMARK    1  A    between atoms: N_1  and  C_2
REMARK    2  A    between atoms: C_18  and  C_19
REMARK                            x       y       z     vdW  Elec       q    Type
REMARK                         _______ _______ _______ _____ _____    ______ ____
ROOT
ATOM      1  C   UNL     1       0.716  13.467  20.942  0.00  0.00    +0.000 C 
ATOM      2  C   UNL     1      -0.142  12.429  21.713  0.00  0.00    +0.000 C 
ATOM      3  N   UNL     1      -0.795  11.505  20.783  0.00  0.00    +0.000 N 
ATOM      4  C   UNL     1      -0.083  10.356  20.468  0.00  0.00    +0.000 A 
ATOM      5  C   UNL     1       0.133   9.375  21.583  0.00  0.00    +0.000 A 
ATOM      6  C   UNL     1       0.909   8.308  21.403  0.00  0.00    +0.000 A 
ATOM      7  C   UNL     1       1.529   8.171  20.070  0.00  0.00    +0.000 A 
ATOM      8  N   UNL     1       2.372   7.185  19.933  0.00  0.00    +0.000 NA
ATOM      9  C   UNL     1       3.019   7.011  18.728  0.00  0.00    +0.000 A 
ATOM     10  O   UNL     1       3.838   6.124  18.525  0.00  0.00    +0.000 OA
ATOM     11  C   UNL     1       2.708   7.963  17.630  0.00  0.00    +0.000 A 
ATOM     12  C   UNL     1       1.827   8.936  17.854  0.00  0.00    +0.000 A 
ATOM     13  N   UNL     1       1.195   9.079  19.068  0.00  0.00    +0.000 N 
ATOM     14  N   UNL     1       0.388  10.175  19.262  0.00  0.00    +0.000 NA
ATOM     15  C   UNL     1      -1.650  12.166  19.799  0.00  0.00    +0.000 C 
ATOM     16  C   UNL     1      -0.931  13.286  19.051  0.00  0.00    +0.000 C 
ATOM     17  C   UNL     1      -0.261  14.283  20.019  0.00  0.00    +0.000 C 
ENDROOT
BRANCH  17  18
ATOM     18  C   UNL     1       0.201  15.486  19.199  0.00  0.00    +0.000 A 
ATOM     19  C   UNL     1       1.537  15.493  18.713  0.00  0.00    +0.000 A 
ATOM     20  C   UNL     1       2.012  16.543  17.932  0.00  0.00    +0.000 A 
ATOM     21  F   UNL     1       3.263  16.488  17.449  0.00  0.00    +0.000 F 
ATOM     22  C   UNL     1       1.194  17.621  17.643  0.00  0.00    +0.000 A 
ATOM     23  F   UNL     1       1.641  18.631  16.887  0.00  0.00    +0.000 F 
ATOM     24  C   UNL     1      -0.108  17.661  18.137  0.00  0.00    +0.000 A 
ATOM     25  C   UNL     1      -0.593  16.599  18.908  0.00  0.00    +0.000 A 
ATOM     26  F   UNL     1      -1.844  16.672  19.374  0.00  0.00    +0.000 F 
ENDBRANCH  17  18
BRANCH   1  27
ATOM     27  N   UNL     1       1.454  14.199  21.979  0.00  0.00    +0.000 NA
ATOM     28  H   UNL     1       2.363  14.471  21.596  0.00  0.00    +0.000 HD
ATOM     29  H   UNL     1       0.956  15.070  22.161  0.00  0.00    +0.000 HD
ENDBRANCH   1  27
TORSDOF 2
ENDMDL
MODEL 7
REMARK VINA RESULT:      -7.3      5.286      8.843
REMARK  Name = 
REMARK  2 active torsions:
REMARK  status: ('A' for Active; 'I' for Inactive)
REMARK    1  A    between atoms: N_1  and  C_2
REMARK    2  A    between atoms: C_18  and  C_19
REMARK                            x       y       z     vdW  Elec       q    Type
REMARK                         _______ _______ _______ _____ _____    ______ ____
ROOT
ATOM      1  C   UNL     1      -2.102  11.969  19.443  0.00  0.00    +0.000 C 
ATOM      2  C   UNL     1      -0.805  12.369  18.691  0.00  0.00    +0.000 C 
ATOM      3  N   UNL     1       0.372  12.139  19.531  0.00  0.00    +0.000 N 
ATOM      4  C   UNL     1       0.958  10.885  19.426  0.00  0.00    +0.000 A 
ATOM      5  C   UNL     1       1.603  10.557  18.111  0.00  0.00    +0.000 A 
ATOM      6  C   UNL     1       2.079   9.335  17.879  0.00  0.00    +0.000 A 
ATOM      7  C   UNL     1       1.923   8.357  18.974  0.00  0.00    +0.000 A 
ATOM      8  N   UNL     1       2.292   7.136  18.703  0.00  0.00    +0.000 NA
ATOM      9  C   UNL     1       2.146   6.156  19.662  0.00  0.00    +0.000 A 
ATOM     10  O   UNL     1       2.449   4.984  19.479  0.00  0.00    +0.000 OA
ATOM     11  C   UNL     1       1.577   6.551  20.977  0.00  0.00    +0.000 A 
ATOM     12  C   UNL     1       1.234   7.823  21.171  0.00  0.00    +0.000 A 
ATOM     13  N   UNL     1       1.399   8.778  20.194  0.00  0.00    +0.000 N 
ATOM     14  N   UNL     1       0.914  10.044  20.426  0.00  0.00    +0.000 NA
ATOM     15  C   UNL     1       0.337  12.860  20.803  0.00  0.00    +0.000 C 
ATOM     16  C   UNL     1      -0.953  12.620  21.582  0.00  0.00    +0.000 C 
ATOM     17  C   UNL     1      -2.202  12.886  20.717  0.00  0.00    +0.000 C 
ENDROOT
BRANCH  17  18
ATOM     18  C   UNL     1      -3.418  12.872  21.641  0.00  0.00    +0.000 A 
ATOM     19  C   UNL     1      -3.222  12.513  23.003  0.00  0.00    +0.000 A 
ATOM     20  C   UNL     1      -4.282  12.513  23.906  0.00  0.00    +0.000 A 
ATOM     21  F   UNL     1      -4.046  12.218  25.194  0.00  0.00    +0.000 F 
ATOM     22  C   UNL     1      -5.559  12.831  23.480  0.00  0.00    +0.000 A 
ATOM     23  F   UNL     1      -6.582  12.840  24.344  0.00  0.00    +0.000 F 
ATOM     24  C   UNL     1      -5.790  13.150  22.144  0.00  0.00    +0.000 A 
ATOM     25  C   UNL     1      -4.723  13.168  21.238  0.00  0.00    +0.000 A 
ATOM     26  F   UNL     1      -4.980  13.470  19.961  0.00  0.00    +0.000 F 
ENDBRANCH  17  18
BRANCH   1  27
ATOM     27  N   UNL     1      -3.171  12.065  18.441  0.00  0.00    +0.000 NA
ATOM     28  H   UNL     1      -3.439  13.048  18.349  0.00  0.00    +0.000 HD
ATOM     29  H   UNL     1      -2.778  11.798  17.539  0.00  0.00    +0.000 HD
ENDBRANCH   1  27
TORSDOF 2
ENDMDL
MODEL 8
REMARK VINA RESULT:      -7.1      1.889      2.718
REMARK  Name = 
REMARK  2 active torsions:
REMARK  status: ('A' for Active; 'I' for Inactive)
REMARK    1  A    between atoms: N_1  and  C_2
REMARK    2  A    between atoms: C_18  and  C_19
REMARK                            x       y       z     vdW  Elec       q    Type
REMARK                         _______ _______ _______ _____ _____    ______ ____
ROOT
ATOM      1  C   UNL     1      -0.091   9.570  21.280  0.00  0.00    +0.000 C 
ATOM      2  C   UNL     1      -0.191  11.061  21.698  0.00  0.00    +0.000 C 
ATOM      3  N   UNL     1      -0.351  11.918  20.521  0.00  0.00    +0.000 N 
ATOM      4  C   UNL     1      -1.657  12.168  20.123  0.00  0.00    +0.000 A 
ATOM      5  C   UNL     1      -2.497  12.984  21.061  0.00  0.00    +0.000 A 
ATOM      6  C   UNL     1      -3.794  13.167  20.821  0.00  0.00    +0.000 A 
ATOM      7  C   UNL     1      -4.329  12.521  19.606  0.00  0.00    +0.000 A 
ATOM      8  N   UNL     1      -5.618  12.613  19.432  0.00  0.00    +0.000 NA
ATOM      9  C   UNL     1      -6.198  12.005  18.339  0.00  0.00    +0.000 A 
ATOM     10  O   UNL     1      -7.402  12.028  18.116  0.00  0.00    +0.000 OA
ATOM     11  C   UNL     1      -5.310  11.278  17.396  0.00  0.00    +0.000 A 
ATOM     12  C   UNL     1      -4.002  11.242  17.645  0.00  0.00    +0.000 A 
ATOM     13  N   UNL     1      -3.454  11.863  18.744  0.00  0.00    +0.000 N 
ATOM     14  N   UNL     1      -2.114  11.684  18.998  0.00  0.00    +0.000 NA
ATOM     15  C   UNL     1       0.731  11.787  19.546  0.00  0.00    +0.000 C 
ATOM     16  C   UNL     1       0.988  10.337  19.143  0.00  0.00    +0.000 C 
ATOM     17  C   UNL     1       1.186   9.427  20.373  0.00  0.00    +0.000 C 
ENDROOT
BRANCH  17  18
ATOM     18  C   UNL     1       1.686   8.074  19.873  0.00  0.00    +0.000 A 
ATOM     19  C   UNL     1       1.536   6.946  20.724  0.00  0.00    +0.000 A 
ATOM     20  C   UNL     1       1.940   5.678  20.317  0.00  0.00    +0.000 A 
ATOM     21  F   UNL     1       1.733   4.630  21.130  0.00  0.00    +0.000 F 
ATOM     22  C   UNL     1       2.533   5.501  19.079  0.00  0.00    +0.000 A 
ATOM     23  F   UNL     1       2.918   4.284  18.677  0.00  0.00    +0.000 F 
ATOM     24  C   UNL     1       2.729   6.593  18.237  0.00  0.00    +0.000 A 
ATOM     25  C   UNL     1       2.308   7.866  18.638  0.00  0.00    +0.000 A 
ATOM     26  F   UNL     1       2.519   8.894  17.810  0.00  0.00    +0.000 F 
ENDBRANCH  17  18
BRANCH   1  27
ATOM     27  N   UNL     1      -0.127   8.817  22.540  0.00  0.00    +0.000 NA
ATOM     28  H   UNL     1       0.685   9.087  23.100  0.00  0.00    +0.000 HD
ATOM     29  H   UNL     1      -0.944   9.126  23.066  0.00  0.00    +0.000 HD
ENDBRANCH   1  27
TORSDOF 2
ENDMDL
MODEL 9
REMARK VINA RESULT:      -7.0      5.199      8.712
REMARK  Name = 
REMARK  2 active torsions:
REMARK  status: ('A' for Active; 'I' for Inactive)
REMARK    1  A    between atoms: N_1  and  C_2
REMARK    2  A    between atoms: C_18  and  C_19
REMARK                            x       y       z     vdW  Elec       q    Type
REMARK                         _______ _______ _______ _____ _____    ______ ____
ROOT
ATOM      1  C   UNL     1      -1.601  11.811  19.553  0.00  0.00    +0.000 C 
ATOM      2  C   UNL     1      -0.338  12.112  18.703  0.00  0.00    +0.000 C 
ATOM      3  N   UNL     1       0.878  11.773  19.445  0.00  0.00    +0.000 N 
ATOM      4  C   UNL     1       1.347  10.476  19.285  0.00  0.00    +0.000 A 
ATOM      5  C   UNL     1       1.856  10.113  17.921  0.00  0.00    +0.000 A 
ATOM      6  C   UNL     1       2.207   8.859  17.643  0.00  0.00    +0.000 A 
ATOM      7  C   UNL     1       2.057   7.882  18.740  0.00  0.00    +0.000 A 
ATOM      8  N   UNL     1       2.300   6.639  18.432  0.00  0.00    +0.000 NA
ATOM      9  C   UNL     1       2.147   5.661  19.393  0.00  0.00    +0.000 A 
ATOM     10  O   UNL     1       2.336   4.471  19.179  0.00  0.00    +0.000 OA
ATOM     11  C   UNL     1       1.719   6.085  20.751  0.00  0.00    +0.000 A 
ATOM     12  C   UNL     1       1.501   7.379  20.981  0.00  0.00    +0.000 A 
ATOM     13  N   UNL     1       1.667   8.330  20.000  0.00  0.00    +0.000 N 
ATOM     14  N   UNL     1       1.311   9.628  20.279  0.00  0.00    +0.000 NA
ATOM     15  C   UNL     1       1.005  12.477  20.720  0.00  0.00    +0.000 C 
ATOM     16  C   UNL     1      -0.236  12.335  21.598  0.00  0.00    +0.000 C 
ATOM     17  C   UNL     1      -1.523  12.715  20.837  0.00  0.00    +0.000 C 
ENDROOT
BRANCH  17  18
ATOM     18  C   UNL     1      -2.658  12.791  21.855  0.00  0.00    +0.000 A 
ATOM     19  C   UNL     1      -3.747  13.663  21.582  0.00  0.00    +0.000 A 
ATOM     20  C   UNL     1      -4.831  13.754  22.452  0.00  0.00    +0.000 A 
ATOM     21  F   UNL     1      -5.863  14.551  22.133  0.00  0.00    +0.000 F 
ATOM     22  C   UNL     1      -4.847  13.017  23.623  0.00  0.00    +0.000 A 
ATOM     23  F   UNL     1      -5.888  13.094  24.461  0.00  0.00    +0.000 F 
ATOM     24  C   UNL     1      -3.777  12.182  23.937  0.00  0.00    +0.000 A 
ATOM     25  C   UNL     1      -2.695  12.076  23.056  0.00  0.00    +0.000 A 
ATOM     26  F   UNL     1      -1.680  11.272  23.391  0.00  0.00    +0.000 F 
ENDBRANCH  17  18
BRANCH   1  27
ATOM     27  N   UNL     1      -2.734  12.009  18.640  0.00  0.00    +0.000 NA
ATOM     28  H   UNL     1      -3.575  11.635  19.084  0.00  0.00    +0.000 HD
ATOM     29  H   UNL     1      -2.889  13.013  18.549  0.00  0.00    +0.000 HD
ENDBRANCH   1  27
TORSDOF 2
ENDMDL
