MODEL 1
REMARK VINA RESULT:      -7.5      0.000      0.000
REMARK  Name = 
REMARK  2 active torsions:
REMARK  status: ('A' for Active; 'I' for Inactive)
REMARK    1  A    between atoms: C_2  and  C_3
REMARK    2  A    between atoms: C_3  and  N_4
REMARK                            x       y       z     vdW  Elec       q    Type
REMARK                         _______ _______ _______ _____ _____    ______ ____
ROOT
ATOM      1  O   UNL     1       1.223   8.819  17.292  0.00  0.00    +0.000 OA
ATOM      2  C   UNL     1       1.365   8.916  18.512  0.00  0.00    +0.000 C 
ATOM      3  N   UNL     1       0.533   9.703  19.313  0.00  0.00    +0.000 N 
ATOM      4  C   UNL     1       0.785   9.899  20.748  0.00  0.00    +0.000 C 
ATOM      5  C   UNL     1       0.379  11.296  21.207  0.00  0.00    +0.000 C 
ATOM      6  O   UNL     1      -0.979  11.579  20.874  0.00  0.00    +0.000 OA
ATOM      7  C   UNL     1      -1.184  11.491  19.451  0.00  0.00    +0.000 C 
ATOM      8  C   UNL     1      -2.637  11.884  19.195  0.00  0.00    +0.000 C 
ATOM      9  C   UNL     1      -3.017  11.736  17.731  0.00  0.00    +0.000 C 
ATOM     10  C   UNL     1      -2.726  10.327  17.232  0.00  0.00    +0.000 C 
ATOM     11  C   UNL     1      -1.259   9.946  17.446  0.00  0.00    +0.000 C 
ATOM     12  C   UNL     1      -0.859  10.065  18.926  0.00  0.00    +0.000 C 
ENDROOT
BRANCH   2  13
ATOM     13  C   UNL     1       2.563   8.239  19.204  0.00  0.00    +0.000 C 
BRANCH  13  14
ATOM     14  N   UNL     1       2.374   6.810  19.404  0.00  0.00    +0.000 N 
ATOM     15  C   UNL     1       1.690   6.349  20.511  0.00  0.00    +0.000 A 
ATOM     16  C   UNL     1       1.403   5.052  20.675  0.00  0.00    +0.000 A 
ATOM     17  C   UNL     1       1.820   4.089  19.657  0.00  0.00    +0.000 A 
ATOM     18  C   UNL     1       1.476   2.739  19.758  0.00  0.00    +0.000 A 
ATOM     19  C   UNL     1       1.885   1.834  18.773  0.00  0.00    +0.000 A 
ATOM     20  C   UNL     1       2.646   2.266  17.688  0.00  0.00    +0.000 A 
ATOM     21  C   UNL     1       2.992   3.613  17.575  0.00  0.00    +0.000 A 
ATOM     22  C   UNL     1       2.571   4.521  18.556  0.00  0.00    +0.000 A 
ATOM     23  C   UNL     1       2.880   5.961  18.410  0.00  0.00    +0.000 A 
ATOM     24  O   UNL     1       3.515   6.363  17.438  0.00  0.00    +0.000 OA
ENDBRANCH  13  14
ENDBRANCH   2  13
TORSDOF 2
ENDMDL
MODEL 2
REMARK VINA RESULT:      -7.4      1.718      7.633
REMARK  Name = 
REMARK  2 active torsions:
REMARK  status: ('A' for Active; 'I' for Inactive)
REMARK    1  A    between atoms: C_2  and  C_3
REMARK    2  A    between atoms: C_3  and  N_4
REMARK                            x       y       z     vdW  Elec       q    Type
REMARK                         _______ _______ _______ _____ _____    ______ ____
ROOT
ATOM      1  O   UNL     1       1.330   6.351  20.825  0.00  0.00    +0.000 OA
ATOM      2  C   UNL     1       1.917   6.874  19.877  0.00  0.00    +0.000 C 
ATOM      3  N   UNL     1       2.569   6.134  18.885  0.00  0.00    +0.000 N 
ATOM      4  C   UNL     1       3.360   6.775  17.824  0.00  0.00    +0.000 C 
ATOM      5  C   UNL     1       4.564   5.925  17.429  0.00  0.00    +0.000 C 
ATOM      6  O   UNL     1       4.171   4.605  17.059  0.00  0.00    +0.000 OA
ATOM      7  C   UNL     1       3.493   3.951  18.150  0.00  0.00    +0.000 C 
ATOM      8  C   UNL     1       3.186   2.530  17.683  0.00  0.00    +0.000 C 
ATOM      9  C   UNL     1       2.376   1.756  18.711  0.00  0.00    +0.000 C 
ATOM     10  C   UNL     1       1.104   2.507  19.081  0.00  0.00    +0.000 C 
ATOM     11  C   UNL     1       1.412   3.916  19.591  0.00  0.00    +0.000 C 
ATOM     12  C   UNL     1       2.209   4.727  18.557  0.00  0.00    +0.000 C 
ENDROOT
BRANCH   2  13
ATOM     13  C   UNL     1       2.047   8.407  19.803  0.00  0.00    +0.000 C 
BRANCH  13  14
ATOM     14  N   UNL     1       1.081   9.104  20.638  0.00  0.00    +0.000 N 
ATOM     15  C   UNL     1       1.064   8.895  22.002  0.00  0.00    +0.000 A 
ATOM     16  C   UNL     1       0.265   9.596  22.814  0.00  0.00    +0.000 A 
ATOM     17  C   UNL     1      -0.619  10.614  22.251  0.00  0.00    +0.000 A 
ATOM     18  C   UNL     1      -1.415  11.415  23.075  0.00  0.00    +0.000 A 
ATOM     19  C   UNL     1      -2.254  12.384  22.515  0.00  0.00    +0.000 A 
ATOM     20  C   UNL     1      -2.312  12.556  21.133  0.00  0.00    +0.000 A 
ATOM     21  C   UNL     1      -1.519  11.765  20.301  0.00  0.00    +0.000 A 
ATOM     22  C   UNL     1      -0.670  10.802  20.864  0.00  0.00    +0.000 A 
ATOM     23  C   UNL     1       0.222  10.003  19.992  0.00  0.00    +0.000 A 
ATOM     24  O   UNL     1       0.211  10.172  18.775  0.00  0.00    +0.000 OA
ENDBRANCH  13  14
ENDBRANCH   2  13
TORSDOF 2
ENDMDL
MODEL 3
REMARK VINA RESULT:      -7.3      1.512      7.645
REMARK  Name = 
REMARK  2 active torsions:
REMARK  status: ('A' for Active; 'I' for Inactive)
REMARK    1  A    between atoms: C_2  and  C_3
REMARK    2  A    between atoms: C_3  and  N_4
REMARK                            x       y       z     vdW  Elec       q    Type
REMARK                         _______ _______ _______ _____ _____    ______ ____
ROOT
ATOM      1  O   UNL     1       1.282   7.998  20.738  0.00  0.00    +0.000 OA
ATOM      2  C   UNL     1       1.834   8.105  19.642  0.00  0.00    +0.000 C 
ATOM      3  N   UNL     1       2.545   7.060  19.044  0.00  0.00    +0.000 N 
ATOM      4  C   UNL     1       3.293   7.239  17.791  0.00  0.00    +0.000 C 
ATOM      5  C   UNL     1       4.559   6.388  17.764  0.00  0.00    +0.000 C 
ATOM      6  O   UNL     1       4.267   5.013  18.003  0.00  0.00    +0.000 OA
ATOM      7  C   UNL     1       3.633   4.842  19.286  0.00  0.00    +0.000 C 
ATOM      8  C   UNL     1       3.434   3.340  19.478  0.00  0.00    +0.000 C 
ATOM      9  C   UNL     1       2.679   3.025  20.758  0.00  0.00    +0.000 C 
ATOM     10  C   UNL     1       1.352   3.771  20.806  0.00  0.00    +0.000 C 
ATOM     11  C   UNL     1       1.551   5.282  20.658  0.00  0.00    +0.000 C 
ATOM     12  C   UNL     1       2.293   5.626  19.357  0.00  0.00    +0.000 C 
ENDROOT
BRANCH   2  13
ATOM     13  C   UNL     1       1.851   9.465  18.918  0.00  0.00    +0.000 C 
BRANCH  13  14
ATOM     14  N   UNL     1       0.521  10.016  18.707  0.00  0.00    +0.000 N 
ATOM     15  C   UNL     1      -0.258   9.567  17.660  0.00  0.00    +0.000 A 
ATOM     16  C   UNL     1      -1.524   9.970  17.498  0.00  0.00    +0.000 A 
ATOM     17  C   UNL     1      -2.107  10.912  18.451  0.00  0.00    +0.000 A 
ATOM     18  C   UNL     1      -3.446  11.300  18.355  0.00  0.00    +0.000 A 
ATOM     19  C   UNL     1      -3.984  12.203  19.278  0.00  0.00    +0.000 A 
ATOM     20  C   UNL     1      -3.191  12.731  20.295  0.00  0.00    +0.000 A 
ATOM     21  C   UNL     1      -1.853  12.347  20.403  0.00  0.00    +0.000 A 
ATOM     22  C   UNL     1      -1.318  11.434  19.485  0.00  0.00    +0.000 A 
ATOM     23  C   UNL     1       0.081  10.974  19.631  0.00  0.00    +0.000 A 
ATOM     24  O   UNL     1       0.781  11.399  20.547  0.00  0.00    +0.000 OA
ENDBRANCH  13  14
ENDBRANCH   2  13
TORSDOF 2
ENDMDL
MODEL 4
REMARK VINA RESULT:      -7.3      1.508      7.310
REMARK  Name = 
REMARK  2 active torsions:
REMARK  status: ('A' for Active; 'I' for Inactive)
REMARK    1  A    between atoms: C_2  and  C_3
REMARK    2  A    between atoms: C_3  and  N_4
REMARK                            x       y       z     vdW  Elec       q    Type
REMARK                         _______ _______ _______ _____ _____    ______ ____
ROOT
ATOM      1  O   UNL     1       1.318   7.897  21.075  0.00  0.00    +0.000 OA
ATOM      2  C   UNL     1       1.777   8.086  19.948  0.00  0.00    +0.000 C 
ATOM      3  N   UNL     1       2.453   7.097  19.227  0.00  0.00    +0.000 N 
ATOM      4  C   UNL     1       3.094   7.373  17.932  0.00  0.00    +0.000 C 
ATOM      5  C   UNL     1       4.367   6.552  17.748  0.00  0.00    +0.000 C 
ATOM      6  O   UNL     1       4.116   5.158  17.918  0.00  0.00    +0.000 OA
ATOM      7  C   UNL     1       3.591   4.891  19.232  0.00  0.00    +0.000 C 
ATOM      8  C   UNL     1       3.431   3.376  19.339  0.00  0.00    +0.000 C 
ATOM      9  C   UNL     1       2.787   2.963  20.652  0.00  0.00    +0.000 C 
ATOM     10  C   UNL     1       1.458   3.677  20.855  0.00  0.00    +0.000 C 
ATOM     11  C   UNL     1       1.621   5.198  20.793  0.00  0.00    +0.000 C 
ATOM     12  C   UNL     1       2.249   5.641  19.462  0.00  0.00    +0.000 C 
ENDROOT
BRANCH   2  13
ATOM     13  C   UNL     1       1.715   9.490  19.317  0.00  0.00    +0.000 C 
BRANCH  13  14
ATOM     14  N   UNL     1       0.356   9.988  19.164  0.00  0.00    +0.000 N 
ATOM     15  C   UNL     1      -0.205  10.785  20.142  0.00  0.00    +0.000 A 
ATOM     16  C   UNL     1      -1.408  11.349  19.990  0.00  0.00    +0.000 A 
ATOM     17  C   UNL     1      -2.157  11.123  18.755  0.00  0.00    +0.000 A 
ATOM     18  C   UNL     1      -3.384  11.752  18.530  0.00  0.00    +0.000 A 
ATOM     19  C   UNL     1      -4.085  11.522  17.341  0.00  0.00    +0.000 A 
ATOM     20  C   UNL     1      -3.574  10.657  16.375  0.00  0.00    +0.000 A 
ATOM     21  C   UNL     1      -2.347  10.026  16.588  0.00  0.00    +0.000 A 
ATOM     22  C   UNL     1      -1.640  10.267  17.774  0.00  0.00    +0.000 A 
ATOM     23  C   UNL     1      -0.310   9.651  17.978  0.00  0.00    +0.000 A 
ATOM     24  O   UNL     1       0.173   8.919  17.117  0.00  0.00    +0.000 OA
ENDBRANCH  13  14
ENDBRANCH   2  13
TORSDOF 2
ENDMDL
MODEL 5
REMARK VINA RESULT:      -7.2      1.357      2.024
REMARK  Name = 
REMARK  2 active torsions:
REMARK  status: ('A' for Active; 'I' for Inactive)
REMARK    1  A    between atoms: C_2  and  C_3
REMARK    2  A    between atoms: C_3  and  N_4
REMARK                            x       y       z     vdW  Elec       q    Type
REMARK                         _______ _______ _______ _____ _____    ______ ____
ROOT
ATOM      1  O   UNL     1       0.734   9.151  17.153  0.00  0.00    +0.000 OA
ATOM      2  C   UNL     1       0.856   9.409  18.351  0.00  0.00    +0.000 C 
ATOM      3  N   UNL     1      -0.084  10.158  19.066  0.00  0.00    +0.000 N 
ATOM      4  C   UNL     1       0.132  10.554  20.466  0.00  0.00    +0.000 C 
ATOM      5  C   UNL     1      -0.472  11.923  20.764  0.00  0.00    +0.000 C 
ATOM      6  O   UNL     1      -1.855  11.969  20.417  0.00  0.00    +0.000 OA
ATOM      7  C   UNL     1      -2.040  11.687  19.017  0.00  0.00    +0.000 C 
ATOM      8  C   UNL     1      -3.533  11.835  18.735  0.00  0.00    +0.000 C 
ATOM      9  C   UNL     1      -3.882  11.465  17.302  0.00  0.00    +0.000 C 
ATOM     10  C   UNL     1      -3.389  10.063  16.967  0.00  0.00    +0.000 C 
ATOM     11  C   UNL     1      -1.884   9.923  17.206  0.00  0.00    +0.000 C 
ATOM     12  C   UNL     1      -1.511  10.270  18.656  0.00  0.00    +0.000 C 
ENDROOT
BRANCH   2  13
ATOM     13  C   UNL     1       2.135   8.995  19.103  0.00  0.00    +0.000 C 
BRANCH  13  14
ATOM     14  N   UNL     1       2.402   7.566  19.033  0.00  0.00    +0.000 N 
ATOM     15  C   UNL     1       3.108   7.043  17.969  0.00  0.00    +0.000 A 
ATOM     16  C   UNL     1       3.465   5.755  17.923  0.00  0.00    +0.000 A 
ATOM     17  C   UNL     1       3.103   4.868  19.027  0.00  0.00    +0.000 A 
ATOM     18  C   UNL     1       3.520   3.535  19.048  0.00  0.00    +0.000 A 
ATOM     19  C   UNL     1       3.162   2.703  20.115  0.00  0.00    +0.000 A 
ATOM     20  C   UNL     1       2.381   3.191  21.161  0.00  0.00    +0.000 A 
ATOM     21  C   UNL     1       1.962   4.523  21.152  0.00  0.00    +0.000 A 
ATOM     22  C   UNL     1       2.331   5.358  20.089  0.00  0.00    +0.000 A 
ATOM     23  C   UNL     1       1.944   6.787  20.104  0.00  0.00    +0.000 A 
ATOM     24  O   UNL     1       1.290   7.242  21.040  0.00  0.00    +0.000 OA
ENDBRANCH  13  14
ENDBRANCH   2  13
TORSDOF 2
ENDMDL
MODEL 6
REMARK VINA RESULT:      -7.1      1.843      3.705
REMARK  Name = 
REMARK  2 active torsions:
REMARK  status: ('A' for Active; 'I' for Inactive)
REMARK    1  A    between atoms: C_2  and  C_3
REMARK    2  A    between atoms: C_3  and  N_4
REMARK                            x       y       z     vdW  Elec       q    Type
REMARK                         _______ _______ _______ _____ _____    ______ ____
ROOT
ATOM      1  O   UNL     1      -1.126  11.712  20.624  0.00  0.00    +0.000 OA
ATOM      2  C   UNL     1      -0.851  11.375  19.471  0.00  0.00    +0.000 C 
ATOM      3  N   UNL     1      -1.826  11.140  18.496  0.00  0.00    +0.000 N 
ATOM      4  C   UNL     1      -1.488  10.629  17.160  0.00  0.00    +0.000 C 
ATOM      5  C   UNL     1      -2.576   9.707  16.618  0.00  0.00    +0.000 C 
ATOM      6  O   UNL     1      -3.851  10.348  16.622  0.00  0.00    +0.000 OA
ATOM      7  C   UNL     1      -4.217  10.745  17.958  0.00  0.00    +0.000 C 
ATOM      8  C   UNL     1      -5.618  11.345  17.866  0.00  0.00    +0.000 C 
ATOM      9  C   UNL     1      -6.088  11.900  19.201  0.00  0.00    +0.000 C 
ATOM     10  C   UNL     1      -5.087  12.905  19.756  0.00  0.00    +0.000 C 
ATOM     11  C   UNL     1      -3.691  12.293  19.891  0.00  0.00    +0.000 C 
ATOM     12  C   UNL     1      -3.184  11.747  18.547  0.00  0.00    +0.000 C 
ENDROOT
BRANCH   2  13
ATOM     13  C   UNL     1       0.611  11.089  19.079  0.00  0.00    +0.000 C 
BRANCH  13  14
ATOM     14  N   UNL     1       1.071   9.777  19.507  0.00  0.00    +0.000 N 
ATOM     15  C   UNL     1       0.807   9.332  20.786  0.00  0.00    +0.000 A 
ATOM     16  C   UNL     1       1.118   8.092  21.181  0.00  0.00    +0.000 A 
ATOM     17  C   UNL     1       1.754   7.174  20.238  0.00  0.00    +0.000 A 
ATOM     18  C   UNL     1       2.028   5.851  20.591  0.00  0.00    +0.000 A 
ATOM     19  C   UNL     1       2.637   4.989  19.673  0.00  0.00    +0.000 A 
ATOM     20  C   UNL     1       2.986   5.443  18.402  0.00  0.00    +0.000 A 
ATOM     21  C   UNL     1       2.713   6.762  18.036  0.00  0.00    +0.000 A 
ATOM     22  C   UNL     1       2.092   7.620  18.953  0.00  0.00    +0.000 A 
ATOM     23  C   UNL     1       1.742   9.002  18.551  0.00  0.00    +0.000 A 
ATOM     24  O   UNL     1       2.006   9.403  17.420  0.00  0.00    +0.000 OA
ENDBRANCH  13  14
ENDBRANCH   2  13
TORSDOF 2
ENDMDL
MODEL 7
REMARK VINA RESULT:      -7.1      1.887      7.836
REMARK  Name = 
REMARK  2 active torsions:
REMARK  status: ('A' for Active; 'I' for Inactive)
REMARK    1  A    between atoms: C_2  and  C_3
REMARK    2  A    between atoms: C_3  and  N_4
REMARK                            x       y       z     vdW  Elec       q    Type
REMARK                         _______ _______ _______ _____ _____    ______ ____
ROOT
ATOM      1  O   UNL     1       2.264   8.512  19.035  0.00  0.00    +0.000 OA
ATOM      2  C   UNL     1       1.963   7.680  19.893  0.00  0.00    +0.000 C 
ATOM      3  N   UNL     1       2.243   6.316  19.759  0.00  0.00    +0.000 N 
ATOM      4  C   UNL     1       1.777   5.323  20.738  0.00  0.00    +0.000 C 
ATOM      5  C   UNL     1       1.434   3.994  20.072  0.00  0.00    +0.000 C 
ATOM      6  O   UNL     1       2.531   3.496  19.308  0.00  0.00    +0.000 OA
ATOM      7  C   UNL     1       2.904   4.435  18.280  0.00  0.00    +0.000 C 
ATOM      8  C   UNL     1       4.026   3.780  17.477  0.00  0.00    +0.000 C 
ATOM      9  C   UNL     1       4.584   4.713  16.415  0.00  0.00    +0.000 C 
ATOM     10  C   UNL     1       5.037   6.030  17.030  0.00  0.00    +0.000 C 
ATOM     11  C   UNL     1       3.903   6.712  17.799  0.00  0.00    +0.000 C 
ATOM     12  C   UNL     1       3.339   5.795  18.896  0.00  0.00    +0.000 C 
ENDROOT
BRANCH   2  13
ATOM     13  C   UNL     1       1.153   8.108  21.131  0.00  0.00    +0.000 C 
BRANCH  13  14
ATOM     14  N   UNL     1       0.387   9.328  20.919  0.00  0.00    +0.000 N 
ATOM     15  C   UNL     1      -0.080   9.643  19.659  0.00  0.00    +0.000 A 
ATOM     16  C   UNL     1      -0.876  10.697  19.444  0.00  0.00    +0.000 A 
ATOM     17  C   UNL     1      -1.269  11.542  20.569  0.00  0.00    +0.000 A 
ATOM     18  C   UNL     1      -2.156  12.608  20.396  0.00  0.00    +0.000 A 
ATOM     19  C   UNL     1      -2.520  13.405  21.487  0.00  0.00    +0.000 A 
ATOM     20  C   UNL     1      -1.996  13.152  22.753  0.00  0.00    +0.000 A 
ATOM     21  C   UNL     1      -1.112  12.088  22.939  0.00  0.00    +0.000 A 
ATOM     22  C   UNL     1      -0.758  11.283  21.848  0.00  0.00    +0.000 A 
ATOM     23  C   UNL     1       0.129  10.114  22.049  0.00  0.00    +0.000 A 
ATOM     24  O   UNL     1       0.566   9.854  23.168  0.00  0.00    +0.000 OA
ENDBRANCH  13  14
ENDBRANCH   2  13
TORSDOF 2
ENDMDL
MODEL 8
REMARK VINA RESULT:      -7.1      2.306      3.657
REMARK  Name = 
REMARK  2 active torsions:
REMARK  status: ('A' for Active; 'I' for Inactive)
REMARK    1  A    between atoms: C_2  and  C_3
REMARK    2  A    between atoms: C_3  and  N_4
REMARK                            x       y       z     vdW  Elec       q    Type
REMARK                         _______ _______ _______ _____ _____    ______ ____
ROOT
ATOM      1  O   UNL     1      -1.301  10.850  19.676  0.00  0.00    +0.000 OA
ATOM      2  C   UNL     1      -0.129  11.197  19.830  0.00  0.00    +0.000 C 
ATOM      3  N   UNL     1       0.258  12.177  20.749  0.00  0.00    +0.000 N 
ATOM      4  C   UNL     1       1.643  12.660  20.840  0.00  0.00    +0.000 C 
ATOM      5  C   UNL     1       1.701  14.141  21.201  0.00  0.00    +0.000 C 
ATOM      6  O   UNL     1       0.976  14.414  22.399  0.00  0.00    +0.000 OA
ATOM      7  C   UNL     1      -0.407  14.036  22.254  0.00  0.00    +0.000 C 
ATOM      8  C   UNL     1      -1.107  14.436  23.551  0.00  0.00    +0.000 C 
ATOM      9  C   UNL     1      -2.562  13.999  23.571  0.00  0.00    +0.000 C 
ATOM     10  C   UNL     1      -2.686  12.503  23.312  0.00  0.00    +0.000 C 
ATOM     11  C   UNL     1      -2.025  12.105  21.990  0.00  0.00    +0.000 C 
ATOM     12  C   UNL     1      -0.544  12.515  21.957  0.00  0.00    +0.000 C 
ENDROOT
BRANCH   2  13
ATOM     13  C   UNL     1       0.970  10.624  18.916  0.00  0.00    +0.000 C 
BRANCH  13  14
ATOM     14  N   UNL     1       1.419   9.301  19.322  0.00  0.00    +0.000 N 
ATOM     15  C   UNL     1       1.128   8.827  20.585  0.00  0.00    +0.000 A 
ATOM     16  C   UNL     1       1.428   7.578  20.958  0.00  0.00    +0.000 A 
ATOM     17  C   UNL     1       2.083   6.681  20.007  0.00  0.00    +0.000 A 
ATOM     18  C   UNL     1       2.348   5.349  20.335  0.00  0.00    +0.000 A 
ATOM     19  C   UNL     1       2.975   4.508  19.410  0.00  0.00    +0.000 A 
ATOM     20  C   UNL     1       3.351   4.990  18.158  0.00  0.00    +0.000 A 
ATOM     21  C   UNL     1       3.088   6.317  17.817  0.00  0.00    +0.000 A 
ATOM     22  C   UNL     1       2.448   7.156  18.740  0.00  0.00    +0.000 A 
ATOM     23  C   UNL     1       2.109   8.547  18.363  0.00  0.00    +0.000 A 
ATOM     24  O   UNL     1       2.398   8.974  17.247  0.00  0.00    +0.000 OA
ENDBRANCH  13  14
ENDBRANCH   2  13
TORSDOF 2
ENDMDL
MODEL 9
REMARK VINA RESULT:      -7.0      1.053      1.754
REMARK  Name = 
REMARK  2 active torsions:
REMARK  status: ('A' for Active; 'I' for Inactive)
REMARK    1  A    between atoms: C_2  and  C_3
REMARK    2  A    between atoms: C_3  and  N_4
REMARK                            x       y       z     vdW  Elec       q    Type
REMARK                         _______ _______ _______ _____ _____    ______ ____
ROOT
ATOM      1  O   UNL     1       1.395   8.843  17.648  0.00  0.00    +0.000 OA
ATOM      2  C   UNL     1       1.399   8.803  18.879  0.00  0.00    +0.000 C 
ATOM      3  N   UNL     1       0.507   9.538  19.666  0.00  0.00    +0.000 N 
ATOM      4  C   UNL     1       0.599   9.568  21.133  0.00  0.00    +0.000 C 
ATOM      5  C   UNL     1       0.191  10.926  21.696  0.00  0.00    +0.000 C 
ATOM      6  O   UNL     1      -1.110  11.305  21.249  0.00  0.00    +0.000 OA
ATOM      7  C   UNL     1      -1.153  11.378  19.811  0.00  0.00    +0.000 C 
ATOM      8  C   UNL     1      -2.553  11.862  19.441  0.00  0.00    +0.000 C 
ATOM      9  C   UNL     1      -2.767  11.888  17.936  0.00  0.00    +0.000 C 
ATOM     10  C   UNL     1      -2.468  10.529  17.319  0.00  0.00    +0.000 C 
ATOM     11  C   UNL     1      -1.050  10.060  17.651  0.00  0.00    +0.000 C 
ATOM     12  C   UNL     1      -0.818  10.002  19.169  0.00  0.00    +0.000 C 
ENDROOT
BRANCH   2  13
ATOM     13  C   UNL     1       2.486   8.001  19.620  0.00  0.00    +0.000 C 
BRANCH  13  14
ATOM     14  N   UNL     1       2.748   6.703  19.018  0.00  0.00    +0.000 N 
ATOM     15  C   UNL     1       3.585   6.601  17.925  0.00  0.00    +0.000 A 
ATOM     16  C   UNL     1       3.935   5.416  17.411  0.00  0.00    +0.000 A 
ATOM     17  C   UNL     1       3.424   4.189  18.019  0.00  0.00    +0.000 A 
ATOM     18  C   UNL     1       3.824   2.933  17.556  0.00  0.00    +0.000 A 
ATOM     19  C   UNL     1       3.323   1.771  18.152  0.00  0.00    +0.000 A 
ATOM     20  C   UNL     1       2.414   1.853  19.205  0.00  0.00    +0.000 A 
ATOM     21  C   UNL     1       2.010   3.102  19.679  0.00  0.00    +0.000 A 
ATOM     22  C   UNL     1       2.522   4.265  19.089  0.00  0.00    +0.000 A 
ATOM     23  C   UNL     1       2.148   5.593  19.627  0.00  0.00    +0.000 A 
ATOM     24  O   UNL     1       1.379   5.679  20.582  0.00  0.00    +0.000 OA
ENDBRANCH  13  14
ENDBRANCH   2  13
TORSDOF 2
ENDMDL
