MODEL 1
REMARK VINA RESULT:      -8.7      0.000      0.000
REMARK  Name = 
REMARK  5 active torsions:
REMARK  status: ('A' for Active; 'I' for Inactive)
REMARK    1  A    between atoms: C_5  and  C_6
REMARK    2  A    between atoms: C_6  and  C_7
REMARK    3  A    between atoms: C_6  and  N_18
REMARK    4  A    between atoms: C_10  and  C_11
REMARK    5  A    between atoms: N_21  and  C_22
REMARK                            x       y       z     vdW  Elec       q    Type
REMARK                         _______ _______ _______ _____ _____    ______ ____
ROOT
ATOM      1  C   UNL     1       2.790   6.051  18.210  0.00  0.00    +0.000 C 
ENDROOT
BRANCH   1   6
ATOM      2  F   UNL     1       0.923   2.216  21.971  0.00  0.00    +0.000 F 
ATOM      3  C   UNL     1       1.369   3.108  21.076  0.00  0.00    +0.000 A 
ATOM      4  C   UNL     1       2.353   4.019  21.445  0.00  0.00    +0.000 A 
ATOM      5  C   UNL     1       2.819   4.950  20.510  0.00  0.00    +0.000 A 
ATOM      6  C   UNL     1       2.305   4.979  19.202  0.00  0.00    +0.000 A 
ATOM      7  C   UNL     1       1.299   4.050  18.865  0.00  0.00    +0.000 A 
ATOM      8  C   UNL     1       0.840   3.110  19.794  0.00  0.00    +0.000 A 
ENDBRANCH   1   6
BRANCH   1   9
ATOM      9  N   UNL     1       2.619   7.469  18.621  0.00  0.00    +0.000 NA
ATOM     10  C   UNL     1       1.987   7.714  19.924  0.00  0.00    +0.000 C 
ATOM     11  C   UNL     1       1.809   9.224  20.268  0.00  0.00    +0.000 C 
ATOM     12  N   UNL     1       1.182  10.060  19.199  0.00  0.00    +0.000 NA
ATOM     13  C   UNL     1       1.993   9.798  17.985  0.00  0.00    +0.000 C 
ATOM     14  C   UNL     1       2.030   8.307  17.566  0.00  0.00    +0.000 C 
BRANCH  12  15
ATOM     15  C   UNL     1      -0.270   9.769  19.028  0.00  0.00    +0.000 C 
ATOM     16  C   UNL     1      -1.083  10.053  20.313  0.00  0.00    +0.000 C 
ATOM     17  C   UNL     1      -1.279  11.541  20.594  0.00  0.00    +0.000 C 
ATOM     18  C   UNL     1      -1.970  12.250  19.438  0.00  0.00    +0.000 C 
ATOM     19  C   UNL     1      -1.315  11.971  18.089  0.00  0.00    +0.000 C 
ATOM     20  C   UNL     1      -0.987  10.497  17.859  0.00  0.00    +0.000 C 
ENDBRANCH  12  15
ENDBRANCH   1   9
BRANCH   1  21
ATOM     21  C   UNL     1       4.153   5.736  17.634  0.00  0.00    +0.000 A 
ATOM     22  N   UNL     1       5.342   6.025  18.129  0.00  0.00    +0.000 NA
ATOM     23  N   UNL     1       6.262   5.661  17.169  0.00  0.00    +0.000 NA
ATOM     24  C   UNL     1       5.578   5.178  16.151  0.00  0.00    +0.000 A 
ATOM     25  O   UNL     1       4.229   5.163  16.387  0.00  0.00    +0.000 OA
BRANCH  24  26
ATOM     26  C   UNL     1       6.041   4.755  14.836  0.00  0.00    +0.000 A 
ATOM     27  C   UNL     1       7.235   5.292  14.333  0.00  0.00    +0.000 A 
ATOM     28  C   UNL     1       7.688   4.963  13.055  0.00  0.00    +0.000 A 
ATOM     29  C   UNL     1       6.950   4.088  12.261  0.00  0.00    +0.000 A 
ATOM     30  C   UNL     1       5.767   3.536  12.748  0.00  0.00    +0.000 A 
ATOM     31  C   UNL     1       5.313   3.866  14.030  0.00  0.00    +0.000 A 
ENDBRANCH  24  26
ENDBRANCH   1  21
TORSDOF 5
ENDMDL
MODEL 2
REMARK VINA RESULT:      -8.6      0.111      1.231
REMARK  Name = 
REMARK  5 active torsions:
REMARK  status: ('A' for Active; 'I' for Inactive)
REMARK    1  A    between atoms: C_5  and  C_6
REMARK    2  A    between atoms: C_6  and  C_7
REMARK    3  A    between atoms: C_6  and  N_18
REMARK    4  A    between atoms: C_10  and  C_11
REMARK    5  A    between atoms: N_21  and  C_22
REMARK                            x       y       z     vdW  Elec       q    Type
REMARK                         _______ _______ _______ _____ _____    ______ ____
ROOT
ATOM      1  C   UNL     1       2.731   6.091  18.294  0.00  0.00    +0.000 C 
ENDROOT
BRANCH   1   6
ATOM      2  F   UNL     1       1.017   2.085  21.948  0.00  0.00    +0.000 F 
ATOM      3  C   UNL     1       1.415   3.040  21.096  0.00  0.00    +0.000 A 
ATOM      4  C   UNL     1       0.892   3.073  19.808  0.00  0.00    +0.000 A 
ATOM      5  C   UNL     1       1.307   4.071  18.918  0.00  0.00    +0.000 A 
ATOM      6  C   UNL     1       2.247   5.041  19.309  0.00  0.00    +0.000 A 
ATOM      7  C   UNL     1       2.766   4.970  20.617  0.00  0.00    +0.000 A 
ATOM      8  C   UNL     1       2.345   3.981  21.512  0.00  0.00    +0.000 A 
ENDBRANCH   1   6
BRANCH   1   9
ATOM      9  N   UNL     1       2.565   7.517  18.676  0.00  0.00    +0.000 NA
ATOM     10  C   UNL     1       1.941   7.790  19.977  0.00  0.00    +0.000 C 
ATOM     11  C   UNL     1       1.767   9.308  20.291  0.00  0.00    +0.000 C 
ATOM     12  N   UNL     1       1.135  10.123  19.208  0.00  0.00    +0.000 NA
ATOM     13  C   UNL     1       1.939   9.834  17.995  0.00  0.00    +0.000 C 
ATOM     14  C   UNL     1       1.971   8.335  17.607  0.00  0.00    +0.000 C 
BRANCH  12  15
ATOM     15  C   UNL     1      -0.318   9.830  19.052  0.00  0.00    +0.000 C 
ATOM     16  C   UNL     1      -1.124  10.147  20.334  0.00  0.00    +0.000 C 
ATOM     17  C   UNL     1      -1.315  11.642  20.581  0.00  0.00    +0.000 C 
ATOM     18  C   UNL     1      -2.011  12.324  19.411  0.00  0.00    +0.000 C 
ATOM     19  C   UNL     1      -1.363  12.012  18.066  0.00  0.00    +0.000 C 
ATOM     20  C   UNL     1      -1.040  10.532  17.869  0.00  0.00    +0.000 C 
ENDBRANCH  12  15
ENDBRANCH   1   9
BRANCH   1  21
ATOM     21  C   UNL     1       4.091   5.761  17.720  0.00  0.00    +0.000 A 
ATOM     22  N   UNL     1       5.282   5.986  18.242  0.00  0.00    +0.000 NA
ATOM     23  N   UNL     1       6.203   5.641  17.277  0.00  0.00    +0.000 NA
ATOM     24  C   UNL     1       5.518   5.232  16.228  0.00  0.00    +0.000 A 
ATOM     25  O   UNL     1       4.166   5.249  16.446  0.00  0.00    +0.000 OA
BRANCH  24  26
ATOM     26  C   UNL     1       5.985   4.860  14.899  0.00  0.00    +0.000 A 
ATOM     27  C   UNL     1       5.211   3.979  14.130  0.00  0.00    +0.000 A 
ATOM     28  C   UNL     1       5.646   3.546  12.877  0.00  0.00    +0.000 A 
ATOM     29  C   UNL     1       6.866   3.993  12.374  0.00  0.00    +0.000 A 
ATOM     30  C   UNL     1       7.645   4.877  13.119  0.00  0.00    +0.000 A 
ATOM     31  C   UNL     1       7.207   5.311  14.376  0.00  0.00    +0.000 A 
ENDBRANCH  24  26
ENDBRANCH   1  21
TORSDOF 5
ENDMDL
MODEL 3
REMARK VINA RESULT:      -8.1      4.062      7.399
REMARK  Name = 
REMARK  5 active torsions:
REMARK  status: ('A' for Active; 'I' for Inactive)
REMARK    1  A    between atoms: C_5  and  C_6
REMARK    2  A    between atoms: C_6  and  C_7
REMARK    3  A    between atoms: C_6  and  N_18
REMARK    4  A    between atoms: C_10  and  C_11
REMARK    5  A    between atoms: N_21  and  C_22
REMARK                            x       y       z     vdW  Elec       q    Type
REMARK                         _______ _______ _______ _____ _____    ______ ____
ROOT
ATOM      1  C   UNL     1       5.548   6.243  15.829  0.00  0.00    +0.000 C 
ENDROOT
BRANCH   1   6
ATOM      2  F   UNL     1       7.462   3.061  11.523  0.00  0.00    +0.000 F 
ATOM      3  C   UNL     1       7.023   3.805  12.547  0.00  0.00    +0.000 A 
ATOM      4  C   UNL     1       5.752   3.578  13.066  0.00  0.00    +0.000 A 
ATOM      5  C   UNL     1       5.293   4.354  14.135  0.00  0.00    +0.000 A 
ATOM      6  C   UNL     1       6.098   5.363  14.693  0.00  0.00    +0.000 A 
ATOM      7  C   UNL     1       7.375   5.576  14.135  0.00  0.00    +0.000 A 
ATOM      8  C   UNL     1       7.841   4.793  13.072  0.00  0.00    +0.000 A 
ENDBRANCH   1   6
BRANCH   1   9
ATOM      9  N   UNL     1       4.283   5.796  16.469  0.00  0.00    +0.000 NA
ATOM     10  C   UNL     1       3.703   6.680  17.487  0.00  0.00    +0.000 C 
ATOM     11  C   UNL     1       2.398   6.127  18.139  0.00  0.00    +0.000 C 
ATOM     12  N   UNL     1       2.469   4.716  18.628  0.00  0.00    +0.000 NA
ATOM     13  C   UNL     1       2.956   3.934  17.464  0.00  0.00    +0.000 C 
ATOM     14  C   UNL     1       4.332   4.399  16.928  0.00  0.00    +0.000 C 
BRANCH  12  15
ATOM     15  C   UNL     1       3.320   4.578  19.844  0.00  0.00    +0.000 C 
ATOM     16  C   UNL     1       2.513   4.764  21.150  0.00  0.00    +0.000 C 
ATOM     17  C   UNL     1       1.611   3.579  21.485  0.00  0.00    +0.000 C 
ATOM     18  C   UNL     1       2.401   2.282  21.604  0.00  0.00    +0.000 C 
ATOM     19  C   UNL     1       3.314   2.028  20.410  0.00  0.00    +0.000 C 
ATOM     20  C   UNL     1       4.119   3.253  19.981  0.00  0.00    +0.000 C 
ENDBRANCH  12  15
ENDBRANCH   1   9
BRANCH   1  21
ATOM     21  C   UNL     1       6.619   6.665  16.809  0.00  0.00    +0.000 A 
ATOM     22  N   UNL     1       7.170   5.961  17.780  0.00  0.00    +0.000 NA
ATOM     23  N   UNL     1       7.980   6.828  18.479  0.00  0.00    +0.000 NA
ATOM     24  C   UNL     1       7.870   8.005  17.896  0.00  0.00    +0.000 A 
ATOM     25  O   UNL     1       7.045   7.972  16.803  0.00  0.00    +0.000 OA
BRANCH  24  26
ATOM     26  C   UNL     1       8.420   9.295  18.291  0.00  0.00    +0.000 A 
ATOM     27  C   UNL     1       8.183  10.411  17.476  0.00  0.00    +0.000 A 
ATOM     28  C   UNL     1       8.740  11.654  17.781  0.00  0.00    +0.000 A 
ATOM     29  C   UNL     1       9.542  11.796  18.910  0.00  0.00    +0.000 A 
ATOM     30  C   UNL     1       9.781  10.701  19.738  0.00  0.00    +0.000 A 
ATOM     31  C   UNL     1       9.222   9.455  19.432  0.00  0.00    +0.000 A 
ENDBRANCH  24  26
ENDBRANCH   1  21
TORSDOF 5
ENDMDL
MODEL 4
REMARK VINA RESULT:      -7.9      3.987      6.814
REMARK  Name = 
REMARK  5 active torsions:
REMARK  status: ('A' for Active; 'I' for Inactive)
REMARK    1  A    between atoms: C_5  and  C_6
REMARK    2  A    between atoms: C_6  and  C_7
REMARK    3  A    between atoms: C_6  and  N_18
REMARK    4  A    between atoms: C_10  and  C_11
REMARK    5  A    between atoms: N_21  and  C_22
REMARK                            x       y       z     vdW  Elec       q    Type
REMARK                         _______ _______ _______ _____ _____    ______ ____
ROOT
ATOM      1  C   UNL     1       0.180  11.119  18.926  0.00  0.00    +0.000 C 
ENDROOT
BRANCH   1   6
ATOM      2  F   UNL     1      -4.730  10.386  16.153  0.00  0.00    +0.000 F 
ATOM      3  C   UNL     1      -3.575  10.544  16.813  0.00  0.00    +0.000 A 
ATOM      4  C   UNL     1      -3.445  11.581  17.731  0.00  0.00    +0.000 A 
ATOM      5  C   UNL     1      -2.239  11.747  18.421  0.00  0.00    +0.000 A 
ATOM      6  C   UNL     1      -1.155  10.880  18.199  0.00  0.00    +0.000 A 
ATOM      7  C   UNL     1      -1.316   9.848  17.252  0.00  0.00    +0.000 A 
ATOM      8  C   UNL     1      -2.525   9.673  16.569  0.00  0.00    +0.000 A 
ENDBRANCH   1   6
BRANCH   1   9
ATOM      9  N   UNL     1       0.101  11.529  20.352  0.00  0.00    +0.000 NA
ATOM     10  C   UNL     1      -0.790  10.751  21.221  0.00  0.00    +0.000 C 
ATOM     11  C   UNL     1      -0.848  11.264  22.693  0.00  0.00    +0.000 C 
ATOM     12  N   UNL     1      -1.082  12.732  22.856  0.00  0.00    +0.000 NA
ATOM     13  C   UNL     1      -0.042  13.379  22.019  0.00  0.00    +0.000 C 
ATOM     14  C   UNL     1      -0.100  12.976  20.525  0.00  0.00    +0.000 C 
BRANCH  12  15
ATOM     15  C   UNL     1      -2.475  13.127  22.500  0.00  0.00    +0.000 C 
ATOM     16  C   UNL     1      -3.509  12.645  23.544  0.00  0.00    +0.000 C 
ATOM     17  C   UNL     1      -3.475  13.438  24.848  0.00  0.00    +0.000 C 
ATOM     18  C   UNL     1      -3.707  14.925  24.613  0.00  0.00    +0.000 C 
ATOM     19  C   UNL     1      -2.805  15.505  23.530  0.00  0.00    +0.000 C 
ATOM     20  C   UNL     1      -2.724  14.643  22.271  0.00  0.00    +0.000 C 
ENDBRANCH  12  15
ENDBRANCH   1   9
BRANCH   1  21
ATOM     21  C   UNL     1       1.194  10.031  18.653  0.00  0.00    +0.000 A 
ATOM     22  N   UNL     1       2.132   9.994  17.725  0.00  0.00    +0.000 NA
ATOM     23  N   UNL     1       2.696   8.739  17.790  0.00  0.00    +0.000 NA
ATOM     24  C   UNL     1       2.066   8.089  18.747  0.00  0.00    +0.000 A 
ATOM     25  O   UNL     1       1.117   8.858  19.366  0.00  0.00    +0.000 OA
BRANCH  24  26
ATOM     26  C   UNL     1       2.184   6.696  19.161  0.00  0.00    +0.000 A 
ATOM     27  C   UNL     1       2.608   5.745  18.221  0.00  0.00    +0.000 A 
ATOM     28  C   UNL     1       2.679   4.391  18.553  0.00  0.00    +0.000 A 
ATOM     29  C   UNL     1       2.327   3.971  19.833  0.00  0.00    +0.000 A 
ATOM     30  C   UNL     1       1.914   4.903  20.783  0.00  0.00    +0.000 A 
ATOM     31  C   UNL     1       1.843   6.261  20.450  0.00  0.00    +0.000 A 
ENDBRANCH  24  26
ENDBRANCH   1  21
TORSDOF 5
ENDMDL
MODEL 5
REMARK VINA RESULT:      -7.6      3.840      6.147
REMARK  Name = 
REMARK  5 active torsions:
REMARK  status: ('A' for Active; 'I' for Inactive)
REMARK    1  A    between atoms: C_5  and  C_6
REMARK    2  A    between atoms: C_6  and  C_7
REMARK    3  A    between atoms: C_6  and  N_18
REMARK    4  A    between atoms: C_10  and  C_11
REMARK    5  A    between atoms: N_21  and  C_22
REMARK                            x       y       z     vdW  Elec       q    Type
REMARK                         _______ _______ _______ _____ _____    ______ ____
ROOT
ATOM      1  C   UNL     1       6.341   5.362  16.903  0.00  0.00    +0.000 C 
ENDROOT
BRANCH   1   6
ATOM      2  F   UNL     1       9.266   9.626  19.270  0.00  0.00    +0.000 F 
ATOM      3  C   UNL     1       8.590   8.613  18.710  0.00  0.00    +0.000 A 
ATOM      4  C   UNL     1       7.867   8.833  17.542  0.00  0.00    +0.000 A 
ATOM      5  C   UNL     1       7.161   7.776  16.957  0.00  0.00    +0.000 A 
ATOM      6  C   UNL     1       7.172   6.493  17.533  0.00  0.00    +0.000 A 
ATOM      7  C   UNL     1       7.905   6.309  18.723  0.00  0.00    +0.000 A 
ATOM      8  C   UNL     1       8.621   7.361  19.304  0.00  0.00    +0.000 A 
ENDBRANCH   1   6
BRANCH   1   9
ATOM      9  N   UNL     1       4.867   5.440  17.076  0.00  0.00    +0.000 NA
ATOM     10  C   UNL     1       4.342   6.599  17.809  0.00  0.00    +0.000 C 
ATOM     11  C   UNL     1       2.791   6.591  17.981  0.00  0.00    +0.000 C 
ATOM     12  N   UNL     1       2.206   5.316  18.499  0.00  0.00    +0.000 NA
ATOM     13  C   UNL     1       2.730   4.263  17.595  0.00  0.00    +0.000 C 
ATOM     14  C   UNL     1       4.276   4.182  17.558  0.00  0.00    +0.000 C 
BRANCH  12  15
ATOM     15  C   UNL     1       2.523   5.089  19.937  0.00  0.00    +0.000 C 
ATOM     16  C   UNL     1       1.254   4.844  20.788  0.00  0.00    +0.000 C 
ATOM     17  C   UNL     1       0.629   3.468  20.571  0.00  0.00    +0.000 C 
ATOM     18  C   UNL     1       1.615   2.346  20.868  0.00  0.00    +0.000 C 
ATOM     19  C   UNL     1       2.952   2.522  20.156  0.00  0.00    +0.000 C 
ATOM     20  C   UNL     1       3.517   3.938  20.252  0.00  0.00    +0.000 C 
ENDBRANCH  12  15
ENDBRANCH   1   9
BRANCH   1  21
ATOM     21  C   UNL     1       6.780   5.033  15.494  0.00  0.00    +0.000 A 
ATOM     22  N   UNL     1       7.710   5.618  14.764  0.00  0.00    +0.000 NA
ATOM     23  N   UNL     1       7.632   5.055  13.509  0.00  0.00    +0.000 NA
ATOM     24  C   UNL     1       6.659   4.167  13.551  0.00  0.00    +0.000 A 
ATOM     25  O   UNL     1       6.090   4.072  14.793  0.00  0.00    +0.000 OA
BRANCH  24  26
ATOM     26  C   UNL     1       6.081   3.368  12.478  0.00  0.00    +0.000 A 
ATOM     27  C   UNL     1       4.771   3.643  12.060  0.00  0.00    +0.000 A 
ATOM     28  C   UNL     1       4.153   2.867  11.077  0.00  0.00    +0.000 A 
ATOM     29  C   UNL     1       4.842   1.804  10.498  0.00  0.00    +0.000 A 
ATOM     30  C   UNL     1       6.149   1.523  10.894  0.00  0.00    +0.000 A 
ATOM     31  C   UNL     1       6.767   2.301  11.878  0.00  0.00    +0.000 A 
ENDBRANCH  24  26
ENDBRANCH   1  21
TORSDOF 5
ENDMDL
MODEL 6
REMARK VINA RESULT:      -7.6      4.115      6.820
REMARK  Name = 
REMARK  5 active torsions:
REMARK  status: ('A' for Active; 'I' for Inactive)
REMARK    1  A    between atoms: C_5  and  C_6
REMARK    2  A    between atoms: C_6  and  C_7
REMARK    3  A    between atoms: C_6  and  N_18
REMARK    4  A    between atoms: C_10  and  C_11
REMARK    5  A    between atoms: N_21  and  C_22
REMARK                            x       y       z     vdW  Elec       q    Type
REMARK                         _______ _______ _______ _____ _____    ______ ____
ROOT
ATOM      1  C   UNL     1       0.099  11.047  18.373  0.00  0.00    +0.000 C 
ENDROOT
BRANCH   1   6
ATOM      2  F   UNL     1      -5.519  10.722  17.555  0.00  0.00    +0.000 F 
ATOM      3  C   UNL     1      -4.195  10.784  17.753  0.00  0.00    +0.000 A 
ATOM      4  C   UNL     1      -3.682  11.657  18.706  0.00  0.00    +0.000 A 
ATOM      5  C   UNL     1      -2.300  11.721  18.913  0.00  0.00    +0.000 A 
ATOM      6  C   UNL     1      -1.420  10.915  18.169  0.00  0.00    +0.000 A 
ATOM      7  C   UNL     1      -1.972  10.051  17.202  0.00  0.00    +0.000 A 
ATOM      8  C   UNL     1      -3.355   9.977  17.001  0.00  0.00    +0.000 A 
ENDBRANCH   1   6
BRANCH   1   9
ATOM      9  N   UNL     1       0.578  12.273  19.063  0.00  0.00    +0.000 NA
ATOM     10  C   UNL     1       0.165  13.562  18.494  0.00  0.00    +0.000 C 
ATOM     11  C   UNL     1       0.736  14.801  19.251  0.00  0.00    +0.000 C 
ATOM     12  N   UNL     1       2.207  14.775  19.514  0.00  0.00    +0.000 NA
ATOM     13  C   UNL     1       2.450  13.476  20.189  0.00  0.00    +0.000 C 
ATOM     14  C   UNL     1       2.020  12.245  19.353  0.00  0.00    +0.000 C 
BRANCH  12  15
ATOM     15  C   UNL     1       3.010  14.968  18.273  0.00  0.00    +0.000 C 
ATOM     16  C   UNL     1       3.159  16.460  17.895  0.00  0.00    +0.000 C 
ATOM     17  C   UNL     1       4.124  17.225  18.797  0.00  0.00    +0.000 C 
ATOM     18  C   UNL     1       5.514  16.602  18.797  0.00  0.00    +0.000 C 
ATOM     19  C   UNL     1       5.495  15.102  19.067  0.00  0.00    +0.000 C 
ATOM     20  C   UNL     1       4.433  14.347  18.268  0.00  0.00    +0.000 C 
ENDBRANCH  12  15
ENDBRANCH   1   9
BRANCH   1  21
ATOM     21  C   UNL     1       0.732   9.769  18.877  0.00  0.00    +0.000 A 
ATOM     22  N   UNL     1       0.865   9.352  20.122  0.00  0.00    +0.000 NA
ATOM     23  N   UNL     1       1.633   8.209  20.071  0.00  0.00    +0.000 NA
ATOM     24  C   UNL     1       1.923   8.004  18.801  0.00  0.00    +0.000 A 
ATOM     25  O   UNL     1       1.355   8.938  17.976  0.00  0.00    +0.000 OA
BRANCH  24  26
ATOM     26  C   UNL     1       2.795   7.006  18.196  0.00  0.00    +0.000 A 
ATOM     27  C   UNL     1       3.906   7.436  17.457  0.00  0.00    +0.000 A 
ATOM     28  C   UNL     1       4.736   6.520  16.808  0.00  0.00    +0.000 A 
ATOM     29  C   UNL     1       4.464   5.157  16.893  0.00  0.00    +0.000 A 
ATOM     30  C   UNL     1       3.370   4.710  17.632  0.00  0.00    +0.000 A 
ATOM     31  C   UNL     1       2.538   5.629  18.282  0.00  0.00    +0.000 A 
ENDBRANCH  24  26
ENDBRANCH   1  21
TORSDOF 5
ENDMDL
MODEL 7
REMARK VINA RESULT:      -7.5      3.739      6.078
REMARK  Name = 
REMARK  5 active torsions:
REMARK  status: ('A' for Active; 'I' for Inactive)
REMARK    1  A    between atoms: C_5  and  C_6
REMARK    2  A    between atoms: C_6  and  C_7
REMARK    3  A    between atoms: C_6  and  N_18
REMARK    4  A    between atoms: C_10  and  C_11
REMARK    5  A    between atoms: N_21  and  C_22
REMARK                            x       y       z     vdW  Elec       q    Type
REMARK                         _______ _______ _______ _____ _____    ______ ____
ROOT
ATOM      1  C   UNL     1       0.929  10.624  18.394  0.00  0.00    +0.000 C 
ENDROOT
BRANCH   1   6
ATOM      2  F   UNL     1      -4.723  11.020  17.913  0.00  0.00    +0.000 F 
ATOM      3  C   UNL     1      -3.393  10.913  18.034  0.00  0.00    +0.000 A 
ATOM      4  C   UNL     1      -2.690  11.871  18.757  0.00  0.00    +0.000 A 
ATOM      5  C   UNL     1      -1.301  11.759  18.884  0.00  0.00    +0.000 A 
ATOM      6  C   UNL     1      -0.605  10.692  18.290  0.00  0.00    +0.000 A 
ATOM      7  C   UNL     1      -1.346   9.746  17.554  0.00  0.00    +0.000 A 
ATOM      8  C   UNL     1      -2.737   9.849  17.435  0.00  0.00    +0.000 A 
ENDBRANCH   1   6
BRANCH   1   9
ATOM      9  N   UNL     1       1.601  11.738  19.114  0.00  0.00    +0.000 NA
ATOM     10  C   UNL     1       0.957  12.222  20.341  0.00  0.00    +0.000 C 
ATOM     11  C   UNL     1       1.700  13.414  21.019  0.00  0.00    +0.000 C 
ATOM     12  N   UNL     1       2.059  14.549  20.115  0.00  0.00    +0.000 NA
ATOM     13  C   UNL     1       2.798  13.922  18.991  0.00  0.00    +0.000 C 
ATOM     14  C   UNL     1       1.984  12.848  18.228  0.00  0.00    +0.000 C 
BRANCH  12  15
ATOM     15  C   UNL     1       0.866  15.334  19.688  0.00  0.00    +0.000 C 
ATOM     16  C   UNL     1       0.062  15.884  20.889  0.00  0.00    +0.000 C 
ATOM     17  C   UNL     1       0.743  17.053  21.596  0.00  0.00    +0.000 C 
ATOM     18  C   UNL     1       1.012  18.211  20.645  0.00  0.00    +0.000 C 
ATOM     19  C   UNL     1       1.723  17.781  19.366  0.00  0.00    +0.000 C 
ATOM     20  C   UNL     1       1.131  16.525  18.727  0.00  0.00    +0.000 C 
ENDBRANCH  12  15
ENDBRANCH   1   9
BRANCH   1  21
ATOM     21  C   UNL     1       1.426   9.250  18.783  0.00  0.00    +0.000 A 
ATOM     22  N   UNL     1       1.453   8.693  19.980  0.00  0.00    +0.000 NA
ATOM     23  N   UNL     1       2.127   7.500  19.839  0.00  0.00    +0.000 NA
ATOM     24  C   UNL     1       2.472   7.406  18.570  0.00  0.00    +0.000 A 
ATOM     25  O   UNL     1       2.031   8.469  17.827  0.00  0.00    +0.000 OA
BRANCH  24  26
ATOM     26  C   UNL     1       3.294   6.406  17.901  0.00  0.00    +0.000 A 
ATOM     27  C   UNL     1       4.375   6.833  17.116  0.00  0.00    +0.000 A 
ATOM     28  C   UNL     1       5.155   5.917  16.408  0.00  0.00    +0.000 A 
ATOM     29  C   UNL     1       4.861   4.557  16.478  0.00  0.00    +0.000 A 
ATOM     30  C   UNL     1       3.797   4.113  17.260  0.00  0.00    +0.000 A 
ATOM     31  C   UNL     1       3.016   5.032  17.970  0.00  0.00    +0.000 A 
ENDBRANCH  24  26
ENDBRANCH   1  21
TORSDOF 5
ENDMDL
MODEL 8
REMARK VINA RESULT:      -7.5      3.775      6.253
REMARK  Name = 
REMARK  5 active torsions:
REMARK  status: ('A' for Active; 'I' for Inactive)
REMARK    1  A    between atoms: C_5  and  C_6
REMARK    2  A    between atoms: C_6  and  C_7
REMARK    3  A    between atoms: C_6  and  N_18
REMARK    4  A    between atoms: C_10  and  C_11
REMARK    5  A    between atoms: N_21  and  C_22
REMARK                            x       y       z     vdW  Elec       q    Type
REMARK                         _______ _______ _______ _____ _____    ______ ____
ROOT
ATOM      1  C   UNL     1       0.915  10.740  18.391  0.00  0.00    +0.000 C 
ENDROOT
BRANCH   1   6
ATOM      2  F   UNL     1      -4.759  10.932  18.059  0.00  0.00    +0.000 F 
ATOM      3  C   UNL     1      -3.421  10.901  18.130  0.00  0.00    +0.000 A 
ATOM      4  C   UNL     1      -2.720   9.904  17.460  0.00  0.00    +0.000 A 
ATOM      5  C   UNL     1      -1.323   9.871  17.533  0.00  0.00    +0.000 A 
ATOM      6  C   UNL     1      -0.617  10.833  18.277  0.00  0.00    +0.000 A 
ATOM      7  C   UNL     1      -1.358  11.821  18.955  0.00  0.00    +0.000 A 
ATOM      8  C   UNL     1      -2.755  11.863  18.874  0.00  0.00    +0.000 A 
ENDBRANCH   1   6
BRANCH   1   9
ATOM      9  N   UNL     1       1.600  11.844  19.113  0.00  0.00    +0.000 NA
ATOM     10  C   UNL     1       0.982  12.309  20.361  0.00  0.00    +0.000 C 
ATOM     11  C   UNL     1       1.738  13.492  21.040  0.00  0.00    +0.000 C 
ATOM     12  N   UNL     1       2.075  14.641  20.145  0.00  0.00    +0.000 NA
ATOM     13  C   UNL     1       2.790  14.033  18.997  0.00  0.00    +0.000 C 
ATOM     14  C   UNL     1       1.962  12.968  18.236  0.00  0.00    +0.000 C 
BRANCH  12  15
ATOM     15  C   UNL     1       0.871  15.430  19.756  0.00  0.00    +0.000 C 
ATOM     16  C   UNL     1       0.079  15.939  20.982  0.00  0.00    +0.000 C 
ATOM     17  C   UNL     1       0.761  17.092  21.715  0.00  0.00    +0.000 C 
ATOM     18  C   UNL     1       1.010  18.279  20.794  0.00  0.00    +0.000 C 
ATOM     19  C   UNL     1       1.708  17.891  19.495  0.00  0.00    +0.000 C 
ATOM     20  C   UNL     1       1.117  16.650  18.827  0.00  0.00    +0.000 C 
ENDBRANCH  12  15
ENDBRANCH   1   9
BRANCH   1  21
ATOM     21  C   UNL     1       1.386   9.359  18.787  0.00  0.00    +0.000 A 
ATOM     22  N   UNL     1       1.426   8.816  19.989  0.00  0.00    +0.000 NA
ATOM     23  N   UNL     1       2.068   7.605  19.849  0.00  0.00    +0.000 NA
ATOM     24  C   UNL     1       2.383   7.487  18.574  0.00  0.00    +0.000 A 
ATOM     25  O   UNL     1       1.951   8.551  17.828  0.00  0.00    +0.000 OA
BRANCH  24  26
ATOM     26  C   UNL     1       3.165   6.459  17.900  0.00  0.00    +0.000 A 
ATOM     27  C   UNL     1       2.747   5.124  17.988  0.00  0.00    +0.000 A 
ATOM     28  C   UNL     1       3.496   4.097  17.410  0.00  0.00    +0.000 A 
ATOM     29  C   UNL     1       4.676   4.397  16.733  0.00  0.00    +0.000 A 
ATOM     30  C   UNL     1       5.102   5.719  16.627  0.00  0.00    +0.000 A 
ATOM     31  C   UNL     1       4.350   6.748  17.206  0.00  0.00    +0.000 A 
ENDBRANCH  24  26
ENDBRANCH   1  21
TORSDOF 5
ENDMDL
MODEL 9
REMARK VINA RESULT:      -7.4      3.499      6.332
REMARK  Name = 
REMARK  5 active torsions:
REMARK  status: ('A' for Active; 'I' for Inactive)
REMARK    1  A    between atoms: C_5  and  C_6
REMARK    2  A    between atoms: C_6  and  C_7
REMARK    3  A    between atoms: C_6  and  N_18
REMARK    4  A    between atoms: C_10  and  C_11
REMARK    5  A    between atoms: N_21  and  C_22
REMARK                            x       y       z     vdW  Elec       q    Type
REMARK                         _______ _______ _______ _____ _____    ______ ____
ROOT
ATOM      1  C   UNL     1       0.292  10.655  19.455  0.00  0.00    +0.000 C 
ENDROOT
BRANCH   1   6
ATOM      2  F   UNL     1      -4.255  10.648  16.040  0.00  0.00    +0.000 F 
ATOM      3  C   UNL     1      -3.187  10.635  16.849  0.00  0.00    +0.000 A 
ATOM      4  C   UNL     1      -3.119  11.531  17.911  0.00  0.00    +0.000 A 
ATOM      5  C   UNL     1      -2.004  11.517  18.757  0.00  0.00    +0.000 A 
ATOM      6  C   UNL     1      -0.950  10.610  18.547  0.00  0.00    +0.000 A 
ATOM      7  C   UNL     1      -1.045   9.726  17.454  0.00  0.00    +0.000 A 
ATOM      8  C   UNL     1      -2.164   9.729  16.614  0.00  0.00    +0.000 A 
ENDBRANCH   1   6
BRANCH   1   9
ATOM      9  N   UNL     1       0.156  11.389  20.740  0.00  0.00    +0.000 NA
ATOM     10  C   UNL     1      -0.877  10.916  21.670  0.00  0.00    +0.000 C 
ATOM     11  C   UNL     1      -0.985  11.758  22.980  0.00  0.00    +0.000 C 
ATOM     12  N   UNL     1      -1.066  13.239  22.790  0.00  0.00    +0.000 NA
ATOM     13  C   UNL     1       0.097  13.578  21.934  0.00  0.00    +0.000 C 
ATOM     14  C   UNL     1       0.103  12.849  20.568  0.00  0.00    +0.000 C 
BRANCH  12  15
ATOM     15  C   UNL     1      -2.377  13.667  22.223  0.00  0.00    +0.000 C 
ATOM     16  C   UNL     1      -3.574  13.176  23.071  0.00  0.00    +0.000 C 
ATOM     17  C   UNL     1      -3.743  13.934  24.385  0.00  0.00    +0.000 C 
ATOM     18  C   UNL     1      -3.915  15.430  24.157  0.00  0.00    +0.000 C 
ATOM     19  C   UNL     1      -2.841  16.023  23.252  0.00  0.00    +0.000 C 
ATOM     20  C   UNL     1      -2.566  15.192  21.999  0.00  0.00    +0.000 C 
ENDBRANCH  12  15
ENDBRANCH   1   9
BRANCH   1  21
ATOM     21  C   UNL     1       0.968   9.308  19.582  0.00  0.00    +0.000 A 
ATOM     22  N   UNL     1       1.160   8.583  20.669  0.00  0.00    +0.000 NA
ATOM     23  N   UNL     1       1.946   7.517  20.292  0.00  0.00    +0.000 NA
ATOM     24  C   UNL     1       2.188   7.660  19.004  0.00  0.00    +0.000 A 
ATOM     25  O   UNL     1       1.570   8.761  18.474  0.00  0.00    +0.000 OA
BRANCH  24  26
ATOM     26  C   UNL     1       3.054   6.881  18.127  0.00  0.00    +0.000 A 
ATOM     27  C   UNL     1       2.942   5.483  18.134  0.00  0.00    +0.000 A 
ATOM     28  C   UNL     1       3.790   4.692  17.357  0.00  0.00    +0.000 A 
ATOM     29  C   UNL     1       4.762   5.292  16.560  0.00  0.00    +0.000 A 
ATOM     30  C   UNL     1       4.880   6.680  16.533  0.00  0.00    +0.000 A 
ATOM     31  C   UNL     1       4.030   7.473  17.312  0.00  0.00    +0.000 A 
ENDBRANCH  24  26
ENDBRANCH   1  21
TORSDOF 5
ENDMDL
