MODEL 1
REMARK VINA RESULT:      -7.0      0.000      0.000
REMARK  Name = 
REMARK  14 active torsions:
REMARK  status: ('A' for Active; 'I' for Inactive)
REMARK    1  A    between atoms: C_1  and  O_2
REMARK    2  A    between atoms: O_2  and  C_3
REMARK    3  A    between atoms: C_5  and  O_6
REMARK    4  A    between atoms: C_7  and  C_8
REMARK    5  A    between atoms: C_8  and  C_10
REMARK    6  A    between atoms: C_11  and  C_12
REMARK    7  A    between atoms: C_14  and  O_15
REMARK    8  A    between atoms: O_15  and  C_16
REMARK    9  A    between atoms: C_17  and  O_18
REMARK   10  A    between atoms: O_18  and  C_19
REMARK   11  A    between atoms: C_20  and  O_21
REMARK   12  A    between atoms: O_21  and  C_22
REMARK   13  A    between atoms: C_25  and  O_26
REMARK   14  A    between atoms: O_26  and  C_27
REMARK                            x       y       z     vdW  Elec       q    Type
REMARK                         _______ _______ _______ _____ _____    ______ ____
ROOT
ATOM      1  C   UNL     1       1.380  10.204  18.383  0.00  0.00    +0.000 C 
ATOM      2  O   UNL     1       2.231  11.045  18.109  0.00  0.00    +0.000 OA
ENDROOT
BRANCH   1   6
ATOM      3  C   UNL     1      -2.834  11.150  18.412  0.00  0.00    +0.000 A 
ATOM      4  C   UNL     1      -1.974  11.751  19.344  0.00  0.00    +0.000 A 
ATOM      5  C   UNL     1      -0.604  11.473  19.367  0.00  0.00    +0.000 A 
ATOM      6  C   UNL     1      -0.055  10.586  18.433  0.00  0.00    +0.000 A 
ATOM      7  C   UNL     1      -0.902  10.025  17.470  0.00  0.00    +0.000 A 
ATOM      8  C   UNL     1      -2.285  10.288  17.444  0.00  0.00    +0.000 A 
BRANCH   3  10
ATOM      9  C   UNL     1      -4.664  12.306  19.404  0.00  0.00    +0.000 C 
ATOM     10  O   UNL     1      -4.185  11.397  18.414  0.00  0.00    +0.000 OA
ENDBRANCH   3  10
BRANCH   5  11
ATOM     11  O   UNL     1       0.177  12.103  20.288  0.00  0.00    +0.000 OA
ATOM     12  H   UNL     1       0.408  11.497  21.009  0.00  0.00    +0.000 HD
ENDBRANCH   5  11
BRANCH   8  13
ATOM     13  O   UNL     1      -2.912   9.560  16.474  0.00  0.00    +0.000 OA
ATOM     14  C   UNL     1      -3.041  10.074  15.159  0.00  0.00    +0.000 C 
ENDBRANCH   8  13
ENDBRANCH   1   6
BRANCH   1  15
ATOM     15  C   UNL     1       1.738   8.779  18.609  0.00  0.00    +0.000 C 
ATOM     16  C   UNL     1       2.707   8.202  17.880  0.00  0.00    +0.000 C 
BRANCH  16  17
ATOM     17  C   UNL     1       3.082   6.807  18.118  0.00  0.00    +0.000 A 
ATOM     18  C   UNL     1       4.178   6.256  17.451  0.00  0.00    +0.000 A 
ATOM     19  C   UNL     1       4.535   4.910  17.631  0.00  0.00    +0.000 A 
ATOM     20  C   UNL     1       3.773   4.111  18.506  0.00  0.00    +0.000 A 
ATOM     21  C   UNL     1       2.657   4.675  19.177  0.00  0.00    +0.000 A 
ATOM     22  C   UNL     1       2.323   6.018  18.979  0.00  0.00    +0.000 A 
BRANCH  19  23
ATOM     23  O   UNL     1       5.599   4.344  16.978  0.00  0.00    +0.000 OA
ATOM     24  C   UNL     1       6.913   4.611  17.454  0.00  0.00    +0.000 C 
ENDBRANCH  19  23
BRANCH  20  25
ATOM     25  O   UNL     1       3.972   2.781  18.805  0.00  0.00    +0.000 OA
ATOM     26  C   UNL     1       3.450   1.776  17.955  0.00  0.00    +0.000 C 
ENDBRANCH  20  25
BRANCH  21  27
ATOM     27  O   UNL     1       1.958   3.826  20.004  0.00  0.00    +0.000 OA
ATOM     28  C   UNL     1       2.119   3.980  21.406  0.00  0.00    +0.000 C 
ENDBRANCH  21  27
ENDBRANCH  16  17
ENDBRANCH   1  15
TORSDOF 9
ENDMDL
MODEL 2
REMARK VINA RESULT:      -7.0      1.907      3.238
REMARK  Name = 
REMARK  14 active torsions:
REMARK  status: ('A' for Active; 'I' for Inactive)
REMARK    1  A    between atoms: C_1  and  O_2
REMARK    2  A    between atoms: O_2  and  C_3
REMARK    3  A    between atoms: C_5  and  O_6
REMARK    4  A    between atoms: C_7  and  C_8
REMARK    5  A    between atoms: C_8  and  C_10
REMARK    6  A    between atoms: C_11  and  C_12
REMARK    7  A    between atoms: C_14  and  O_15
REMARK    8  A    between atoms: O_15  and  C_16
REMARK    9  A    between atoms: C_17  and  O_18
REMARK   10  A    between atoms: O_18  and  C_19
REMARK   11  A    between atoms: C_20  and  O_21
REMARK   12  A    between atoms: O_21  and  C_22
REMARK   13  A    between atoms: C_25  and  O_26
REMARK   14  A    between atoms: O_26  and  C_27
REMARK                            x       y       z     vdW  Elec       q    Type
REMARK                         _______ _______ _______ _____ _____    ______ ____
ROOT
ATOM      1  C   UNL     1       0.963   9.222  21.723  0.00  0.00    +0.000 C 
ATOM      2  O   UNL     1       1.723   9.571  22.621  0.00  0.00    +0.000 OA
ENDROOT
BRANCH   1   6
ATOM      3  C   UNL     1      -1.987  11.870  20.009  0.00  0.00    +0.000 A 
ATOM      4  C   UNL     1      -1.692  11.941  21.379  0.00  0.00    +0.000 A 
ATOM      5  C   UNL     1      -0.743  11.103  21.973  0.00  0.00    +0.000 A 
ATOM      6  C   UNL     1      -0.047  10.172  21.192  0.00  0.00    +0.000 A 
ATOM      7  C   UNL     1      -0.302  10.135  19.816  0.00  0.00    +0.000 A 
ATOM      8  C   UNL     1      -1.264  10.965  19.209  0.00  0.00    +0.000 A 
BRANCH   3  10
ATOM      9  C   UNL     1      -4.167  12.816  20.159  0.00  0.00    +0.000 C 
ATOM     10  O   UNL     1      -2.946  12.668  19.435  0.00  0.00    +0.000 OA
ENDBRANCH   3  10
BRANCH   5  11
ATOM     11  O   UNL     1      -0.494  11.237  23.305  0.00  0.00    +0.000 OA
ATOM     12  H   UNL     1       0.381  11.630  23.448  0.00  0.00    +0.000 HD
ENDBRANCH   5  11
BRANCH   8  13
ATOM     13  O   UNL     1      -1.396  10.684  17.880  0.00  0.00    +0.000 OA
ATOM     14  C   UNL     1      -2.414   9.805  17.428  0.00  0.00    +0.000 C 
ENDBRANCH   8  13
ENDBRANCH   1   6
BRANCH   1  15
ATOM     15  C   UNL     1       1.064   7.878  21.097  0.00  0.00    +0.000 C 
ATOM     16  C   UNL     1       2.099   7.581  20.294  0.00  0.00    +0.000 C 
BRANCH  16  17
ATOM     17  C   UNL     1       2.216   6.249  19.698  0.00  0.00    +0.000 A 
ATOM     18  C   UNL     1       1.590   5.158  20.302  0.00  0.00    +0.000 A 
ATOM     19  C   UNL     1       1.719   3.864  19.774  0.00  0.00    +0.000 A 
ATOM     20  C   UNL     1       2.489   3.674  18.609  0.00  0.00    +0.000 A 
ATOM     21  C   UNL     1       3.127   4.786  18.002  0.00  0.00    +0.000 A 
ATOM     22  C   UNL     1       2.983   6.065  18.550  0.00  0.00    +0.000 A 
BRANCH  19  23
ATOM     23  O   UNL     1       1.125   2.775  20.356  0.00  0.00    +0.000 OA
ATOM     24  C   UNL     1       1.491   2.427  21.686  0.00  0.00    +0.000 C 
ENDBRANCH  19  23
BRANCH  20  25
ATOM     25  O   UNL     1       2.726   2.486  17.952  0.00  0.00    +0.000 OA
ATOM     26  C   UNL     1       3.567   1.507  18.535  0.00  0.00    +0.000 C 
ENDBRANCH  20  25
BRANCH  21  27
ATOM     27  O   UNL     1       3.870   4.516  16.876  0.00  0.00    +0.000 OA
ATOM     28  C   UNL     1       4.818   5.485  16.455  0.00  0.00    +0.000 C 
ENDBRANCH  21  27
ENDBRANCH  16  17
ENDBRANCH   1  15
TORSDOF 9
ENDMDL
MODEL 3
REMARK VINA RESULT:      -7.0      5.549      9.264
REMARK  Name = 
REMARK  14 active torsions:
REMARK  status: ('A' for Active; 'I' for Inactive)
REMARK    1  A    between atoms: C_1  and  O_2
REMARK    2  A    between atoms: O_2  and  C_3
REMARK    3  A    between atoms: C_5  and  O_6
REMARK    4  A    between atoms: C_7  and  C_8
REMARK    5  A    between atoms: C_8  and  C_10
REMARK    6  A    between atoms: C_11  and  C_12
REMARK    7  A    between atoms: C_14  and  O_15
REMARK    8  A    between atoms: O_15  and  C_16
REMARK    9  A    between atoms: C_17  and  O_18
REMARK   10  A    between atoms: O_18  and  C_19
REMARK   11  A    between atoms: C_20  and  O_21
REMARK   12  A    between atoms: O_21  and  C_22
REMARK   13  A    between atoms: C_25  and  O_26
REMARK   14  A    between atoms: O_26  and  C_27
REMARK                            x       y       z     vdW  Elec       q    Type
REMARK                         _______ _______ _______ _____ _____    ______ ____
ROOT
ATOM      1  C   UNL     1       7.162   6.969  17.119  0.00  0.00    +0.000 C 
ATOM      2  O   UNL     1       7.827   6.390  16.266  0.00  0.00    +0.000 OA
ENDROOT
BRANCH   1   6
ATOM      3  C   UNL     1       3.685   5.103  18.874  0.00  0.00    +0.000 A 
ATOM      4  C   UNL     1       4.927   4.449  18.912  0.00  0.00    +0.000 A 
ATOM      5  C   UNL     1       6.076   5.019  18.357  0.00  0.00    +0.000 A 
ATOM      6  C   UNL     1       6.010   6.283  17.757  0.00  0.00    +0.000 A 
ATOM      7  C   UNL     1       4.783   6.959  17.763  0.00  0.00    +0.000 A 
ATOM      8  C   UNL     1       3.617   6.389  18.308  0.00  0.00    +0.000 A 
BRANCH   3  10
ATOM      9  C   UNL     1       1.684   3.884  18.451  0.00  0.00    +0.000 C 
ATOM     10  O   UNL     1       2.550   4.524  19.387  0.00  0.00    +0.000 OA
ENDBRANCH   3  10
BRANCH   5  11
ATOM     11  O   UNL     1       7.252   4.338  18.444  0.00  0.00    +0.000 OA
ATOM     12  H   UNL     1       7.937   4.776  17.914  0.00  0.00    +0.000 HD
ENDBRANCH   5  11
BRANCH   8  13
ATOM     13  O   UNL     1       2.533   7.197  18.117  0.00  0.00    +0.000 OA
ATOM     14  C   UNL     1       2.061   8.029  19.164  0.00  0.00    +0.000 C 
ENDBRANCH   8  13
ENDBRANCH   1   6
BRANCH   1  15
ATOM     15  C   UNL     1       7.517   8.334  17.588  0.00  0.00    +0.000 C 
ATOM     16  C   UNL     1       8.588   8.522  18.377  0.00  0.00    +0.000 C 
BRANCH  16  17
ATOM     17  C   UNL     1       8.956   9.868  18.818  0.00  0.00    +0.000 A 
ATOM     18  C   UNL     1       8.967  10.176  20.179  0.00  0.00    +0.000 A 
ATOM     19  C   UNL     1       9.278  11.470  20.627  0.00  0.00    +0.000 A 
ATOM     20  C   UNL     1       9.589  12.466  19.681  0.00  0.00    +0.000 A 
ATOM     21  C   UNL     1       9.571  12.148  18.298  0.00  0.00    +0.000 A 
ATOM     22  C   UNL     1       9.257  10.852  17.879  0.00  0.00    +0.000 A 
BRANCH  19  23
ATOM     23  O   UNL     1       9.284  11.800  21.957  0.00  0.00    +0.000 OA
ATOM     24  C   UNL     1       8.040  11.904  22.641  0.00  0.00    +0.000 C 
ENDBRANCH  19  23
BRANCH  20  25
ATOM     25  O   UNL     1       9.917  13.781  19.932  0.00  0.00    +0.000 OA
ATOM     26  C   UNL     1       8.902  14.719  20.236  0.00  0.00    +0.000 C 
ENDBRANCH  20  25
BRANCH  21  27
ATOM     27  O   UNL     1       9.875  13.178  17.437  0.00  0.00    +0.000 OA
ATOM     28  C   UNL     1      11.150  13.171  16.813  0.00  0.00    +0.000 C 
ENDBRANCH  21  27
ENDBRANCH  16  17
ENDBRANCH   1  15
TORSDOF 9
ENDMDL
MODEL 4
REMARK VINA RESULT:      -7.0      1.879      3.696
REMARK  Name = 
REMARK  14 active torsions:
REMARK  status: ('A' for Active; 'I' for Inactive)
REMARK    1  A    between atoms: C_1  and  O_2
REMARK    2  A    between atoms: O_2  and  C_3
REMARK    3  A    between atoms: C_5  and  O_6
REMARK    4  A    between atoms: C_7  and  C_8
REMARK    5  A    between atoms: C_8  and  C_10
REMARK    6  A    between atoms: C_11  and  C_12
REMARK    7  A    between atoms: C_14  and  O_15
REMARK    8  A    between atoms: O_15  and  C_16
REMARK    9  A    between atoms: C_17  and  O_18
REMARK   10  A    between atoms: O_18  and  C_19
REMARK   11  A    between atoms: C_20  and  O_21
REMARK   12  A    between atoms: O_21  and  C_22
REMARK   13  A    between atoms: C_25  and  O_26
REMARK   14  A    between atoms: O_26  and  C_27
REMARK                            x       y       z     vdW  Elec       q    Type
REMARK                         _______ _______ _______ _____ _____    ______ ____
ROOT
ATOM      1  C   UNL     1       1.543   9.600  18.384  0.00  0.00    +0.000 C 
ATOM      2  O   UNL     1       1.951  10.155  17.368  0.00  0.00    +0.000 OA
ENDROOT
BRANCH   1   6
ATOM      3  C   UNL     1      -1.367  11.483  20.961  0.00  0.00    +0.000 A 
ATOM      4  C   UNL     1      -1.559  11.479  19.570  0.00  0.00    +0.000 A 
ATOM      5  C   UNL     1      -0.642  10.879  18.702  0.00  0.00    +0.000 A 
ATOM      6  C   UNL     1       0.497  10.247  19.216  0.00  0.00    +0.000 A 
ATOM      7  C   UNL     1       0.665  10.206  20.605  0.00  0.00    +0.000 A 
ATOM      8  C   UNL     1      -0.245  10.816  21.489  0.00  0.00    +0.000 A 
BRANCH   3  10
ATOM      9  C   UNL     1      -3.234  12.940  21.202  0.00  0.00    +0.000 C 
ATOM     10  O   UNL     1      -2.250  12.104  21.809  0.00  0.00    +0.000 OA
ENDBRANCH   3  10
BRANCH   5  11
ATOM     11  O   UNL     1      -0.899  10.896  17.365  0.00  0.00    +0.000 OA
ATOM     12  H   UNL     1      -1.643  11.488  17.170  0.00  0.00    +0.000 HD
ENDBRANCH   5  11
BRANCH   8  13
ATOM     13  O   UNL     1       0.178  10.720  22.783  0.00  0.00    +0.000 OA
ATOM     14  C   UNL     1       0.071   9.492  23.485  0.00  0.00    +0.000 C 
ENDBRANCH   8  13
ENDBRANCH   1   6
BRANCH   1  15
ATOM     15  C   UNL     1       2.025   8.251  18.780  0.00  0.00    +0.000 C 
ATOM     16  C   UNL     1       2.687   7.483  17.900  0.00  0.00    +0.000 C 
BRANCH  16  17
ATOM     17  C   UNL     1       3.187   6.165  18.295  0.00  0.00    +0.000 A 
ATOM     18  C   UNL     1       2.297   5.189  18.745  0.00  0.00    +0.000 A 
ATOM     19  C   UNL     1       2.754   3.931  19.168  0.00  0.00    +0.000 A 
ATOM     20  C   UNL     1       4.135   3.655  19.127  0.00  0.00    +0.000 A 
ATOM     21  C   UNL     1       5.035   4.653  18.673  0.00  0.00    +0.000 A 
ATOM     22  C   UNL     1       4.554   5.899  18.259  0.00  0.00    +0.000 A 
BRANCH  19  23
ATOM     23  O   UNL     1       1.901   2.960  19.626  0.00  0.00    +0.000 OA
ATOM     24  C   UNL     1       1.011   2.344  18.704  0.00  0.00    +0.000 C 
ENDBRANCH  19  23
BRANCH  20  25
ATOM     25  O   UNL     1       4.762   2.486  19.499  0.00  0.00    +0.000 OA
ATOM     26  C   UNL     1       4.558   1.951  20.794  0.00  0.00    +0.000 C 
ENDBRANCH  20  25
BRANCH  21  27
ATOM     27  O   UNL     1       6.368   4.310  18.675  0.00  0.00    +0.000 OA
ATOM     28  C   UNL     1       7.318   5.329  18.400  0.00  0.00    +0.000 C 
ENDBRANCH  21  27
ENDBRANCH  16  17
ENDBRANCH   1  15
TORSDOF 9
ENDMDL
MODEL 5
REMARK VINA RESULT:      -6.9      1.044      1.129
REMARK  Name = 
REMARK  14 active torsions:
REMARK  status: ('A' for Active; 'I' for Inactive)
REMARK    1  A    between atoms: C_1  and  O_2
REMARK    2  A    between atoms: O_2  and  C_3
REMARK    3  A    between atoms: C_5  and  O_6
REMARK    4  A    between atoms: C_7  and  C_8
REMARK    5  A    between atoms: C_8  and  C_10
REMARK    6  A    between atoms: C_11  and  C_12
REMARK    7  A    between atoms: C_14  and  O_15
REMARK    8  A    between atoms: O_15  and  C_16
REMARK    9  A    between atoms: C_17  and  O_18
REMARK   10  A    between atoms: O_18  and  C_19
REMARK   11  A    between atoms: C_20  and  O_21
REMARK   12  A    between atoms: O_21  and  C_22
REMARK   13  A    between atoms: C_25  and  O_26
REMARK   14  A    between atoms: O_26  and  C_27
REMARK                            x       y       z     vdW  Elec       q    Type
REMARK                         _______ _______ _______ _____ _____    ______ ____
ROOT
ATOM      1  C   UNL     1       0.577  10.788  18.701  0.00  0.00    +0.000 C 
ATOM      2  O   UNL     1       1.318  11.762  18.800  0.00  0.00    +0.000 OA
ENDROOT
BRANCH   1   6
ATOM      3  C   UNL     1      -3.627  11.174  17.793  0.00  0.00    +0.000 A 
ATOM      4  C   UNL     1      -3.072  11.892  18.863  0.00  0.00    +0.000 A 
ATOM      5  C   UNL     1      -1.716  11.796  19.189  0.00  0.00    +0.000 A 
ATOM      6  C   UNL     1      -0.870  10.979  18.429  0.00  0.00    +0.000 A 
ATOM      7  C   UNL     1      -1.412  10.301  17.330  0.00  0.00    +0.000 A 
ATOM      8  C   UNL     1      -2.778  10.381  16.999  0.00  0.00    +0.000 A 
BRANCH   3  10
ATOM      9  C   UNL     1      -5.864  10.759  18.498  0.00  0.00    +0.000 C 
ATOM     10  O   UNL     1      -4.967  11.241  17.498  0.00  0.00    +0.000 OA
ENDBRANCH   3  10
BRANCH   5  11
ATOM     11  O   UNL     1      -1.239  12.534  20.230  0.00  0.00    +0.000 OA
ATOM     12  H   UNL     1      -0.540  13.135  19.927  0.00  0.00    +0.000 HD
ENDBRANCH   5  11
BRANCH   8  13
ATOM     13  O   UNL     1      -3.083   9.566  15.947  0.00  0.00    +0.000 OA
ATOM     14  C   UNL     1      -3.065  10.066  14.621  0.00  0.00    +0.000 C 
ENDBRANCH   8  13
ENDBRANCH   1   6
BRANCH   1  15
ATOM     15  C   UNL     1       1.102   9.400  18.783  0.00  0.00    +0.000 C 
ATOM     16  C   UNL     1       2.259   9.077  18.181  0.00  0.00    +0.000 C 
BRANCH  16  17
ATOM     17  C   UNL     1       2.792   7.717  18.283  0.00  0.00    +0.000 A 
ATOM     18  C   UNL     1       3.656   7.233  17.299  0.00  0.00    +0.000 A 
ATOM     19  C   UNL     1       4.151   5.920  17.351  0.00  0.00    +0.000 A 
ATOM     20  C   UNL     1       3.770   5.087  18.422  0.00  0.00    +0.000 A 
ATOM     21  C   UNL     1       2.888   5.584  19.416  0.00  0.00    +0.000 A 
ATOM     22  C   UNL     1       2.409   6.895  19.340  0.00  0.00    +0.000 A 
BRANCH  19  23
ATOM     23  O   UNL     1       4.989   5.417  16.391  0.00  0.00    +0.000 OA
ATOM     24  C   UNL     1       6.392   5.597  16.547  0.00  0.00    +0.000 C 
ENDBRANCH  19  23
BRANCH  20  25
ATOM     25  O   UNL     1       4.152   3.781  18.638  0.00  0.00    +0.000 OA
ATOM     26  C   UNL     1       3.613   2.742  17.842  0.00  0.00    +0.000 C 
ENDBRANCH  20  25
BRANCH  21  27
ATOM     27  O   UNL     1       2.555   4.705  20.422  0.00  0.00    +0.000 OA
ATOM     28  C   UNL     1       1.198   4.301  20.530  0.00  0.00    +0.000 C 
ENDBRANCH  21  27
ENDBRANCH  16  17
ENDBRANCH   1  15
TORSDOF 9
ENDMDL
MODEL 6
REMARK VINA RESULT:      -6.9      2.719      8.713
REMARK  Name = 
REMARK  14 active torsions:
REMARK  status: ('A' for Active; 'I' for Inactive)
REMARK    1  A    between atoms: C_1  and  O_2
REMARK    2  A    between atoms: O_2  and  C_3
REMARK    3  A    between atoms: C_5  and  O_6
REMARK    4  A    between atoms: C_7  and  C_8
REMARK    5  A    between atoms: C_8  and  C_10
REMARK    6  A    between atoms: C_11  and  C_12
REMARK    7  A    between atoms: C_14  and  O_15
REMARK    8  A    between atoms: O_15  and  C_16
REMARK    9  A    between atoms: C_17  and  O_18
REMARK   10  A    between atoms: O_18  and  C_19
REMARK   11  A    between atoms: C_20  and  O_21
REMARK   12  A    between atoms: O_21  and  C_22
REMARK   13  A    between atoms: C_25  and  O_26
REMARK   14  A    between atoms: O_26  and  C_27
REMARK                            x       y       z     vdW  Elec       q    Type
REMARK                         _______ _______ _______ _____ _____    ______ ____
ROOT
ATOM      1  C   UNL     1       2.316   4.815  20.065  0.00  0.00    +0.000 C 
ATOM      2  O   UNL     1       1.768   3.833  20.556  0.00  0.00    +0.000 OA
ENDROOT
BRANCH   1   6
ATOM      3  C   UNL     1       5.479   4.301  17.170  0.00  0.00    +0.000 A 
ATOM      4  C   UNL     1       4.142   4.108  16.790  0.00  0.00    +0.000 A 
ATOM      5  C   UNL     1       3.089   4.266  17.696  0.00  0.00    +0.000 A 
ATOM      6  C   UNL     1       3.355   4.641  19.018  0.00  0.00    +0.000 A 
ATOM      7  C   UNL     1       4.684   4.885  19.386  0.00  0.00    +0.000 A 
ATOM      8  C   UNL     1       5.753   4.718  18.486  0.00  0.00    +0.000 A 
BRANCH   3  10
ATOM      9  C   UNL     1       6.156   3.893  14.924  0.00  0.00    +0.000 C 
ATOM     10  O   UNL     1       6.515   4.110  16.288  0.00  0.00    +0.000 OA
ENDBRANCH   3  10
BRANCH   5  11
ATOM     11  O   UNL     1       1.814   4.079  17.256  0.00  0.00    +0.000 OA
ATOM     12  H   UNL     1       1.807   3.898  16.303  0.00  0.00    +0.000 HD
ENDBRANCH   5  11
BRANCH   8  13
ATOM     13  O   UNL     1       6.956   4.926  19.098  0.00  0.00    +0.000 OA
ATOM     14  C   UNL     1       7.702   6.103  18.838  0.00  0.00    +0.000 C 
ENDBRANCH   8  13
ENDBRANCH   1   6
BRANCH   1  15
ATOM     15  C   UNL     1       1.922   6.197  20.446  0.00  0.00    +0.000 C 
ATOM     16  C   UNL     1       1.944   7.182  19.533  0.00  0.00    +0.000 C 
BRANCH  16  17
ATOM     17  C   UNL     1       1.531   8.538  19.897  0.00  0.00    +0.000 A 
ATOM     18  C   UNL     1       1.570   9.558  18.945  0.00  0.00    +0.000 A 
ATOM     19  C   UNL     1       1.218  10.875  19.278  0.00  0.00    +0.000 A 
ATOM     20  C   UNL     1       0.811  11.163  20.596  0.00  0.00    +0.000 A 
ATOM     21  C   UNL     1       0.777  10.123  21.561  0.00  0.00    +0.000 A 
ATOM     22  C   UNL     1       1.135   8.820  21.203  0.00  0.00    +0.000 A 
BRANCH  19  23
ATOM     23  O   UNL     1       1.260  11.896  18.364  0.00  0.00    +0.000 OA
ATOM     24  C   UNL     1       2.473  12.623  18.209  0.00  0.00    +0.000 C 
ENDBRANCH  19  23
BRANCH  20  25
ATOM     25  O   UNL     1       0.431  12.387  21.102  0.00  0.00    +0.000 OA
ATOM     26  C   UNL     1      -0.790  12.976  20.692  0.00  0.00    +0.000 C 
ENDBRANCH  20  25
BRANCH  21  27
ATOM     27  O   UNL     1       0.381  10.487  22.827  0.00  0.00    +0.000 OA
ATOM     28  C   UNL     1      -0.971  10.258  23.194  0.00  0.00    +0.000 C 
ENDBRANCH  21  27
ENDBRANCH  16  17
ENDBRANCH   1  15
TORSDOF 9
ENDMDL
MODEL 7
REMARK VINA RESULT:      -6.9      1.747      2.891
REMARK  Name = 
REMARK  14 active torsions:
REMARK  status: ('A' for Active; 'I' for Inactive)
REMARK    1  A    between atoms: C_1  and  O_2
REMARK    2  A    between atoms: O_2  and  C_3
REMARK    3  A    between atoms: C_5  and  O_6
REMARK    4  A    between atoms: C_7  and  C_8
REMARK    5  A    between atoms: C_8  and  C_10
REMARK    6  A    between atoms: C_11  and  C_12
REMARK    7  A    between atoms: C_14  and  O_15
REMARK    8  A    between atoms: O_15  and  C_16
REMARK    9  A    between atoms: C_17  and  O_18
REMARK   10  A    between atoms: O_18  and  C_19
REMARK   11  A    between atoms: C_20  and  O_21
REMARK   12  A    between atoms: O_21  and  C_22
REMARK   13  A    between atoms: C_25  and  O_26
REMARK   14  A    between atoms: O_26  and  C_27
REMARK                            x       y       z     vdW  Elec       q    Type
REMARK                         _______ _______ _______ _____ _____    ______ ____
ROOT
ATOM      1  C   UNL     1       1.446   9.684  18.446  0.00  0.00    +0.000 C 
ATOM      2  O   UNL     1       1.899  10.246  17.454  0.00  0.00    +0.000 OA
ENDROOT
BRANCH   1   6
ATOM      3  C   UNL     1      -1.475  11.608  20.980  0.00  0.00    +0.000 A 
ATOM      4  C   UNL     1      -1.636  11.625  19.585  0.00  0.00    +0.000 A 
ATOM      5  C   UNL     1      -0.714  11.013  18.731  0.00  0.00    +0.000 A 
ATOM      6  C   UNL     1       0.397  10.347  19.262  0.00  0.00    +0.000 A 
ATOM      7  C   UNL     1       0.532  10.286  20.655  0.00  0.00    +0.000 A 
ATOM      8  C   UNL     1      -0.383  10.908  21.524  0.00  0.00    +0.000 A 
BRANCH   3  10
ATOM      9  C   UNL     1      -2.246  13.661  21.907  0.00  0.00    +0.000 C 
ATOM     10  O   UNL     1      -2.362  12.242  21.815  0.00  0.00    +0.000 OA
ENDBRANCH   3  10
BRANCH   5  11
ATOM     11  O   UNL     1      -0.940  11.052  17.388  0.00  0.00    +0.000 OA
ATOM     12  H   UNL     1      -0.275  11.604  16.949  0.00  0.00    +0.000 HD
ENDBRANCH   5  11
BRANCH   8  13
ATOM     13  O   UNL     1       0.008  10.786  22.827  0.00  0.00    +0.000 OA
ATOM     14  C   UNL     1       0.012   9.518  23.461  0.00  0.00    +0.000 C 
ENDBRANCH   8  13
ENDBRANCH   1   6
BRANCH   1  15
ATOM     15  C   UNL     1       1.874   8.313  18.828  0.00  0.00    +0.000 C 
ATOM     16  C   UNL     1       2.645   7.590  17.999  0.00  0.00    +0.000 C 
BRANCH  16  17
ATOM     17  C   UNL     1       3.092   6.250  18.384  0.00  0.00    +0.000 A 
ATOM     18  C   UNL     1       4.428   5.885  18.210  0.00  0.00    +0.000 A 
ATOM     19  C   UNL     1       4.875   4.593  18.533  0.00  0.00    +0.000 A 
ATOM     20  C   UNL     1       3.954   3.659  19.047  0.00  0.00    +0.000 A 
ATOM     21  C   UNL     1       2.596   4.035  19.217  0.00  0.00    +0.000 A 
ATOM     22  C   UNL     1       2.177   5.327  18.886  0.00  0.00    +0.000 A 
BRANCH  19  23
ATOM     23  O   UNL     1       6.178   4.207  18.360  0.00  0.00    +0.000 OA
ATOM     24  C   UNL     1       7.205   5.178  18.521  0.00  0.00    +0.000 C 
ENDBRANCH  19  23
BRANCH  20  25
ATOM     25  O   UNL     1       4.208   2.357  19.418  0.00  0.00    +0.000 OA
ATOM     26  C   UNL     1       3.914   1.295  18.528  0.00  0.00    +0.000 C 
ENDBRANCH  20  25
BRANCH  21  27
ATOM     27  O   UNL     1       1.758   3.062  19.712  0.00  0.00    +0.000 OA
ATOM     28  C   UNL     1       1.249   3.228  21.027  0.00  0.00    +0.000 C 
ENDBRANCH  21  27
ENDBRANCH  16  17
ENDBRANCH   1  15
TORSDOF 9
ENDMDL
MODEL 8
REMARK VINA RESULT:      -6.8      1.125      2.431
REMARK  Name = 
REMARK  14 active torsions:
REMARK  status: ('A' for Active; 'I' for Inactive)
REMARK    1  A    between atoms: C_1  and  O_2
REMARK    2  A    between atoms: O_2  and  C_3
REMARK    3  A    between atoms: C_5  and  O_6
REMARK    4  A    between atoms: C_7  and  C_8
REMARK    5  A    between atoms: C_8  and  C_10
REMARK    6  A    between atoms: C_11  and  C_12
REMARK    7  A    between atoms: C_14  and  O_15
REMARK    8  A    between atoms: O_15  and  C_16
REMARK    9  A    between atoms: C_17  and  O_18
REMARK   10  A    between atoms: O_18  and  C_19
REMARK   11  A    between atoms: C_20  and  O_21
REMARK   12  A    between atoms: O_21  and  C_22
REMARK   13  A    between atoms: C_25  and  O_26
REMARK   14  A    between atoms: O_26  and  C_27
REMARK                            x       y       z     vdW  Elec       q    Type
REMARK                         _______ _______ _______ _____ _____    ______ ____
ROOT
ATOM      1  C   UNL     1       0.749  10.014  18.461  0.00  0.00    +0.000 C 
ATOM      2  O   UNL     1       1.587  10.821  18.851  0.00  0.00    +0.000 OA
ENDROOT
BRANCH   1   6
ATOM      3  C   UNL     1      -3.349  11.118  17.659  0.00  0.00    +0.000 A 
ATOM      4  C   UNL     1      -2.668  11.688  18.747  0.00  0.00    +0.000 A 
ATOM      5  C   UNL     1      -1.341  11.359  19.039  0.00  0.00    +0.000 A 
ATOM      6  C   UNL     1      -0.652  10.449  18.228  0.00  0.00    +0.000 A 
ATOM      7  C   UNL     1      -1.312   9.919  17.113  0.00  0.00    +0.000 A 
ATOM      8  C   UNL     1      -2.651  10.234  16.816  0.00  0.00    +0.000 A 
BRANCH   3  10
ATOM      9  C   UNL     1      -5.627  10.911  18.319  0.00  0.00    +0.000 C 
ATOM     10  O   UNL     1      -4.663  11.416  17.395  0.00  0.00    +0.000 OA
ENDBRANCH   3  10
BRANCH   5  11
ATOM     11  O   UNL     1      -0.736  11.962  20.099  0.00  0.00    +0.000 OA
ATOM     12  H   UNL     1      -1.199  12.781  20.334  0.00  0.00    +0.000 HD
ENDBRANCH   5  11
BRANCH   8  13
ATOM     13  O   UNL     1      -3.101   9.527  15.737  0.00  0.00    +0.000 OA
ATOM     14  C   UNL     1      -3.157  10.130  14.455  0.00  0.00    +0.000 C 
ENDBRANCH   8  13
ENDBRANCH   1   6
BRANCH   1  15
ATOM     15  C   UNL     1       1.110   8.606  18.148  0.00  0.00    +0.000 C 
ATOM     16  C   UNL     1       2.372   8.178  18.320  0.00  0.00    +0.000 C 
BRANCH  16  17
ATOM     17  C   UNL     1       2.726   6.785  18.039  0.00  0.00    +0.000 A 
ATOM     18  C   UNL     1       1.743   5.794  18.084  0.00  0.00    +0.000 A 
ATOM     19  C   UNL     1       2.062   4.446  17.859  0.00  0.00    +0.000 A 
ATOM     20  C   UNL     1       3.398   4.096  17.576  0.00  0.00    +0.000 A 
ATOM     21  C   UNL     1       4.392   5.107  17.537  0.00  0.00    +0.000 A 
ATOM     22  C   UNL     1       4.048   6.443  17.767  0.00  0.00    +0.000 A 
BRANCH  19  23
ATOM     23  O   UNL     1       1.119   3.454  17.910  0.00  0.00    +0.000 OA
ATOM     24  C   UNL     1       0.705   2.969  19.182  0.00  0.00    +0.000 C 
ENDBRANCH  19  23
BRANCH  20  25
ATOM     25  O   UNL     1       3.894   2.835  17.330  0.00  0.00    +0.000 OA
ATOM     26  C   UNL     1       3.902   1.862  18.358  0.00  0.00    +0.000 C 
ENDBRANCH  20  25
BRANCH  21  27
ATOM     27  O   UNL     1       5.674   4.684  17.266  0.00  0.00    +0.000 OA
ATOM     28  C   UNL     1       6.656   4.846  18.278  0.00  0.00    +0.000 C 
ENDBRANCH  21  27
ENDBRANCH  16  17
ENDBRANCH   1  15
TORSDOF 9
ENDMDL
MODEL 9
REMARK VINA RESULT:      -6.8      1.504      2.752
REMARK  Name = 
REMARK  14 active torsions:
REMARK  status: ('A' for Active; 'I' for Inactive)
REMARK    1  A    between atoms: C_1  and  O_2
REMARK    2  A    between atoms: O_2  and  C_3
REMARK    3  A    between atoms: C_5  and  O_6
REMARK    4  A    between atoms: C_7  and  C_8
REMARK    5  A    between atoms: C_8  and  C_10
REMARK    6  A    between atoms: C_11  and  C_12
REMARK    7  A    between atoms: C_14  and  O_15
REMARK    8  A    between atoms: O_15  and  C_16
REMARK    9  A    between atoms: C_17  and  O_18
REMARK   10  A    between atoms: O_18  and  C_19
REMARK   11  A    between atoms: C_20  and  O_21
REMARK   12  A    between atoms: O_21  and  C_22
REMARK   13  A    between atoms: C_25  and  O_26
REMARK   14  A    between atoms: O_26  and  C_27
REMARK                            x       y       z     vdW  Elec       q    Type
REMARK                         _______ _______ _______ _____ _____    ______ ____
ROOT
ATOM      1  C   UNL     1       1.738   9.946  18.182  0.00  0.00    +0.000 C 
ATOM      2  O   UNL     1       2.401  10.586  17.371  0.00  0.00    +0.000 OA
ENDROOT
BRANCH   1   6
ATOM      3  C   UNL     1      -1.543  11.881  20.218  0.00  0.00    +0.000 A 
ATOM      4  C   UNL     1      -1.776  11.167  19.032  0.00  0.00    +0.000 A 
ATOM      5  C   UNL     1      -0.742  10.525  18.344  0.00  0.00    +0.000 A 
ATOM      6  C   UNL     1       0.565  10.572  18.844  0.00  0.00    +0.000 A 
ATOM      7  C   UNL     1       0.792  11.242  20.053  0.00  0.00    +0.000 A 
ATOM      8  C   UNL     1      -0.240  11.901  20.748  0.00  0.00    +0.000 A 
BRANCH   3  10
ATOM      9  C   UNL     1      -3.778  12.701  20.156  0.00  0.00    +0.000 C 
ATOM     10  O   UNL     1      -2.553  12.542  20.872  0.00  0.00    +0.000 OA
ENDBRANCH   3  10
BRANCH   5  11
ATOM     11  O   UNL     1      -1.041   9.834  17.209  0.00  0.00    +0.000 OA
ATOM     12  H   UNL     1      -0.240   9.433  16.836  0.00  0.00    +0.000 HD
ENDBRANCH   5  11
BRANCH   8  13
ATOM     13  O   UNL     1       0.241  12.554  21.847  0.00  0.00    +0.000 OA
ATOM     14  C   UNL     1       0.566  13.933  21.780  0.00  0.00    +0.000 C 
ENDBRANCH   8  13
ENDBRANCH   1   6
BRANCH   1  15
ATOM     15  C   UNL     1       2.040   8.522  18.482  0.00  0.00    +0.000 C 
ATOM     16  C   UNL     1       2.995   7.873  17.796  0.00  0.00    +0.000 C 
BRANCH  16  17
ATOM     17  C   UNL     1       3.313   6.479  18.108  0.00  0.00    +0.000 A 
ATOM     18  C   UNL     1       4.645   6.062  18.155  0.00  0.00    +0.000 A 
ATOM     19  C   UNL     1       4.977   4.722  18.411  0.00  0.00    +0.000 A 
ATOM     20  C   UNL     1       3.943   3.791  18.631  0.00  0.00    +0.000 A 
ATOM     21  C   UNL     1       2.591   4.219  18.577  0.00  0.00    +0.000 A 
ATOM     22  C   UNL     1       2.288   5.560  18.318  0.00  0.00    +0.000 A 
BRANCH  19  23
ATOM     23  O   UNL     1       6.275   4.286  18.451  0.00  0.00    +0.000 OA
ATOM     24  C   UNL     1       7.308   5.179  18.049  0.00  0.00    +0.000 C 
ENDBRANCH  19  23
BRANCH  20  25
ATOM     25  O   UNL     1       4.076   2.445  18.896  0.00  0.00    +0.000 OA
ATOM     26  C   UNL     1       4.469   2.011  20.185  0.00  0.00    +0.000 C 
ENDBRANCH  20  25
BRANCH  21  27
ATOM     27  O   UNL     1       1.640   3.248  18.790  0.00  0.00    +0.000 OA
ATOM     28  C   UNL     1       0.855   3.332  19.970  0.00  0.00    +0.000 C 
ENDBRANCH  21  27
ENDBRANCH  16  17
ENDBRANCH   1  15
TORSDOF 9
ENDMDL
