MODEL 1
REMARK VINA RESULT:      -7.8      0.000      0.000
REMARK  Name = 
REMARK  10 active torsions:
REMARK  status: ('A' for Active; 'I' for Inactive)
REMARK    1  A    between atoms: N_3  and  C_4
REMARK    2  A    between atoms: C_4  and  C_5
REMARK    3  A    between atoms: C_5  and  C_6
REMARK    4  A    between atoms: C_6  and  C_7
REMARK    5  A    between atoms: C_7  and  C_8
REMARK    6  A    between atoms: C_8  and  C_9
REMARK    7  A    between atoms: N_11  and  C_12
REMARK    8  A    between atoms: C_15  and  C_16
REMARK    9  A    between atoms: N_18  and  C_19
REMARK   10  A    between atoms: N_27  and  N_28
REMARK                            x       y       z     vdW  Elec       q    Type
REMARK                         _______ _______ _______ _____ _____    ______ ____
ROOT
ATOM      1  C   UNL     1       7.950   8.109  17.879  0.00  0.00    +0.000 C 
ATOM      2  O   UNL     1       8.532   7.401  18.687  0.00  0.00    +0.000 OA
ATOM      3  N   UNL     1       7.263   7.558  16.841  0.00  0.00    +0.000 N 
ATOM      4  H   UNL     1       6.810   8.187  16.159  0.00  0.00    +0.000 HD
ENDROOT
BRANCH   3   5
ATOM      5  C   UNL     1       7.161   6.122  16.634  0.00  0.00    +0.000 C 
ATOM      6  C   UNL     1       6.018   5.744  15.709  0.00  0.00    +0.000 C 
ATOM      7  N   UNL     1       5.888   4.296  15.869  0.00  0.00    +0.000 NA
ATOM      8  C   UNL     1       6.174   4.056  17.298  0.00  0.00    +0.000 C 
ATOM      9  C   UNL     1       6.742   5.368  17.879  0.00  0.00    +0.000 C 
ATOM     10  H   UNL     1       6.653   3.854  15.305  0.00  0.00    +0.000 HD
BRANCH   8  11
ATOM     11  C   UNL     1       4.886   3.661  17.984  0.00  0.00    +0.000 C 
ATOM     12  O   UNL     1       4.129   2.899  17.396  0.00  0.00    +0.000 OA
ATOM     13  N   UNL     1       4.537   4.173  19.196  0.00  0.00    +0.000 N 
ATOM     14  H   UNL     1       5.115   4.925  19.600  0.00  0.00    +0.000 HD
BRANCH  13  15
ATOM     15  C   UNL     1       3.332   3.795  19.864  0.00  0.00    +0.000 A 
ATOM     16  C   UNL     1       3.336   2.774  20.837  0.00  0.00    +0.000 A 
ATOM     17  C   UNL     1       2.155   2.409  21.489  0.00  0.00    +0.000 A 
ATOM     18  C   UNL     1       0.954   3.040  21.161  0.00  0.00    +0.000 A 
ATOM     19  C   UNL     1       0.935   4.048  20.195  0.00  0.00    +0.000 A 
ATOM     20  C   UNL     1       2.119   4.440  19.556  0.00  0.00    +0.000 A 
ATOM     21 CL   UNL     1       2.043   5.692  18.323  0.00  0.00    +0.000 Cl
ENDBRANCH  13  15
ENDBRANCH   8  11
ENDBRANCH   3   5
BRANCH   1  22
ATOM     22  C   UNL     1       8.030   9.609  18.018  0.00  0.00    +0.000 C 
BRANCH  22  23
ATOM     23  C   UNL     1       9.205  10.035  18.917  0.00  0.00    +0.000 C 
BRANCH  23  24
ATOM     24  C   UNL     1      10.126  11.072  18.245  0.00  0.00    +0.000 C 
BRANCH  24  25
ATOM     25  C   UNL     1      10.432  12.324  19.105  0.00  0.00    +0.000 C 
BRANCH  25  26
ATOM     26  C   UNL     1      10.479  13.629  18.295  0.00  0.00    +0.000 C 
BRANCH  26  29
ATOM     27  N   UNL     1       7.238  15.091  17.327  0.00  0.00    +0.000 NA
ATOM     28  C   UNL     1       8.373  14.989  17.932  0.00  0.00    +0.000 C 
ATOM     29  N   UNL     1       9.211  13.866  17.636  0.00  0.00    +0.000 N 
ATOM     30  N   UNL     1       8.769  15.979  18.883  0.00  0.00    +0.000 N 
ATOM     31  H   UNL     1       6.921  14.391  16.642  0.00  0.00    +0.000 HD
ATOM     32  H   UNL     1       8.872  13.173  16.946  0.00  0.00    +0.000 HD
ATOM     33  H   UNL     1       9.677  15.876  19.362  0.00  0.00    +0.000 HD
BRANCH  30  34
ATOM     34  N   UNL     1       8.003  17.085  19.209  0.00  0.00    +0.000 N 
ATOM     35  O   UNL     1       7.724  17.910  18.391  0.00  0.00    +0.000 OA
ATOM     36  O   UNL     1       7.573  17.238  20.439  0.00  0.00    +0.000 OA
ENDBRANCH  30  34
ENDBRANCH  26  29
ENDBRANCH  25  26
ENDBRANCH  24  25
ENDBRANCH  23  24
ENDBRANCH  22  23
ENDBRANCH   1  22
TORSDOF 10
ENDMDL
MODEL 2
REMARK VINA RESULT:      -7.8      5.124     10.509
REMARK  Name = 
REMARK  10 active torsions:
REMARK  status: ('A' for Active; 'I' for Inactive)
REMARK    1  A    between atoms: N_3  and  C_4
REMARK    2  A    between atoms: C_4  and  C_5
REMARK    3  A    between atoms: C_5  and  C_6
REMARK    4  A    between atoms: C_6  and  C_7
REMARK    5  A    between atoms: C_7  and  C_8
REMARK    6  A    between atoms: C_8  and  C_9
REMARK    7  A    between atoms: N_11  and  C_12
REMARK    8  A    between atoms: C_15  and  C_16
REMARK    9  A    between atoms: N_18  and  C_19
REMARK   10  A    between atoms: N_27  and  N_28
REMARK                            x       y       z     vdW  Elec       q    Type
REMARK                         _______ _______ _______ _____ _____    ______ ____
ROOT
ATOM      1  C   UNL     1       2.298   6.107  19.547  0.00  0.00    +0.000 C 
ATOM      2  O   UNL     1       2.055   5.707  18.419  0.00  0.00    +0.000 OA
ATOM      3  N   UNL     1       2.038   7.396  19.898  0.00  0.00    +0.000 N 
ATOM      4  H   UNL     1       2.285   7.708  20.850  0.00  0.00    +0.000 HD
ENDROOT
BRANCH   3   5
ATOM      5  C   UNL     1       1.449   8.361  18.982  0.00  0.00    +0.000 C 
ATOM      6  C   UNL     1       2.466   8.954  18.025  0.00  0.00    +0.000 C 
ATOM      7  N   UNL     1       1.772  10.088  17.417  0.00  0.00    +0.000 NA
ATOM      8  C   UNL     1       0.945  10.642  18.508  0.00  0.00    +0.000 C 
ATOM      9  C   UNL     1       0.977   9.625  19.669  0.00  0.00    +0.000 C 
ATOM     10  H   UNL     1       1.129   9.700  16.686  0.00  0.00    +0.000 HD
BRANCH   8  11
ATOM     11  C   UNL     1       1.531  11.973  18.924  0.00  0.00    +0.000 C 
ATOM     12  O   UNL     1       1.710  12.178  20.118  0.00  0.00    +0.000 OA
ATOM     13  N   UNL     1       1.806  12.947  18.013  0.00  0.00    +0.000 N 
ATOM     14  H   UNL     1       1.507  12.808  17.036  0.00  0.00    +0.000 HD
BRANCH  13  15
ATOM     15  C   UNL     1       2.377  14.201  18.389  0.00  0.00    +0.000 A 
ATOM     16  C   UNL     1       3.776  14.376  18.423  0.00  0.00    +0.000 A 
ATOM     17  C   UNL     1       4.329  15.606  18.789  0.00  0.00    +0.000 A 
ATOM     18  C   UNL     1       3.496  16.666  19.148  0.00  0.00    +0.000 A 
ATOM     19  C   UNL     1       2.110  16.505  19.124  0.00  0.00    +0.000 A 
ATOM     20  C   UNL     1       1.545  15.284  18.731  0.00  0.00    +0.000 A 
ATOM     21 CL   UNL     1      -0.206  15.115  18.747  0.00  0.00    +0.000 Cl
ENDBRANCH  13  15
ENDBRANCH   8  11
ENDBRANCH   3   5
BRANCH   1  22
ATOM     22  C   UNL     1       2.929   5.167  20.544  0.00  0.00    +0.000 C 
BRANCH  22  23
ATOM     23  C   UNL     1       1.970   4.029  20.939  0.00  0.00    +0.000 C 
BRANCH  23  24
ATOM     24  C   UNL     1       2.441   2.649  20.438  0.00  0.00    +0.000 C 
BRANCH  24  25
ATOM     25  C   UNL     1       1.830   2.205  19.086  0.00  0.00    +0.000 C 
BRANCH  25  26
ATOM     26  C   UNL     1       2.834   2.223  17.923  0.00  0.00    +0.000 C 
BRANCH  26  29
ATOM     27  N   UNL     1       6.091   3.906  18.299  0.00  0.00    +0.000 NA
ATOM     28  C   UNL     1       4.903   3.683  17.847  0.00  0.00    +0.000 C 
ATOM     29  N   UNL     1       4.154   2.591  18.394  0.00  0.00    +0.000 N 
ATOM     30  N   UNL     1       4.362   4.510  16.814  0.00  0.00    +0.000 N 
ATOM     31  H   UNL     1       6.511   3.325  19.037  0.00  0.00    +0.000 HD
ATOM     32  H   UNL     1       4.596   2.018  19.133  0.00  0.00    +0.000 HD
ATOM     33  H   UNL     1       3.413   4.311  16.461  0.00  0.00    +0.000 HD
BRANCH  30  34
ATOM     34  N   UNL     1       5.037   5.578  16.249  0.00  0.00    +0.000 N 
ATOM     35  O   UNL     1       5.948   5.410  15.496  0.00  0.00    +0.000 OA
ATOM     36  O   UNL     1       4.673   6.805  16.544  0.00  0.00    +0.000 OA
ENDBRANCH  30  34
ENDBRANCH  26  29
ENDBRANCH  25  26
ENDBRANCH  24  25
ENDBRANCH  23  24
ENDBRANCH  22  23
ENDBRANCH   1  22
TORSDOF 10
ENDMDL
MODEL 3
REMARK VINA RESULT:      -7.7      7.101     10.196
REMARK  Name = 
REMARK  10 active torsions:
REMARK  status: ('A' for Active; 'I' for Inactive)
REMARK    1  A    between atoms: N_3  and  C_4
REMARK    2  A    between atoms: C_4  and  C_5
REMARK    3  A    between atoms: C_5  and  C_6
REMARK    4  A    between atoms: C_6  and  C_7
REMARK    5  A    between atoms: C_7  and  C_8
REMARK    6  A    between atoms: C_8  and  C_9
REMARK    7  A    between atoms: N_11  and  C_12
REMARK    8  A    between atoms: C_15  and  C_16
REMARK    9  A    between atoms: N_18  and  C_19
REMARK   10  A    between atoms: N_27  and  N_28
REMARK                            x       y       z     vdW  Elec       q    Type
REMARK                         _______ _______ _______ _____ _____    ______ ____
ROOT
ATOM      1  C   UNL     1       2.218   8.310  18.230  0.00  0.00    +0.000 C 
ATOM      2  O   UNL     1       2.684   8.777  17.202  0.00  0.00    +0.000 OA
ATOM      3  N   UNL     1       1.273   8.991  18.936  0.00  0.00    +0.000 N 
ATOM      4  H   UNL     1       0.925   8.581  19.817  0.00  0.00    +0.000 HD
ENDROOT
BRANCH   3   5
ATOM      5  C   UNL     1       0.751  10.283  18.516  0.00  0.00    +0.000 C 
ATOM      6  C   UNL     1       0.557  11.240  19.678  0.00  0.00    +0.000 C 
ATOM      7  N   UNL     1      -0.238  12.331  19.118  0.00  0.00    +0.000 NA
ATOM      8  C   UNL     1      -1.156  11.669  18.169  0.00  0.00    +0.000 C 
ATOM      9  C   UNL     1      -0.671  10.213  18.002  0.00  0.00    +0.000 C 
ATOM     10  H   UNL     1       0.416  12.938  18.568  0.00  0.00    +0.000 HD
BRANCH   8  11
ATOM     11  C   UNL     1      -2.555  11.722  18.742  0.00  0.00    +0.000 C 
ATOM     12  O   UNL     1      -3.368  10.891  18.358  0.00  0.00    +0.000 OA
ATOM     13  N   UNL     1      -2.930  12.694  19.618  0.00  0.00    +0.000 N 
ATOM     14  H   UNL     1      -2.276  13.467  19.808  0.00  0.00    +0.000 HD
BRANCH  13  15
ATOM     15  C   UNL     1      -4.242  12.745  20.181  0.00  0.00    +0.000 A 
ATOM     16  C   UNL     1      -5.378  12.872  19.355  0.00  0.00    +0.000 A 
ATOM     17  C   UNL     1      -6.659  12.921  19.912  0.00  0.00    +0.000 A 
ATOM     18  C   UNL     1      -6.820  12.867  21.296  0.00  0.00    +0.000 A 
ATOM     19  C   UNL     1      -5.704  12.747  22.126  0.00  0.00    +0.000 A 
ATOM     20  C   UNL     1      -4.417  12.670  21.576  0.00  0.00    +0.000 A 
ATOM     21 CL   UNL     1      -3.037  12.552  22.660  0.00  0.00    +0.000 Cl
ENDBRANCH  13  15
ENDBRANCH   8  11
ENDBRANCH   3   5
BRANCH   1  22
ATOM     22  C   UNL     1       2.727   6.984  18.737  0.00  0.00    +0.000 C 
BRANCH  22  23
ATOM     23  C   UNL     1       2.157   5.807  17.923  0.00  0.00    +0.000 C 
BRANCH  23  24
ATOM     24  C   UNL     1       3.197   4.700  17.664  0.00  0.00    +0.000 C 
BRANCH  24  25
ATOM     25  C   UNL     1       3.552   3.839  18.901  0.00  0.00    +0.000 C 
BRANCH  25  26
ATOM     26  C   UNL     1       4.933   4.158  19.495  0.00  0.00    +0.000 C 
BRANCH  26  29
ATOM     27  N   UNL     1       7.786   4.266  17.165  0.00  0.00    +0.000 NA
ATOM     28  C   UNL     1       6.911   4.700  18.008  0.00  0.00    +0.000 C 
ATOM     29  N   UNL     1       5.986   3.768  18.580  0.00  0.00    +0.000 N 
ATOM     30  N   UNL     1       6.871   6.088  18.349  0.00  0.00    +0.000 N 
ATOM     31  H   UNL     1       7.835   3.274  16.894  0.00  0.00    +0.000 HD
ATOM     32  H   UNL     1       6.052   2.776  18.291  0.00  0.00    +0.000 HD
ATOM     33  H   UNL     1       6.159   6.416  19.020  0.00  0.00    +0.000 HD
BRANCH  30  34
ATOM     34  N   UNL     1       7.739   7.033  17.831  0.00  0.00    +0.000 N 
ATOM     35  O   UNL     1       8.353   7.769  18.544  0.00  0.00    +0.000 OA
ATOM     36  O   UNL     1       7.895   7.129  16.531  0.00  0.00    +0.000 OA
ENDBRANCH  30  34
ENDBRANCH  26  29
ENDBRANCH  25  26
ENDBRANCH  24  25
ENDBRANCH  23  24
ENDBRANCH  22  23
ENDBRANCH   1  22
TORSDOF 10
ENDMDL
MODEL 4
REMARK VINA RESULT:      -7.7      7.245     11.020
REMARK  Name = 
REMARK  10 active torsions:
REMARK  status: ('A' for Active; 'I' for Inactive)
REMARK    1  A    between atoms: N_3  and  C_4
REMARK    2  A    between atoms: C_4  and  C_5
REMARK    3  A    between atoms: C_5  and  C_6
REMARK    4  A    between atoms: C_6  and  C_7
REMARK    5  A    between atoms: C_7  and  C_8
REMARK    6  A    between atoms: C_8  and  C_9
REMARK    7  A    between atoms: N_11  and  C_12
REMARK    8  A    between atoms: C_15  and  C_16
REMARK    9  A    between atoms: N_18  and  C_19
REMARK   10  A    between atoms: N_27  and  N_28
REMARK                            x       y       z     vdW  Elec       q    Type
REMARK                         _______ _______ _______ _____ _____    ______ ____
ROOT
ATOM      1  C   UNL     1       2.218   8.445  18.403  0.00  0.00    +0.000 C 
ATOM      2  O   UNL     1       2.599   8.902  17.336  0.00  0.00    +0.000 OA
ATOM      3  N   UNL     1       1.302   9.113  19.158  0.00  0.00    +0.000 N 
ATOM      4  H   UNL     1       1.027   8.713  20.069  0.00  0.00    +0.000 HD
ENDROOT
BRANCH   3   5
ATOM      5  C   UNL     1       0.712  10.378  18.748  0.00  0.00    +0.000 C 
ATOM      6  C   UNL     1       0.192  11.188  19.921  0.00  0.00    +0.000 C 
ATOM      7  N   UNL     1      -0.614  12.240  19.305  0.00  0.00    +0.000 NA
ATOM      8  C   UNL     1      -1.254  11.583  18.146  0.00  0.00    +0.000 C 
ATOM      9  C   UNL     1      -0.572  10.211  17.963  0.00  0.00    +0.000 C 
ATOM     10  H   UNL     1       0.050  12.965  18.942  0.00  0.00    +0.000 HD
BRANCH   8  11
ATOM     11  C   UNL     1      -2.730  11.431  18.439  0.00  0.00    +0.000 C 
ATOM     12  O   UNL     1      -3.252  10.344  18.226  0.00  0.00    +0.000 OA
ATOM     13  N   UNL     1      -3.483  12.479  18.873  0.00  0.00    +0.000 N 
ATOM     14  H   UNL     1      -3.056  13.417  18.900  0.00  0.00    +0.000 HD
BRANCH  13  15
ATOM     15  C   UNL     1      -4.873  12.345  19.171  0.00  0.00    +0.000 A 
ATOM     16  C   UNL     1      -5.818  12.161  18.140  0.00  0.00    +0.000 A 
ATOM     17  C   UNL     1      -7.177  12.029  18.438  0.00  0.00    +0.000 A 
ATOM     18  C   UNL     1      -7.612  12.103  19.761  0.00  0.00    +0.000 A 
ATOM     19  C   UNL     1      -6.688  12.290  20.791  0.00  0.00    +0.000 A 
ATOM     20  C   UNL     1      -5.320  12.396  20.506  0.00  0.00    +0.000 A 
ATOM     21 CL   UNL     1      -4.195  12.664  21.830  0.00  0.00    +0.000 Cl
ENDBRANCH  13  15
ENDBRANCH   8  11
ENDBRANCH   3   5
BRANCH   1  22
ATOM     22  C   UNL     1       2.803   7.147  18.902  0.00  0.00    +0.000 C 
BRANCH  22  23
ATOM     23  C   UNL     1       3.194   6.216  17.740  0.00  0.00    +0.000 C 
BRANCH  23  24
ATOM     24  C   UNL     1       4.559   6.574  17.121  0.00  0.00    +0.000 C 
BRANCH  24  25
ATOM     25  C   UNL     1       5.713   5.608  17.486  0.00  0.00    +0.000 C 
BRANCH  25  26
ATOM     26  C   UNL     1       5.728   5.203  18.968  0.00  0.00    +0.000 C 
BRANCH  26  29
ATOM     27  N   UNL     1       4.884   1.724  19.844  0.00  0.00    +0.000 NA
ATOM     28  C   UNL     1       4.733   3.001  19.728  0.00  0.00    +0.000 C 
ATOM     29  N   UNL     1       5.774   3.761  19.103  0.00  0.00    +0.000 N 
ATOM     30  N   UNL     1       3.551   3.630  20.226  0.00  0.00    +0.000 N 
ATOM     31  H   UNL     1       5.727   1.242  19.502  0.00  0.00    +0.000 HD
ATOM     32  H   UNL     1       6.613   3.257  18.769  0.00  0.00    +0.000 HD
ATOM     33  H   UNL     1       3.452   4.653  20.129  0.00  0.00    +0.000 HD
BRANCH  30  34
ATOM     34  N   UNL     1       2.512   2.948  20.836  0.00  0.00    +0.000 N 
ATOM     35  O   UNL     1       1.459   2.803  20.291  0.00  0.00    +0.000 OA
ATOM     36  O   UNL     1       2.681   2.449  22.038  0.00  0.00    +0.000 OA
ENDBRANCH  30  34
ENDBRANCH  26  29
ENDBRANCH  25  26
ENDBRANCH  24  25
ENDBRANCH  23  24
ENDBRANCH  22  23
ENDBRANCH   1  22
TORSDOF 10
ENDMDL
MODEL 5
REMARK VINA RESULT:      -7.6      1.285      1.603
REMARK  Name = 
REMARK  10 active torsions:
REMARK  status: ('A' for Active; 'I' for Inactive)
REMARK    1  A    between atoms: N_3  and  C_4
REMARK    2  A    between atoms: C_4  and  C_5
REMARK    3  A    between atoms: C_5  and  C_6
REMARK    4  A    between atoms: C_6  and  C_7
REMARK    5  A    between atoms: C_7  and  C_8
REMARK    6  A    between atoms: C_8  and  C_9
REMARK    7  A    between atoms: N_11  and  C_12
REMARK    8  A    between atoms: C_15  and  C_16
REMARK    9  A    between atoms: N_18  and  C_19
REMARK   10  A    between atoms: N_27  and  N_28
REMARK                            x       y       z     vdW  Elec       q    Type
REMARK                         _______ _______ _______ _____ _____    ______ ____
ROOT
ATOM      1  C   UNL     1       8.161   8.495  17.989  0.00  0.00    +0.000 C 
ATOM      2  O   UNL     1       7.565   9.007  17.054  0.00  0.00    +0.000 OA
ATOM      3  N   UNL     1       8.165   7.144  18.154  0.00  0.00    +0.000 N 
ATOM      4  H   UNL     1       8.652   6.747  18.973  0.00  0.00    +0.000 HD
ENDROOT
BRANCH   3   5
ATOM      5  C   UNL     1       7.490   6.234  17.241  0.00  0.00    +0.000 C 
ATOM      6  C   UNL     1       6.135   6.753  16.795  0.00  0.00    +0.000 C 
ATOM      7  N   UNL     1       5.500   5.601  16.155  0.00  0.00    +0.000 NA
ATOM      8  C   UNL     1       5.942   4.443  16.959  0.00  0.00    +0.000 C 
ATOM      9  C   UNL     1       7.064   4.937  17.897  0.00  0.00    +0.000 C 
ATOM     10  H   UNL     1       5.918   5.511  15.198  0.00  0.00    +0.000 HD
BRANCH   8  11
ATOM     11  C   UNL     1       4.757   3.924  17.741  0.00  0.00    +0.000 C 
ATOM     12  O   UNL     1       4.041   3.082  17.215  0.00  0.00    +0.000 OA
ATOM     13  N   UNL     1       4.448   4.411  18.975  0.00  0.00    +0.000 N 
ATOM     14  H   UNL     1       4.974   5.222  19.331  0.00  0.00    +0.000 HD
BRANCH  13  15
ATOM     15  C   UNL     1       3.343   3.917  19.733  0.00  0.00    +0.000 A 
ATOM     16  C   UNL     1       3.536   2.960  20.751  0.00  0.00    +0.000 A 
ATOM     17  C   UNL     1       2.451   2.482  21.491  0.00  0.00    +0.000 A 
ATOM     18  C   UNL     1       1.161   2.934  21.209  0.00  0.00    +0.000 A 
ATOM     19  C   UNL     1       0.956   3.877  20.200  0.00  0.00    +0.000 A 
ATOM     20  C   UNL     1       2.040   4.383  19.471  0.00  0.00    +0.000 A 
ATOM     21 CL   UNL     1       1.732   5.545  18.188  0.00  0.00    +0.000 Cl
ENDBRANCH  13  15
ENDBRANCH   8  11
ENDBRANCH   3   5
BRANCH   1  22
ATOM     22  C   UNL     1       8.867   9.378  18.987  0.00  0.00    +0.000 C 
BRANCH  22  23
ATOM     23  C   UNL     1       9.333  10.700  18.349  0.00  0.00    +0.000 C 
BRANCH  23  24
ATOM     24  C   UNL     1      10.583  11.286  19.034  0.00  0.00    +0.000 C 
BRANCH  24  25
ATOM     25  C   UNL     1      11.672  11.805  18.063  0.00  0.00    +0.000 C 
BRANCH  25  26
ATOM     26  C   UNL     1      11.155  12.848  17.061  0.00  0.00    +0.000 C 
BRANCH  26  29
ATOM     27  N   UNL     1       9.894  15.967  18.565  0.00  0.00    +0.000 NA
ATOM     28  C   UNL     1       9.858  14.777  18.067  0.00  0.00    +0.000 C 
ATOM     29  N   UNL     1      11.089  14.158  17.676  0.00  0.00    +0.000 N 
ATOM     30  N   UNL     1       8.606  14.106  17.907  0.00  0.00    +0.000 N 
ATOM     31  H   UNL     1      10.778  16.479  18.686  0.00  0.00    +0.000 HD
ATOM     32  H   UNL     1      11.965  14.692  17.804  0.00  0.00    +0.000 HD
ATOM     33  H   UNL     1       8.597  13.157  17.501  0.00  0.00    +0.000 HD
BRANCH  30  34
ATOM     34  N   UNL     1       7.387  14.652  18.268  0.00  0.00    +0.000 N 
ATOM     35  O   UNL     1       7.217  15.134  19.348  0.00  0.00    +0.000 OA
ATOM     36  O   UNL     1       6.392  14.642  17.412  0.00  0.00    +0.000 OA
ENDBRANCH  30  34
ENDBRANCH  26  29
ENDBRANCH  25  26
ENDBRANCH  24  25
ENDBRANCH  23  24
ENDBRANCH  22  23
ENDBRANCH   1  22
TORSDOF 10
ENDMDL
MODEL 6
REMARK VINA RESULT:      -7.6      6.948     10.431
REMARK  Name = 
REMARK  10 active torsions:
REMARK  status: ('A' for Active; 'I' for Inactive)
REMARK    1  A    between atoms: N_3  and  C_4
REMARK    2  A    between atoms: C_4  and  C_5
REMARK    3  A    between atoms: C_5  and  C_6
REMARK    4  A    between atoms: C_6  and  C_7
REMARK    5  A    between atoms: C_7  and  C_8
REMARK    6  A    between atoms: C_8  and  C_9
REMARK    7  A    between atoms: N_11  and  C_12
REMARK    8  A    between atoms: C_15  and  C_16
REMARK    9  A    between atoms: N_18  and  C_19
REMARK   10  A    between atoms: N_27  and  N_28
REMARK                            x       y       z     vdW  Elec       q    Type
REMARK                         _______ _______ _______ _____ _____    ______ ____
ROOT
ATOM      1  C   UNL     1       2.207   8.100  18.347  0.00  0.00    +0.000 C 
ATOM      2  O   UNL     1       2.588   8.381  17.221  0.00  0.00    +0.000 OA
ATOM      3  N   UNL     1       1.294   8.882  18.986  0.00  0.00    +0.000 N 
ATOM      4  H   UNL     1       1.018   8.632  19.949  0.00  0.00    +0.000 HD
ENDROOT
BRANCH   3   5
ATOM      5  C   UNL     1       0.708  10.068  18.381  0.00  0.00    +0.000 C 
ATOM      6  C   UNL     1       1.446  11.340  18.755  0.00  0.00    +0.000 C 
ATOM      7  N   UNL     1       0.555  12.416  18.322  0.00  0.00    +0.000 NA
ATOM      8  C   UNL     1      -0.804  11.899  18.590  0.00  0.00    +0.000 C 
ATOM      9  C   UNL     1      -0.666  10.399  18.925  0.00  0.00    +0.000 C 
ATOM     10  H   UNL     1       0.668  12.510  17.284  0.00  0.00    +0.000 HD
BRANCH   8  11
ATOM     11  C   UNL     1      -1.388  12.673  19.750  0.00  0.00    +0.000 C 
ATOM     12  O   UNL     1      -1.292  13.893  19.738  0.00  0.00    +0.000 OA
ATOM     13  N   UNL     1      -1.959  12.042  20.813  0.00  0.00    +0.000 N 
ATOM     14  H   UNL     1      -1.893  11.014  20.871  0.00  0.00    +0.000 HD
BRANCH  13  15
ATOM     15  C   UNL     1      -2.532  12.759  21.907  0.00  0.00    +0.000 A 
ATOM     16  C   UNL     1      -1.730  13.197  22.982  0.00  0.00    +0.000 A 
ATOM     17  C   UNL     1      -2.296  13.900  24.049  0.00  0.00    +0.000 A 
ATOM     18  C   UNL     1      -3.667  14.155  24.068  0.00  0.00    +0.000 A 
ATOM     19  C   UNL     1      -4.473  13.722  23.013  0.00  0.00    +0.000 A 
ATOM     20  C   UNL     1      -3.911  13.041  21.925  0.00  0.00    +0.000 A 
ATOM     21 CL   UNL     1      -4.968  12.486  20.634  0.00  0.00    +0.000 Cl
ENDBRANCH  13  15
ENDBRANCH   8  11
ENDBRANCH   3   5
BRANCH   1  22
ATOM     22  C   UNL     1       2.788   6.895  19.045  0.00  0.00    +0.000 C 
BRANCH  22  23
ATOM     23  C   UNL     1       2.426   5.587  18.317  0.00  0.00    +0.000 C 
BRANCH  23  24
ATOM     24  C   UNL     1       1.971   4.474  19.280  0.00  0.00    +0.000 C 
BRANCH  24  25
ATOM     25  C   UNL     1       3.107   3.556  19.795  0.00  0.00    +0.000 C 
BRANCH  25  26
ATOM     26  C   UNL     1       4.066   3.088  18.690  0.00  0.00    +0.000 C 
BRANCH  26  29
ATOM     27  N   UNL     1       7.344   4.733  18.331  0.00  0.00    +0.000 NA
ATOM     28  C   UNL     1       6.133   4.400  18.038  0.00  0.00    +0.000 C 
ATOM     29  N   UNL     1       5.411   3.561  18.947  0.00  0.00    +0.000 N 
ATOM     30  N   UNL     1       5.539   4.858  16.821  0.00  0.00    +0.000 N 
ATOM     31  H   UNL     1       7.802   4.414  19.196  0.00  0.00    +0.000 HD
ATOM     32  H   UNL     1       5.891   3.250  19.809  0.00  0.00    +0.000 HD
ATOM     33  H   UNL     1       4.571   4.575  16.601  0.00  0.00    +0.000 HD
BRANCH  30  34
ATOM     34  N   UNL     1       6.185   5.670  15.906  0.00  0.00    +0.000 N 
ATOM     35  O   UNL     1       5.653   6.637  15.448  0.00  0.00    +0.000 OA
ATOM     36  O   UNL     1       7.408   5.378  15.528  0.00  0.00    +0.000 OA
ENDBRANCH  30  34
ENDBRANCH  26  29
ENDBRANCH  25  26
ENDBRANCH  24  25
ENDBRANCH  23  24
ENDBRANCH  22  23
ENDBRANCH   1  22
TORSDOF 10
ENDMDL
MODEL 7
REMARK VINA RESULT:      -7.6      6.877     10.674
REMARK  Name = 
REMARK  10 active torsions:
REMARK  status: ('A' for Active; 'I' for Inactive)
REMARK    1  A    between atoms: N_3  and  C_4
REMARK    2  A    between atoms: C_4  and  C_5
REMARK    3  A    between atoms: C_5  and  C_6
REMARK    4  A    between atoms: C_6  and  C_7
REMARK    5  A    between atoms: C_7  and  C_8
REMARK    6  A    between atoms: C_8  and  C_9
REMARK    7  A    between atoms: N_11  and  C_12
REMARK    8  A    between atoms: C_15  and  C_16
REMARK    9  A    between atoms: N_18  and  C_19
REMARK   10  A    between atoms: N_27  and  N_28
REMARK                            x       y       z     vdW  Elec       q    Type
REMARK                         _______ _______ _______ _____ _____    ______ ____
ROOT
ATOM      1  C   UNL     1       2.248   7.749  19.011  0.00  0.00    +0.000 C 
ATOM      2  O   UNL     1       2.606   8.024  17.876  0.00  0.00    +0.000 OA
ATOM      3  N   UNL     1       1.463   8.608  19.719  0.00  0.00    +0.000 N 
ATOM      4  H   UNL     1       1.206   8.359  20.687  0.00  0.00    +0.000 HD
ENDROOT
BRANCH   3   5
ATOM      5  C   UNL     1       0.992   9.875  19.180  0.00  0.00    +0.000 C 
ATOM      6  C   UNL     1       0.380  10.770  20.241  0.00  0.00    +0.000 C 
ATOM      7  N   UNL     1      -0.293  11.823  19.482  0.00  0.00    +0.000 NA
ATOM      8  C   UNL     1      -0.825  11.134  18.288  0.00  0.00    +0.000 C 
ATOM      9  C   UNL     1      -0.198   9.724  18.255  0.00  0.00    +0.000 C 
ATOM     10  H   UNL     1       0.446  12.496  19.166  0.00  0.00    +0.000 HD
BRANCH   8  11
ATOM     11  C   UNL     1      -2.331  11.065  18.408  0.00  0.00    +0.000 C 
ATOM     12  O   UNL     1      -2.876   9.984  18.227  0.00  0.00    +0.000 OA
ATOM     13  N   UNL     1      -3.078  12.176  18.655  0.00  0.00    +0.000 N 
ATOM     14  H   UNL     1      -2.612  13.095  18.654  0.00  0.00    +0.000 HD
BRANCH  13  15
ATOM     15  C   UNL     1      -4.499  12.123  18.790  0.00  0.00    +0.000 A 
ATOM     16  C   UNL     1      -5.323  11.903  17.666  0.00  0.00    +0.000 A 
ATOM     17  C   UNL     1      -6.713  11.851  17.804  0.00  0.00    +0.000 A 
ATOM     18  C   UNL     1      -7.297  12.039  19.056  0.00  0.00    +0.000 A 
ATOM     19  C   UNL     1      -6.494  12.263  20.176  0.00  0.00    +0.000 A 
ATOM     20  C   UNL     1      -5.098  12.290  20.053  0.00  0.00    +0.000 A 
ATOM     21 CL   UNL     1      -4.126  12.607  21.484  0.00  0.00    +0.000 Cl
ENDBRANCH  13  15
ENDBRANCH   8  11
ENDBRANCH   3   5
BRANCH   1  22
ATOM     22  C   UNL     1       2.716   6.462  19.643  0.00  0.00    +0.000 C 
BRANCH  22  23
ATOM     23  C   UNL     1       1.855   5.265  19.201  0.00  0.00    +0.000 C 
BRANCH  23  24
ATOM     24  C   UNL     1       2.104   4.003  20.049  0.00  0.00    +0.000 C 
BRANCH  24  25
ATOM     25  C   UNL     1       2.337   2.707  19.234  0.00  0.00    +0.000 C 
BRANCH  25  26
ATOM     26  C   UNL     1       3.822   2.352  19.058  0.00  0.00    +0.000 C 
BRANCH  26  29
ATOM     27  N   UNL     1       6.381   4.956  19.563  0.00  0.00    +0.000 NA
ATOM     28  C   UNL     1       5.644   4.108  18.928  0.00  0.00    +0.000 C 
ATOM     29  N   UNL     1       4.664   3.364  19.662  0.00  0.00    +0.000 N 
ATOM     30  N   UNL     1       5.820   3.917  17.522  0.00  0.00    +0.000 N 
ATOM     31  H   UNL     1       6.283   5.111  20.576  0.00  0.00    +0.000 HD
ATOM     32  H   UNL     1       4.585   3.534  20.680  0.00  0.00    +0.000 HD
ATOM     33  H   UNL     1       5.225   3.229  17.034  0.00  0.00    +0.000 HD
BRANCH  30  34
ATOM     34  N   UNL     1       6.747   4.607  16.761  0.00  0.00    +0.000 N 
ATOM     35  O   UNL     1       6.407   5.362  15.901  0.00  0.00    +0.000 OA
ATOM     36  O   UNL     1       8.029   4.431  16.983  0.00  0.00    +0.000 OA
ENDBRANCH  30  34
ENDBRANCH  26  29
ENDBRANCH  25  26
ENDBRANCH  24  25
ENDBRANCH  23  24
ENDBRANCH  22  23
ENDBRANCH   1  22
TORSDOF 10
ENDMDL
MODEL 8
REMARK VINA RESULT:      -7.5      6.193      9.966
REMARK  Name = 
REMARK  10 active torsions:
REMARK  status: ('A' for Active; 'I' for Inactive)
REMARK    1  A    between atoms: N_3  and  C_4
REMARK    2  A    between atoms: C_4  and  C_5
REMARK    3  A    between atoms: C_5  and  C_6
REMARK    4  A    between atoms: C_6  and  C_7
REMARK    5  A    between atoms: C_7  and  C_8
REMARK    6  A    between atoms: C_8  and  C_9
REMARK    7  A    between atoms: N_11  and  C_12
REMARK    8  A    between atoms: C_15  and  C_16
REMARK    9  A    between atoms: N_18  and  C_19
REMARK   10  A    between atoms: N_27  and  N_28
REMARK                            x       y       z     vdW  Elec       q    Type
REMARK                         _______ _______ _______ _____ _____    ______ ____
ROOT
ATOM      1  C   UNL     1       2.451   6.721  18.650  0.00  0.00    +0.000 C 
ATOM      2  O   UNL     1       2.686   6.683  19.848  0.00  0.00    +0.000 OA
ATOM      3  N   UNL     1       2.053   7.880  18.056  0.00  0.00    +0.000 N 
ATOM      4  H   UNL     1       1.833   7.868  17.048  0.00  0.00    +0.000 HD
ENDROOT
BRANCH   3   5
ATOM      5  C   UNL     1       1.900   9.130  18.786  0.00  0.00    +0.000 C 
ATOM      6  C   UNL     1       0.843   9.047  19.872  0.00  0.00    +0.000 C 
ATOM      7  N   UNL     1       0.623  10.437  20.269  0.00  0.00    +0.000 NA
ATOM      8  C   UNL     1       0.747  11.203  19.012  0.00  0.00    +0.000 C 
ATOM      9  C   UNL     1       1.317  10.245  17.944  0.00  0.00    +0.000 C 
ATOM     10  H   UNL     1       1.419  10.708  20.894  0.00  0.00    +0.000 HD
BRANCH   8  11
ATOM     11  C   UNL     1      -0.624  11.709  18.623  0.00  0.00    +0.000 C 
ATOM     12  O   UNL     1      -0.716  12.845  18.176  0.00  0.00    +0.000 OA
ATOM     13  N   UNL     1      -1.742  10.955  18.812  0.00  0.00    +0.000 N 
ATOM     14  H   UNL     1      -1.658  10.066  19.328  0.00  0.00    +0.000 HD
BRANCH  13  15
ATOM     15  C   UNL     1      -3.041  11.412  18.433  0.00  0.00    +0.000 A 
ATOM     16  C   UNL     1      -3.884  12.049  19.368  0.00  0.00    +0.000 A 
ATOM     17  C   UNL     1      -5.153  12.496  18.992  0.00  0.00    +0.000 A 
ATOM     18  C   UNL     1      -5.606  12.292  17.688  0.00  0.00    +0.000 A 
ATOM     19  C   UNL     1      -4.784  11.657  16.754  0.00  0.00    +0.000 A 
ATOM     20  C   UNL     1      -3.499  11.231  17.114  0.00  0.00    +0.000 A 
ATOM     21 CL   UNL     1      -2.511  10.407  15.915  0.00  0.00    +0.000 Cl
ENDBRANCH  13  15
ENDBRANCH   8  11
ENDBRANCH   3   5
BRANCH   1  22
ATOM     22  C   UNL     1       2.569   5.458  17.834  0.00  0.00    +0.000 C 
BRANCH  22  23
ATOM     23  C   UNL     1       1.465   4.445  18.191  0.00  0.00    +0.000 C 
BRANCH  23  24
ATOM     24  C   UNL     1       1.971   2.989  18.201  0.00  0.00    +0.000 C 
BRANCH  24  25
ATOM     25  C   UNL     1       3.058   2.686  19.261  0.00  0.00    +0.000 C 
BRANCH  25  26
ATOM     26  C   UNL     1       4.468   2.530  18.668  0.00  0.00    +0.000 C 
BRANCH  26  29
ATOM     27  N   UNL     1       6.854   5.293  19.175  0.00  0.00    +0.000 NA
ATOM     28  C   UNL     1       6.014   4.534  18.556  0.00  0.00    +0.000 C 
ATOM     29  N   UNL     1       5.386   3.470  19.280  0.00  0.00    +0.000 N 
ATOM     30  N   UNL     1       5.732   4.758  17.173  0.00  0.00    +0.000 N 
ATOM     31  H   UNL     1       7.083   5.153  20.169  0.00  0.00    +0.000 HD
ATOM     32  H   UNL     1       5.633   3.346  20.277  0.00  0.00    +0.000 HD
ATOM     33  H   UNL     1       5.062   4.136  16.693  0.00  0.00    +0.000 HD
BRANCH  30  34
ATOM     34  N   UNL     1       6.305   5.770  16.423  0.00  0.00    +0.000 N 
ATOM     35  O   UNL     1       7.485   5.956  16.429  0.00  0.00    +0.000 OA
ATOM     36  O   UNL     1       5.542   6.545  15.688  0.00  0.00    +0.000 OA
ENDBRANCH  30  34
ENDBRANCH  26  29
ENDBRANCH  25  26
ENDBRANCH  24  25
ENDBRANCH  23  24
ENDBRANCH  22  23
ENDBRANCH   1  22
TORSDOF 10
ENDMDL
MODEL 9
REMARK VINA RESULT:      -7.5      6.191     11.245
REMARK  Name = 
REMARK  10 active torsions:
REMARK  status: ('A' for Active; 'I' for Inactive)
REMARK    1  A    between atoms: N_3  and  C_4
REMARK    2  A    between atoms: C_4  and  C_5
REMARK    3  A    between atoms: C_5  and  C_6
REMARK    4  A    between atoms: C_6  and  C_7
REMARK    5  A    between atoms: C_7  and  C_8
REMARK    6  A    between atoms: C_8  and  C_9
REMARK    7  A    between atoms: N_11  and  C_12
REMARK    8  A    between atoms: C_15  and  C_16
REMARK    9  A    between atoms: N_18  and  C_19
REMARK   10  A    between atoms: N_27  and  N_28
REMARK                            x       y       z     vdW  Elec       q    Type
REMARK                         _______ _______ _______ _____ _____    ______ ____
ROOT
ATOM      1  C   UNL     1       1.523   8.057  20.346  0.00  0.00    +0.000 C 
ATOM      2  O   UNL     1       1.111   7.897  21.485  0.00  0.00    +0.000 OA
ATOM      3  N   UNL     1       1.159   9.152  19.623  0.00  0.00    +0.000 N 
ATOM      4  H   UNL     1       1.500   9.240  18.653  0.00  0.00    +0.000 HD
ENDROOT
BRANCH   3   5
ATOM      5  C   UNL     1       0.289  10.194  20.149  0.00  0.00    +0.000 C 
ATOM      6  C   UNL     1      -0.887  10.490  19.237  0.00  0.00    +0.000 C 
ATOM      7  N   UNL     1      -1.449  11.732  19.764  0.00  0.00    +0.000 NA
ATOM      8  C   UNL     1      -0.274  12.509  20.209  0.00  0.00    +0.000 C 
ATOM      9  C   UNL     1       0.943  11.559  20.176  0.00  0.00    +0.000 C 
ATOM     10  H   UNL     1      -2.012  11.480  20.611  0.00  0.00    +0.000 HD
BRANCH   8  11
ATOM     11  C   UNL     1      -0.088  13.677  19.267  0.00  0.00    +0.000 C 
ATOM     12  O   UNL     1      -0.363  13.515  18.085  0.00  0.00    +0.000 OA
ATOM     13  N   UNL     1       0.423  14.864  19.694  0.00  0.00    +0.000 N 
ATOM     14  H   UNL     1       0.787  14.927  20.657  0.00  0.00    +0.000 HD
BRANCH  13  15
ATOM     15  C   UNL     1       0.586  15.981  18.820  0.00  0.00    +0.000 A 
ATOM     16  C   UNL     1      -0.527  16.741  18.403  0.00  0.00    +0.000 A 
ATOM     17  C   UNL     1      -0.361  17.834  17.549  0.00  0.00    +0.000 A 
ATOM     18  C   UNL     1       0.911  18.168  17.082  0.00  0.00    +0.000 A 
ATOM     19  C   UNL     1       2.020  17.421  17.482  0.00  0.00    +0.000 A 
ATOM     20  C   UNL     1       1.868  16.340  18.361  0.00  0.00    +0.000 A 
ATOM     21 CL   UNL     1       3.288  15.407  18.813  0.00  0.00    +0.000 Cl
ENDBRANCH  13  15
ENDBRANCH   8  11
ENDBRANCH   3   5
BRANCH   1  22
ATOM     22  C   UNL     1       2.412   7.008  19.727  0.00  0.00    +0.000 C 
BRANCH  22  23
ATOM     23  C   UNL     1       2.211   5.631  20.386  0.00  0.00    +0.000 C 
BRANCH  23  24
ATOM     24  C   UNL     1       2.042   4.495  19.359  0.00  0.00    +0.000 C 
BRANCH  24  25
ATOM     25  C   UNL     1       2.937   3.255  19.608  0.00  0.00    +0.000 C 
BRANCH  25  26
ATOM     26  C   UNL     1       3.883   2.937  18.440  0.00  0.00    +0.000 C 
BRANCH  26  29
ATOM     27  N   UNL     1       7.224   4.488  18.311  0.00  0.00    +0.000 NA
ATOM     28  C   UNL     1       6.004   4.240  17.970  0.00  0.00    +0.000 C 
ATOM     29  N   UNL     1       5.242   3.323  18.764  0.00  0.00    +0.000 N 
ATOM     30  N   UNL     1       5.442   4.868  16.816  0.00  0.00    +0.000 N 
ATOM     31  H   UNL     1       7.659   4.047  19.133  0.00  0.00    +0.000 HD
ATOM     32  H   UNL     1       5.700   2.890  19.583  0.00  0.00    +0.000 HD
ATOM     33  H   UNL     1       4.467   4.651  16.555  0.00  0.00    +0.000 HD
BRANCH  30  34
ATOM     34  N   UNL     1       6.128   5.762  16.013  0.00  0.00    +0.000 N 
ATOM     35  O   UNL     1       7.276   5.590  15.731  0.00  0.00    +0.000 OA
ATOM     36  O   UNL     1       5.511   6.824  15.549  0.00  0.00    +0.000 OA
ENDBRANCH  30  34
ENDBRANCH  26  29
ENDBRANCH  25  26
ENDBRANCH  24  25
ENDBRANCH  23  24
ENDBRANCH  22  23
ENDBRANCH   1  22
TORSDOF 10
ENDMDL
