MODEL 1
REMARK VINA RESULT:      -8.0      0.000      0.000
REMARK  Name = 
REMARK  10 active torsions:
REMARK  status: ('A' for Active; 'I' for Inactive)
REMARK    1  A    between atoms: C_1  and  C_2
REMARK    2  A    between atoms: C_2  and  C_3
REMARK    3  A    between atoms: C_3  and  C_4
REMARK    4  A    between atoms: C_9  and  C_10
REMARK    5  A    between atoms: C_10  and  C_11
REMARK    6  A    between atoms: C_11  and  C_12
REMARK    7  A    between atoms: C_12  and  C_13
REMARK    8  A    between atoms: C_12  and  N_16
REMARK    9  A    between atoms: C_13  and  C_14
REMARK   10  A    between atoms: C_13  and  O_15
REMARK                            x       y       z     vdW  Elec       q    Type
REMARK                         _______ _______ _______ _____ _____    ______ ____
ROOT
ATOM      1  C   UNL     1       3.236   3.503  19.141  0.00  0.00    +0.000 C 
ENDROOT
BRANCH   1   2
ATOM      2  N   UNL     1       4.159   3.907  18.089  0.00  0.00    +0.000 N 
ATOM      3  C   UNL     1       3.938   3.760  16.739  0.00  0.00    +0.000 A 
ATOM      4  N   UNL     1       4.900   4.292  16.016  0.00  0.00    +0.000 NA
ATOM      5  C   UNL     1       5.796   4.798  16.935  0.00  0.00    +0.000 A 
ATOM      6  C   UNL     1       7.004   5.504  16.804  0.00  0.00    +0.000 A 
ATOM      7  N   UNL     1       7.582   5.825  15.582  0.00  0.00    +0.000 N 
ATOM      8  N   UNL     1       7.634   5.919  17.926  0.00  0.00    +0.000 NA
ATOM      9  C   UNL     1       7.100   5.596  19.121  0.00  0.00    +0.000 A 
ATOM     10  N   UNL     1       5.978   4.891  19.368  0.00  0.00    +0.000 NA
ATOM     11  C   UNL     1       5.361   4.550  18.227  0.00  0.00    +0.000 A 
ATOM     12  H   UNL     1       6.928   5.815  14.808  0.00  0.00    +0.000 HD
ATOM     13  H   UNL     1       8.215   6.610  15.658  0.00  0.00    +0.000 HD
ENDBRANCH   1   2
BRANCH   1  14
ATOM     14  C   UNL     1       3.880   2.898  20.425  0.00  0.00    +0.000 C 
ATOM     15  C   UNL     1       2.876   2.338  21.427  0.00  0.00    +0.000 C 
BRANCH  14  16
ATOM     16  O   UNL     1       4.877   1.913  20.185  0.00  0.00    +0.000 OA
ATOM     17  H   UNL     1       5.287   2.089  19.311  0.00  0.00    +0.000 HD
ENDBRANCH  14  16
ENDBRANCH   1  14
BRANCH   1  18
ATOM     18  C   UNL     1       2.142   4.565  19.441  0.00  0.00    +0.000 C 
BRANCH  18  19
ATOM     19  C   UNL     1       2.538   5.775  20.300  0.00  0.00    +0.000 C 
BRANCH  19  25
ATOM     20  C   UNL     1       1.563   8.177  20.239  0.00  0.00    +0.000 A 
ATOM     21  C   UNL     1       1.368   9.362  19.500  0.00  0.00    +0.000 A 
ATOM     22  C   UNL     1       1.745   9.460  18.162  0.00  0.00    +0.000 A 
ATOM     23  C   UNL     1       2.345   8.377  17.537  0.00  0.00    +0.000 A 
ATOM     24  C   UNL     1       2.586   7.210  18.259  0.00  0.00    +0.000 A 
ATOM     25  C   UNL     1       2.208   7.089  19.612  0.00  0.00    +0.000 A 
BRANCH  20  26
ATOM     26  C   UNL     1       1.024   8.143  21.655  0.00  0.00    +0.000 C 
BRANCH  26  28
ATOM     27  C   UNL     1      -0.479   9.740  22.977  0.00  0.00    +0.000 C 
ATOM     28  C   UNL     1      -0.366   8.787  21.795  0.00  0.00    +0.000 C 
ENDBRANCH  26  28
ENDBRANCH  20  26
ENDBRANCH  19  25
ENDBRANCH  18  19
ENDBRANCH   1  18
TORSDOF 8
ENDMDL
MODEL 2
REMARK VINA RESULT:      -7.6      1.527      2.191
REMARK  Name = 
REMARK  10 active torsions:
REMARK  status: ('A' for Active; 'I' for Inactive)
REMARK    1  A    between atoms: C_1  and  C_2
REMARK    2  A    between atoms: C_2  and  C_3
REMARK    3  A    between atoms: C_3  and  C_4
REMARK    4  A    between atoms: C_9  and  C_10
REMARK    5  A    between atoms: C_10  and  C_11
REMARK    6  A    between atoms: C_11  and  C_12
REMARK    7  A    between atoms: C_12  and  C_13
REMARK    8  A    between atoms: C_12  and  N_16
REMARK    9  A    between atoms: C_13  and  C_14
REMARK   10  A    between atoms: C_13  and  O_15
REMARK                            x       y       z     vdW  Elec       q    Type
REMARK                         _______ _______ _______ _____ _____    ______ ____
ROOT
ATOM      1  C   UNL     1       2.085   4.636  18.915  0.00  0.00    +0.000 C 
ENDROOT
BRANCH   1   2
ATOM      2  N   UNL     1       3.528   4.445  18.880  0.00  0.00    +0.000 N 
ATOM      3  C   UNL     1       4.244   3.644  19.738  0.00  0.00    +0.000 A 
ATOM      4  N   UNL     1       5.520   3.589  19.422  0.00  0.00    +0.000 NA
ATOM      5  C   UNL     1       5.645   4.401  18.314  0.00  0.00    +0.000 A 
ATOM      6  C   UNL     1       6.736   4.738  17.493  0.00  0.00    +0.000 A 
ATOM      7  N   UNL     1       8.029   4.274  17.699  0.00  0.00    +0.000 N 
ATOM      8  N   UNL     1       6.517   5.537  16.424  0.00  0.00    +0.000 NA
ATOM      9  C   UNL     1       5.272   6.015  16.223  0.00  0.00    +0.000 A 
ATOM     10  N   UNL     1       4.166   5.798  16.963  0.00  0.00    +0.000 NA
ATOM     11  C   UNL     1       4.422   4.957  17.977  0.00  0.00    +0.000 A 
ATOM     12  H   UNL     1       8.075   3.433  18.263  0.00  0.00    +0.000 HD
ATOM     13  H   UNL     1       8.582   4.308  16.853  0.00  0.00    +0.000 HD
ENDBRANCH   1   2
BRANCH   1  14
ATOM     14  C   UNL     1       1.218   3.369  18.648  0.00  0.00    +0.000 C 
ATOM     15  C   UNL     1       1.975   2.215  18.000  0.00  0.00    +0.000 C 
BRANCH  14  16
ATOM     16  O   UNL     1       0.521   2.872  19.783  0.00  0.00    +0.000 OA
ATOM     17  H   UNL     1       0.567   3.543  20.497  0.00  0.00    +0.000 HD
ENDBRANCH  14  16
ENDBRANCH   1  14
BRANCH   1  18
ATOM     18  C   UNL     1       1.604   5.466  20.138  0.00  0.00    +0.000 C 
BRANCH  18  19
ATOM     19  C   UNL     1       2.375   6.752  20.475  0.00  0.00    +0.000 C 
BRANCH  19  25
ATOM     20  C   UNL     1       0.758   8.778  20.420  0.00  0.00    +0.000 A 
ATOM     21  C   UNL     1       0.304   9.919  19.726  0.00  0.00    +0.000 A 
ATOM     22  C   UNL     1       0.773  10.233  18.451  0.00  0.00    +0.000 A 
ATOM     23  C   UNL     1       1.722   9.420  17.849  0.00  0.00    +0.000 A 
ATOM     24  C   UNL     1       2.214   8.311  18.533  0.00  0.00    +0.000 A 
ATOM     25  C   UNL     1       1.751   7.973  19.822  0.00  0.00    +0.000 A 
BRANCH  20  26
ATOM     26  C   UNL     1       0.109   8.473  21.756  0.00  0.00    +0.000 C 
BRANCH  26  28
ATOM     27  C   UNL     1      -0.912  10.373  23.135  0.00  0.00    +0.000 C 
ATOM     28  C   UNL     1       0.340   9.570  22.810  0.00  0.00    +0.000 C 
ENDBRANCH  26  28
ENDBRANCH  20  26
ENDBRANCH  19  25
ENDBRANCH  18  19
ENDBRANCH   1  18
TORSDOF 8
ENDMDL
MODEL 3
REMARK VINA RESULT:      -7.5      3.244      6.496
REMARK  Name = 
REMARK  10 active torsions:
REMARK  status: ('A' for Active; 'I' for Inactive)
REMARK    1  A    between atoms: C_1  and  C_2
REMARK    2  A    between atoms: C_2  and  C_3
REMARK    3  A    between atoms: C_3  and  C_4
REMARK    4  A    between atoms: C_9  and  C_10
REMARK    5  A    between atoms: C_10  and  C_11
REMARK    6  A    between atoms: C_11  and  C_12
REMARK    7  A    between atoms: C_12  and  C_13
REMARK    8  A    between atoms: C_12  and  N_16
REMARK    9  A    between atoms: C_13  and  C_14
REMARK   10  A    between atoms: C_13  and  O_15
REMARK                            x       y       z     vdW  Elec       q    Type
REMARK                         _______ _______ _______ _____ _____    ______ ____
ROOT
ATOM      1  C   UNL     1       2.731   5.854  19.129  0.00  0.00    +0.000 C 
ENDROOT
BRANCH   1   2
ATOM      2  N   UNL     1       2.430   7.232  18.766  0.00  0.00    +0.000 N 
ATOM      3  C   UNL     1       2.674   7.800  17.537  0.00  0.00    +0.000 A 
ATOM      4  N   UNL     1       2.222   9.033  17.460  0.00  0.00    +0.000 NA
ATOM      5  C   UNL     1       1.670   9.286  18.698  0.00  0.00    +0.000 A 
ATOM      6  C   UNL     1       1.006  10.401  19.240  0.00  0.00    +0.000 A 
ATOM      7  N   UNL     1       0.793  11.585  18.545  0.00  0.00    +0.000 N 
ATOM      8  N   UNL     1       0.522  10.315  20.499  0.00  0.00    +0.000 NA
ATOM      9  C   UNL     1       0.741   9.181  21.196  0.00  0.00    +0.000 A 
ATOM     10  N   UNL     1       1.397   8.073  20.800  0.00  0.00    +0.000 NA
ATOM     11  C   UNL     1       1.809   8.185  19.527  0.00  0.00    +0.000 A 
ATOM     12  H   UNL     1       0.845  11.481  17.538  0.00  0.00    +0.000 HD
ATOM     13  H   UNL     1       0.020  12.114  18.927  0.00  0.00    +0.000 HD
ENDBRANCH   1   2
BRANCH   1  14
ATOM     14  C   UNL     1       1.849   5.232  20.253  0.00  0.00    +0.000 C 
ATOM     15  C   UNL     1       1.216   3.892  19.886  0.00  0.00    +0.000 C 
BRANCH  14  16
ATOM     16  O   UNL     1       2.494   5.097  21.512  0.00  0.00    +0.000 OA
ATOM     17  H   UNL     1       3.464   5.166  21.376  0.00  0.00    +0.000 HD
ENDBRANCH  14  16
ENDBRANCH   1  14
BRANCH   1  18
ATOM     18  C   UNL     1       2.914   4.920  17.900  0.00  0.00    +0.000 C 
BRANCH  18  19
ATOM     19  C   UNL     1       4.191   4.066  17.837  0.00  0.00    +0.000 C 
BRANCH  19  25
ATOM     20  C   UNL     1       5.995   5.630  16.827  0.00  0.00    +0.000 A 
ATOM     21  C   UNL     1       7.134   6.432  17.051  0.00  0.00    +0.000 A 
ATOM     22  C   UNL     1       7.752   6.491  18.299  0.00  0.00    +0.000 A 
ATOM     23  C   UNL     1       7.232   5.762  19.358  0.00  0.00    +0.000 A 
ATOM     24  C   UNL     1       6.084   4.996  19.170  0.00  0.00    +0.000 A 
ATOM     25  C   UNL     1       5.445   4.919  17.915  0.00  0.00    +0.000 A 
BRANCH  20  26
ATOM     26  C   UNL     1       5.462   5.559  15.410  0.00  0.00    +0.000 C 
BRANCH  26  28
ATOM     27  C   UNL     1       6.808   4.464  13.526  0.00  0.00    +0.000 C 
ATOM     28  C   UNL     1       5.839   4.256  14.682  0.00  0.00    +0.000 C 
ENDBRANCH  26  28
ENDBRANCH  20  26
ENDBRANCH  19  25
ENDBRANCH  18  19
ENDBRANCH   1  18
TORSDOF 8
ENDMDL
MODEL 4
REMARK VINA RESULT:      -7.5      1.873      3.227
REMARK  Name = 
REMARK  10 active torsions:
REMARK  status: ('A' for Active; 'I' for Inactive)
REMARK    1  A    between atoms: C_1  and  C_2
REMARK    2  A    between atoms: C_2  and  C_3
REMARK    3  A    between atoms: C_3  and  C_4
REMARK    4  A    between atoms: C_9  and  C_10
REMARK    5  A    between atoms: C_10  and  C_11
REMARK    6  A    between atoms: C_11  and  C_12
REMARK    7  A    between atoms: C_12  and  C_13
REMARK    8  A    between atoms: C_12  and  N_16
REMARK    9  A    between atoms: C_13  and  C_14
REMARK   10  A    between atoms: C_13  and  O_15
REMARK                            x       y       z     vdW  Elec       q    Type
REMARK                         _______ _______ _______ _____ _____    ______ ____
ROOT
ATOM      1  C   UNL     1       2.456   5.187  18.939  0.00  0.00    +0.000 C 
ENDROOT
BRANCH   1   2
ATOM      2  N   UNL     1       3.875   4.901  18.771  0.00  0.00    +0.000 N 
ATOM      3  C   UNL     1       4.611   4.046  19.558  0.00  0.00    +0.000 A 
ATOM      4  N   UNL     1       5.846   3.910  19.125  0.00  0.00    +0.000 NA
ATOM      5  C   UNL     1       5.924   4.723  18.014  0.00  0.00    +0.000 A 
ATOM      6  C   UNL     1       6.954   4.995  17.097  0.00  0.00    +0.000 A 
ATOM      7  N   UNL     1       8.228   4.445  17.182  0.00  0.00    +0.000 N 
ATOM      8  N   UNL     1       6.693   5.817  16.056  0.00  0.00    +0.000 NA
ATOM      9  C   UNL     1       5.469   6.377  15.970  0.00  0.00    +0.000 A 
ATOM     10  N   UNL     1       4.424   6.227  16.808  0.00  0.00    +0.000 NA
ATOM     11  C   UNL     1       4.714   5.361  17.792  0.00  0.00    +0.000 A 
ATOM     12  H   UNL     1       8.268   3.598  17.736  0.00  0.00    +0.000 HD
ATOM     13  H   UNL     1       8.702   4.450  16.289  0.00  0.00    +0.000 HD
ENDBRANCH   1   2
BRANCH   1  14
ATOM     14  C   UNL     1       1.527   3.953  19.145  0.00  0.00    +0.000 C 
ATOM     15  C   UNL     1       0.658   4.023  20.397  0.00  0.00    +0.000 C 
BRANCH  14  16
ATOM     16  O   UNL     1       0.696   3.640  18.035  0.00  0.00    +0.000 OA
ATOM     17  H   UNL     1      -0.069   4.254  18.034  0.00  0.00    +0.000 HD
ENDBRANCH  14  16
ENDBRANCH   1  14
BRANCH   1  18
ATOM     18  C   UNL     1       2.176   6.344  19.938  0.00  0.00    +0.000 C 
BRANCH  18  19
ATOM     19  C   UNL     1       2.051   7.765  19.368  0.00  0.00    +0.000 C 
BRANCH  19  25
ATOM     20  C   UNL     1       0.337   9.653  19.835  0.00  0.00    +0.000 A 
ATOM     21  C   UNL     1      -0.389  10.390  20.795  0.00  0.00    +0.000 A 
ATOM     22  C   UNL     1      -0.186  10.208  22.162  0.00  0.00    +0.000 A 
ATOM     23  C   UNL     1       0.736   9.269  22.600  0.00  0.00    +0.000 A 
ATOM     24  C   UNL     1       1.434   8.501  21.671  0.00  0.00    +0.000 A 
ATOM     25  C   UNL     1       1.247   8.672  20.283  0.00  0.00    +0.000 A 
BRANCH  20  26
ATOM     26  C   UNL     1       0.113  10.001  18.377  0.00  0.00    +0.000 C 
BRANCH  26  28
ATOM     27  C   UNL     1      -1.975   9.893  16.899  0.00  0.00    +0.000 C 
ATOM     28  C   UNL     1      -1.295  10.552  18.091  0.00  0.00    +0.000 C 
ENDBRANCH  26  28
ENDBRANCH  20  26
ENDBRANCH  19  25
ENDBRANCH  18  19
ENDBRANCH   1  18
TORSDOF 8
ENDMDL
MODEL 5
REMARK VINA RESULT:      -7.4      2.600      4.887
REMARK  Name = 
REMARK  10 active torsions:
REMARK  status: ('A' for Active; 'I' for Inactive)
REMARK    1  A    between atoms: C_1  and  C_2
REMARK    2  A    between atoms: C_2  and  C_3
REMARK    3  A    between atoms: C_3  and  C_4
REMARK    4  A    between atoms: C_9  and  C_10
REMARK    5  A    between atoms: C_10  and  C_11
REMARK    6  A    between atoms: C_11  and  C_12
REMARK    7  A    between atoms: C_12  and  C_13
REMARK    8  A    between atoms: C_12  and  N_16
REMARK    9  A    between atoms: C_13  and  C_14
REMARK   10  A    between atoms: C_13  and  O_15
REMARK                            x       y       z     vdW  Elec       q    Type
REMARK                         _______ _______ _______ _____ _____    ______ ____
ROOT
ATOM      1  C   UNL     1       6.790   5.392  17.328  0.00  0.00    +0.000 C 
ENDROOT
BRANCH   1   2
ATOM      2  N   UNL     1       6.417   4.620  16.151  0.00  0.00    +0.000 N 
ATOM      3  C   UNL     1       5.427   3.665  16.109  0.00  0.00    +0.000 A 
ATOM      4  N   UNL     1       5.246   3.189  14.896  0.00  0.00    +0.000 NA
ATOM      5  C   UNL     1       6.168   3.852  14.113  0.00  0.00    +0.000 A 
ATOM      6  C   UNL     1       6.459   3.815  12.738  0.00  0.00    +0.000 A 
ATOM      7  N   UNL     1       5.808   2.986  11.834  0.00  0.00    +0.000 N 
ATOM      8  N   UNL     1       7.408   4.649  12.256  0.00  0.00    +0.000 NA
ATOM      9  C   UNL     1       8.066   5.444  13.124  0.00  0.00    +0.000 A 
ATOM     10  N   UNL     1       7.905   5.534  14.459  0.00  0.00    +0.000 NA
ATOM     11  C   UNL     1       6.917   4.730  14.881  0.00  0.00    +0.000 A 
ATOM     12  H   UNL     1       4.904   2.661  12.157  0.00  0.00    +0.000 HD
ATOM     13  H   UNL     1       5.875   3.333  10.886  0.00  0.00    +0.000 HD
ENDBRANCH   1   2
BRANCH   1  14
ATOM     14  C   UNL     1       6.488   6.920  17.271  0.00  0.00    +0.000 C 
ATOM     15  C   UNL     1       7.700   7.810  17.530  0.00  0.00    +0.000 C 
BRANCH  14  16
ATOM     16  O   UNL     1       5.853   7.358  16.077  0.00  0.00    +0.000 OA
ATOM     17  H   UNL     1       5.875   6.627  15.424  0.00  0.00    +0.000 HD
ENDBRANCH  14  16
ENDBRANCH   1  14
BRANCH   1  18
ATOM     18  C   UNL     1       6.355   4.727  18.663  0.00  0.00    +0.000 C 
BRANCH  18  19
ATOM     19  C   UNL     1       5.172   5.351  19.420  0.00  0.00    +0.000 C 
BRANCH  19  25
ATOM     20  C   UNL     1       2.848   5.138  18.290  0.00  0.00    +0.000 A 
ATOM     21  C   UNL     1       1.711   4.339  18.052  0.00  0.00    +0.000 A 
ATOM     22  C   UNL     1       1.550   3.096  18.662  0.00  0.00    +0.000 A 
ATOM     23  C   UNL     1       2.536   2.616  19.510  0.00  0.00    +0.000 A 
ATOM     24  C   UNL     1       3.688   3.369  19.727  0.00  0.00    +0.000 A 
ATOM     25  C   UNL     1       3.868   4.631  19.124  0.00  0.00    +0.000 A 
BRANCH  20  26
ATOM     26  C   UNL     1       2.876   6.515  17.657  0.00  0.00    +0.000 C 
BRANCH  26  28
ATOM     27  C   UNL     1       2.083   8.937  17.916  0.00  0.00    +0.000 C 
ATOM     28  C   UNL     1       2.448   7.637  18.620  0.00  0.00    +0.000 C 
ENDBRANCH  26  28
ENDBRANCH  20  26
ENDBRANCH  19  25
ENDBRANCH  18  19
ENDBRANCH   1  18
TORSDOF 8
ENDMDL
MODEL 6
REMARK VINA RESULT:      -7.4      3.487      7.878
REMARK  Name = 
REMARK  10 active torsions:
REMARK  status: ('A' for Active; 'I' for Inactive)
REMARK    1  A    between atoms: C_1  and  C_2
REMARK    2  A    between atoms: C_2  and  C_3
REMARK    3  A    between atoms: C_3  and  C_4
REMARK    4  A    between atoms: C_9  and  C_10
REMARK    5  A    between atoms: C_10  and  C_11
REMARK    6  A    between atoms: C_11  and  C_12
REMARK    7  A    between atoms: C_12  and  C_13
REMARK    8  A    between atoms: C_12  and  N_16
REMARK    9  A    between atoms: C_13  and  C_14
REMARK   10  A    between atoms: C_13  and  O_15
REMARK                            x       y       z     vdW  Elec       q    Type
REMARK                         _______ _______ _______ _____ _____    ______ ____
ROOT
ATOM      1  C   UNL     1       5.076   5.190  16.882  0.00  0.00    +0.000 C 
ENDROOT
BRANCH   1   2
ATOM      2  N   UNL     1       3.990   5.015  17.837  0.00  0.00    +0.000 N 
ATOM      3  C   UNL     1       3.279   6.034  18.426  0.00  0.00    +0.000 A 
ATOM      4  N   UNL     1       2.298   5.587  19.179  0.00  0.00    +0.000 NA
ATOM      5  C   UNL     1       2.380   4.213  19.089  0.00  0.00    +0.000 A 
ATOM      6  C   UNL     1       1.609   3.171  19.632  0.00  0.00    +0.000 A 
ATOM      7  N   UNL     1       0.521   3.373  20.474  0.00  0.00    +0.000 N 
ATOM      8  N   UNL     1       1.920   1.897  19.302  0.00  0.00    +0.000 NA
ATOM      9  C   UNL     1       2.986   1.682  18.506  0.00  0.00    +0.000 A 
ATOM     10  N   UNL     1       3.820   2.593  17.965  0.00  0.00    +0.000 NA
ATOM     11  C   UNL     1       3.438   3.841  18.275  0.00  0.00    +0.000 A 
ATOM     12  H   UNL     1       0.121   4.301  20.405  0.00  0.00    +0.000 HD
ATOM     13  H   UNL     1      -0.110   2.583  20.472  0.00  0.00    +0.000 HD
ENDBRANCH   1   2
BRANCH   1  14
ATOM     14  C   UNL     1       6.516   4.958  17.429  0.00  0.00    +0.000 C 
ATOM     15  C   UNL     1       7.247   6.234  17.834  0.00  0.00    +0.000 C 
BRANCH  14  16
ATOM     16  O   UNL     1       6.605   4.027  18.499  0.00  0.00    +0.000 OA
ATOM     17  H   UNL     1       7.261   4.359  19.149  0.00  0.00    +0.000 HD
ENDBRANCH  14  16
ENDBRANCH   1  14
BRANCH   1  18
ATOM     18  C   UNL     1       4.814   4.492  15.518  0.00  0.00    +0.000 C 
BRANCH  18  19
ATOM     19  C   UNL     1       5.895   3.539  14.984  0.00  0.00    +0.000 C 
BRANCH  19  25
ATOM     20  C   UNL     1       6.439   3.636  12.451  0.00  0.00    +0.000 A 
ATOM     21  C   UNL     1       7.114   4.298  11.404  0.00  0.00    +0.000 A 
ATOM     22  C   UNL     1       7.973   5.367  11.650  0.00  0.00    +0.000 A 
ATOM     23  C   UNL     1       8.163   5.811  12.950  0.00  0.00    +0.000 A 
ATOM     24  C   UNL     1       7.475   5.199  13.996  0.00  0.00    +0.000 A 
ATOM     25  C   UNL     1       6.603   4.113  13.769  0.00  0.00    +0.000 A 
BRANCH  20  26
ATOM     26  C   UNL     1       5.608   2.422  12.085  0.00  0.00    +0.000 C 
BRANCH  26  28
ATOM     27  C   UNL     1       6.155   0.033  11.344  0.00  0.00    +0.000 C 
ATOM     28  C   UNL     1       6.278   1.518  11.035  0.00  0.00    +0.000 C 
ENDBRANCH  26  28
ENDBRANCH  20  26
ENDBRANCH  19  25
ENDBRANCH  18  19
ENDBRANCH   1  18
TORSDOF 8
ENDMDL
MODEL 7
REMARK VINA RESULT:      -7.4      3.085      6.060
REMARK  Name = 
REMARK  10 active torsions:
REMARK  status: ('A' for Active; 'I' for Inactive)
REMARK    1  A    between atoms: C_1  and  C_2
REMARK    2  A    between atoms: C_2  and  C_3
REMARK    3  A    between atoms: C_3  and  C_4
REMARK    4  A    between atoms: C_9  and  C_10
REMARK    5  A    between atoms: C_10  and  C_11
REMARK    6  A    between atoms: C_11  and  C_12
REMARK    7  A    between atoms: C_12  and  C_13
REMARK    8  A    between atoms: C_12  and  N_16
REMARK    9  A    between atoms: C_13  and  C_14
REMARK   10  A    between atoms: C_13  and  O_15
REMARK                            x       y       z     vdW  Elec       q    Type
REMARK                         _______ _______ _______ _____ _____    ______ ____
ROOT
ATOM      1  C   UNL     1       2.497   5.148  19.865  0.00  0.00    +0.000 C 
ENDROOT
BRANCH   1   2
ATOM      2  N   UNL     1       2.351   6.470  19.273  0.00  0.00    +0.000 N 
ATOM      3  C   UNL     1       2.631   6.789  17.964  0.00  0.00    +0.000 A 
ATOM      4  N   UNL     1       2.324   8.036  17.678  0.00  0.00    +0.000 NA
ATOM      5  C   UNL     1       1.834   8.559  18.857  0.00  0.00    +0.000 A 
ATOM      6  C   UNL     1       1.317   9.820  19.202  0.00  0.00    +0.000 A 
ATOM      7  N   UNL     1       1.227  10.886  18.315  0.00  0.00    +0.000 N 
ATOM      8  N   UNL     1       0.856  10.007  20.459  0.00  0.00    +0.000 NA
ATOM      9  C   UNL     1       0.957   8.990  21.339  0.00  0.00    +0.000 A 
ATOM     10  N   UNL     1       1.470   7.761  21.136  0.00  0.00    +0.000 NA
ATOM     11  C   UNL     1       1.863   7.606  19.862  0.00  0.00    +0.000 A 
ATOM     12  H   UNL     1       1.244  10.607  17.341  0.00  0.00    +0.000 HD
ATOM     13  H   UNL     1       0.531  11.560  18.603  0.00  0.00    +0.000 HD
ENDBRANCH   1   2
BRANCH   1  14
ATOM     14  C   UNL     1       1.260   4.207  19.759  0.00  0.00    +0.000 C 
ATOM     15  C   UNL     1       1.345   3.182  18.633  0.00  0.00    +0.000 C 
BRANCH  14  16
ATOM     16  O   UNL     1       0.920   3.530  20.962  0.00  0.00    +0.000 OA
ATOM     17  H   UNL     1       0.415   2.720  20.734  0.00  0.00    +0.000 HD
ENDBRANCH  14  16
ENDBRANCH   1  14
BRANCH   1  18
ATOM     18  C   UNL     1       3.836   4.451  19.493  0.00  0.00    +0.000 C 
BRANCH  18  19
ATOM     19  C   UNL     1       5.061   5.345  19.248  0.00  0.00    +0.000 C 
BRANCH  19  25
ATOM     20  C   UNL     1       6.868   5.700  17.422  0.00  0.00    +0.000 A 
ATOM     21  C   UNL     1       7.363   5.335  16.153  0.00  0.00    +0.000 A 
ATOM     22  C   UNL     1       6.680   4.441  15.331  0.00  0.00    +0.000 A 
ATOM     23  C   UNL     1       5.492   3.876  15.770  0.00  0.00    +0.000 A 
ATOM     24  C   UNL     1       5.005   4.190  17.037  0.00  0.00    +0.000 A 
ATOM     25  C   UNL     1       5.679   5.095  17.883  0.00  0.00    +0.000 A 
BRANCH  20  26
ATOM     26  C   UNL     1       7.636   6.756  18.192  0.00  0.00    +0.000 C 
BRANCH  26  28
ATOM     27  C   UNL     1       8.435   9.188  18.255  0.00  0.00    +0.000 C 
ATOM     28  C   UNL     1       7.664   8.124  17.487  0.00  0.00    +0.000 C 
ENDBRANCH  26  28
ENDBRANCH  20  26
ENDBRANCH  19  25
ENDBRANCH  18  19
ENDBRANCH   1  18
TORSDOF 8
ENDMDL
MODEL 8
REMARK VINA RESULT:      -7.3      3.203      7.401
REMARK  Name = 
REMARK  10 active torsions:
REMARK  status: ('A' for Active; 'I' for Inactive)
REMARK    1  A    between atoms: C_1  and  C_2
REMARK    2  A    between atoms: C_2  and  C_3
REMARK    3  A    between atoms: C_3  and  C_4
REMARK    4  A    between atoms: C_9  and  C_10
REMARK    5  A    between atoms: C_10  and  C_11
REMARK    6  A    between atoms: C_11  and  C_12
REMARK    7  A    between atoms: C_12  and  C_13
REMARK    8  A    between atoms: C_12  and  N_16
REMARK    9  A    between atoms: C_13  and  C_14
REMARK   10  A    between atoms: C_13  and  O_15
REMARK                            x       y       z     vdW  Elec       q    Type
REMARK                         _______ _______ _______ _____ _____    ______ ____
ROOT
ATOM      1  C   UNL     1       5.215   5.673  17.559  0.00  0.00    +0.000 C 
ENDROOT
BRANCH   1   2
ATOM      2  N   UNL     1       4.106   5.308  18.430  0.00  0.00    +0.000 N 
ATOM      3  C   UNL     1       3.396   6.183  19.219  0.00  0.00    +0.000 A 
ATOM      4  N   UNL     1       2.392   5.596  19.834  0.00  0.00    +0.000 NA
ATOM      5  C   UNL     1       2.457   4.276  19.439  0.00  0.00    +0.000 A 
ATOM      6  C   UNL     1       1.659   3.153  19.720  0.00  0.00    +0.000 A 
ATOM      7  N   UNL     1       0.556   3.182  20.565  0.00  0.00    +0.000 N 
ATOM      8  N   UNL     1       1.961   1.980  19.119  0.00  0.00    +0.000 NA
ATOM      9  C   UNL     1       3.042   1.929  18.315  0.00  0.00    +0.000 A 
ATOM     10  N   UNL     1       3.900   2.923  18.008  0.00  0.00    +0.000 NA
ATOM     11  C   UNL     1       3.528   4.077  18.583  0.00  0.00    +0.000 A 
ATOM     12  H   UNL     1       0.170   4.109  20.698  0.00  0.00    +0.000 HD
ATOM     13  H   UNL     1      -0.086   2.424  20.373  0.00  0.00    +0.000 HD
ENDBRANCH   1   2
BRANCH   1  14
ATOM     14  C   UNL     1       6.612   5.104  17.952  0.00  0.00    +0.000 C 
ATOM     15  C   UNL     1       7.489   6.077  18.734  0.00  0.00    +0.000 C 
BRANCH  14  16
ATOM     16  O   UNL     1       6.578   3.866  18.649  0.00  0.00    +0.000 OA
ATOM     17  H   UNL     1       6.504   3.140  17.994  0.00  0.00    +0.000 HD
ENDBRANCH  14  16
ENDBRANCH   1  14
BRANCH   1  18
ATOM     18  C   UNL     1       4.888   5.517  16.048  0.00  0.00    +0.000 C 
BRANCH  18  19
ATOM     19  C   UNL     1       5.290   4.203  15.362  0.00  0.00    +0.000 C 
BRANCH  19  25
ATOM     20  C   UNL     1       5.889   3.956  12.852  0.00  0.00    +0.000 A 
ATOM     21  C   UNL     1       6.758   4.304  11.797  0.00  0.00    +0.000 A 
ATOM     22  C   UNL     1       7.903   5.068  12.015  0.00  0.00    +0.000 A 
ATOM     23  C   UNL     1       8.195   5.517  13.294  0.00  0.00    +0.000 A 
ATOM     24  C   UNL     1       7.329   5.220  14.344  0.00  0.00    +0.000 A 
ATOM     25  C   UNL     1       6.167   4.445  14.146  0.00  0.00    +0.000 A 
BRANCH  20  26
ATOM     26  C   UNL     1       4.728   3.037  12.523  0.00  0.00    +0.000 C 
BRANCH  26  28
ATOM     27  C   UNL     1       3.320   3.608  10.462  0.00  0.00    +0.000 C 
ATOM     28  C   UNL     1       4.515   2.841  11.012  0.00  0.00    +0.000 C 
ENDBRANCH  26  28
ENDBRANCH  20  26
ENDBRANCH  19  25
ENDBRANCH  18  19
ENDBRANCH   1  18
TORSDOF 8
ENDMDL
MODEL 9
REMARK VINA RESULT:      -7.3      1.344      2.035
REMARK  Name = 
REMARK  10 active torsions:
REMARK  status: ('A' for Active; 'I' for Inactive)
REMARK    1  A    between atoms: C_1  and  C_2
REMARK    2  A    between atoms: C_2  and  C_3
REMARK    3  A    between atoms: C_3  and  C_4
REMARK    4  A    between atoms: C_9  and  C_10
REMARK    5  A    between atoms: C_10  and  C_11
REMARK    6  A    between atoms: C_11  and  C_12
REMARK    7  A    between atoms: C_12  and  C_13
REMARK    8  A    between atoms: C_12  and  N_16
REMARK    9  A    between atoms: C_13  and  C_14
REMARK   10  A    between atoms: C_13  and  O_15
REMARK                            x       y       z     vdW  Elec       q    Type
REMARK                         _______ _______ _______ _____ _____    ______ ____
ROOT
ATOM      1  C   UNL     1       2.386   3.947  18.834  0.00  0.00    +0.000 C 
ENDROOT
BRANCH   1   2
ATOM      2  N   UNL     1       3.827   4.129  18.722  0.00  0.00    +0.000 N 
ATOM      3  C   UNL     1       4.712   4.123  19.775  0.00  0.00    +0.000 A 
ATOM      4  N   UNL     1       5.962   4.221  19.376  0.00  0.00    +0.000 NA
ATOM      5  C   UNL     1       5.889   4.309  18.002  0.00  0.00    +0.000 A 
ATOM      6  C   UNL     1       6.867   4.403  16.996  0.00  0.00    +0.000 A 
ATOM      7  N   UNL     1       8.232   4.459  17.250  0.00  0.00    +0.000 N 
ATOM      8  N   UNL     1       6.466   4.416  15.705  0.00  0.00    +0.000 NA
ATOM      9  C   UNL     1       5.144   4.386  15.441  0.00  0.00    +0.000 A 
ATOM     10  N   UNL     1       4.121   4.340  16.318  0.00  0.00    +0.000 NA
ATOM     11  C   UNL     1       4.569   4.273  17.581  0.00  0.00    +0.000 A 
ATOM     12  H   UNL     1       8.491   4.098  18.160  0.00  0.00    +0.000 HD
ATOM     13  H   UNL     1       8.777   4.165  16.450  0.00  0.00    +0.000 HD
ENDBRANCH   1   2
BRANCH   1  14
ATOM     14  C   UNL     1       1.904   2.526  19.254  0.00  0.00    +0.000 C 
ATOM     15  C   UNL     1       1.497   2.408  20.719  0.00  0.00    +0.000 C 
BRANCH  14  16
ATOM     16  O   UNL     1       0.861   1.989  18.451  0.00  0.00    +0.000 OA
ATOM     17  H   UNL     1       0.499   1.195  18.898  0.00  0.00    +0.000 HD
ENDBRANCH  14  16
ENDBRANCH   1  14
BRANCH   1  18
ATOM     18  C   UNL     1       1.681   5.093  19.611  0.00  0.00    +0.000 C 
BRANCH  18  19
ATOM     19  C   UNL     1       2.548   6.264  20.101  0.00  0.00    +0.000 C 
BRANCH  19  25
ATOM     20  C   UNL     1       1.424   8.592  20.301  0.00  0.00    +0.000 A 
ATOM     21  C   UNL     1       1.084   9.806  19.669  0.00  0.00    +0.000 A 
ATOM     22  C   UNL     1       1.322  10.015  18.312  0.00  0.00    +0.000 A 
ATOM     23  C   UNL     1       1.924   9.019  17.559  0.00  0.00    +0.000 A 
ATOM     24  C   UNL     1       2.306   7.827  18.171  0.00  0.00    +0.000 A 
ATOM     25  C   UNL     1       2.071   7.593  19.542  0.00  0.00    +0.000 A 
BRANCH  20  26
ATOM     26  C   UNL     1       1.030   8.430  21.756  0.00  0.00    +0.000 C 
BRANCH  26  28
ATOM     27  C   UNL     1      -0.544   9.895  23.146  0.00  0.00    +0.000 C 
ATOM     28  C   UNL     1      -0.422   8.851  22.045  0.00  0.00    +0.000 C 
ENDBRANCH  26  28
ENDBRANCH  20  26
ENDBRANCH  19  25
ENDBRANCH  18  19
ENDBRANCH   1  18
TORSDOF 8
ENDMDL
