MODEL 1
REMARK VINA RESULT:      -8.8      0.000      0.000
REMARK  Name = 
REMARK  5 active torsions:
REMARK  status: ('A' for Active; 'I' for Inactive)
REMARK    1  A    between atoms: C_1  and  N_2
REMARK    2  A    between atoms: N_2  and  C_3
REMARK    3  A    between atoms: N_2  and  C_14
REMARK    4  A    between atoms: C_3  and  C_4
REMARK    5  A    between atoms: C_7  and  C_8
REMARK                            x       y       z     vdW  Elec       q    Type
REMARK                         _______ _______ _______ _____ _____    ______ ____
ROOT
ATOM      1  C   UNL     1       5.760   5.172  19.346  0.00  0.00    +0.000 C 
ATOM      2  N   UNL     1       5.996   5.663  17.993  0.00  0.00    +0.000 NA
ENDROOT
BRANCH   2   3
ATOM      3  C   UNL     1       4.782   5.785  17.132  0.00  0.00    +0.000 C 
ATOM      4  C   UNL     1       4.193   7.212  17.046  0.00  0.00    +0.000 C 
ATOM      5  C   UNL     1       3.214   7.578  18.166  0.00  0.00    +0.000 C 
ATOM      6  C   UNL     1       2.182   6.492  18.490  0.00  0.00    +0.000 C 
ATOM      7  N   UNL     1       2.788   5.169  18.501  0.00  0.00    +0.000 N 
ATOM      8  C   UNL     1       2.662   4.258  19.531  0.00  0.00    +0.000 A 
ATOM      9  C   UNL     1       1.627   4.307  20.453  0.00  0.00    +0.000 A 
ATOM     10  C   UNL     1       1.564   3.380  21.497  0.00  0.00    +0.000 A 
ATOM     11  C   UNL     1       2.560   2.438  21.589  0.00  0.00    +0.000 A 
ATOM     12  N   UNL     1       3.559   2.375  20.701  0.00  0.00    +0.000 NA
ATOM     13  N   UNL     1       3.588   3.280  19.665  0.00  0.00    +0.000 NA
ATOM     14  C   UNL     1       3.599   4.800  17.341  0.00  0.00    +0.000 C 
ENDBRANCH   2   3
BRANCH   2  15
ATOM     15  C   UNL     1       7.045   4.854  17.320  0.00  0.00    +0.000 C 
BRANCH  15  16
ATOM     16  C   UNL     1       7.001   4.863  15.822  0.00  0.00    +0.000 A 
ATOM     17  N   UNL     1       7.674   5.619  14.979  0.00  0.00    +0.000 NA
ATOM     18  N   UNL     1       7.343   5.180  13.716  0.00  0.00    +0.000 NA
ATOM     19  C   UNL     1       6.491   4.181  13.863  0.00  0.00    +0.000 A 
ATOM     20  O   UNL     1       6.225   3.927  15.190  0.00  0.00    +0.000 OA
BRANCH  19  21
ATOM     21  C   UNL     1       5.946   3.432  12.771  0.00  0.00    +0.000 A 
ATOM     22  C   UNL     1       4.690   3.547  12.193  0.00  0.00    +0.000 A 
ATOM     23  C   UNL     1       4.624   2.613  11.131  0.00  0.00    +0.000 A 
ATOM     24  C   UNL     1       5.838   1.971  11.119  0.00  0.00    +0.000 A 
ATOM     25  O   UNL     1       6.642   2.455  12.101  0.00  0.00    +0.000 OA
ENDBRANCH  19  21
ENDBRANCH  15  16
ENDBRANCH   2  15
TORSDOF 4
ENDMDL
MODEL 2
REMARK VINA RESULT:      -8.4      6.735      8.898
REMARK  Name = 
REMARK  5 active torsions:
REMARK  status: ('A' for Active; 'I' for Inactive)
REMARK    1  A    between atoms: C_1  and  N_2
REMARK    2  A    between atoms: N_2  and  C_3
REMARK    3  A    between atoms: N_2  and  C_14
REMARK    4  A    between atoms: C_3  and  C_4
REMARK    5  A    between atoms: C_7  and  C_8
REMARK                            x       y       z     vdW  Elec       q    Type
REMARK                         _______ _______ _______ _____ _____    ______ ____
ROOT
ATOM      1  C   UNL     1       9.111  11.281  20.231  0.00  0.00    +0.000 C 
ATOM      2  N   UNL     1       9.624  10.573  19.063  0.00  0.00    +0.000 NA
ENDROOT
BRANCH   2   3
ATOM      3  C   UNL     1      10.697  11.280  18.302  0.00  0.00    +0.000 C 
ATOM      4  C   UNL     1      11.931  11.677  19.146  0.00  0.00    +0.000 C 
ATOM      5  C   UNL     1      11.814  13.019  19.875  0.00  0.00    +0.000 C 
ATOM      6  C   UNL     1      11.245  14.158  19.023  0.00  0.00    +0.000 C 
ATOM      7  N   UNL     1      10.123  13.707  18.213  0.00  0.00    +0.000 N 
ATOM      8  C   UNL     1       8.892  14.329  18.163  0.00  0.00    +0.000 A 
ATOM      9  C   UNL     1       8.708  15.658  18.521  0.00  0.00    +0.000 A 
ATOM     10  C   UNL     1       7.434  16.230  18.484  0.00  0.00    +0.000 A 
ATOM     11  C   UNL     1       6.376  15.439  18.103  0.00  0.00    +0.000 A 
ATOM     12  N   UNL     1       6.542  14.159  17.748  0.00  0.00    +0.000 NA
ATOM     13  N   UNL     1       7.809  13.622  17.764  0.00  0.00    +0.000 NA
ATOM     14  C   UNL     1      10.324  12.498  17.414  0.00  0.00    +0.000 C 
ENDBRANCH   2   3
BRANCH   2  15
ATOM     15  C   UNL     1       8.510  10.176  18.163  0.00  0.00    +0.000 C 
BRANCH  15  16
ATOM     16  C   UNL     1       8.246   8.703  18.078  0.00  0.00    +0.000 A 
ATOM     17  N   UNL     1       8.482   7.767  18.974  0.00  0.00    +0.000 NA
ATOM     18  N   UNL     1       7.982   6.595  18.451  0.00  0.00    +0.000 NA
ATOM     19  C   UNL     1       7.467   6.886  17.269  0.00  0.00    +0.000 A 
ATOM     20  O   UNL     1       7.606   8.222  16.966  0.00  0.00    +0.000 OA
BRANCH  19  21
ATOM     21  C   UNL     1       6.811   5.930  16.429  0.00  0.00    +0.000 A 
ATOM     22  C   UNL     1       5.495   5.496  16.487  0.00  0.00    +0.000 A 
ATOM     23  C   UNL     1       5.306   4.569  15.434  0.00  0.00    +0.000 A 
ATOM     24  C   UNL     1       6.517   4.478  14.793  0.00  0.00    +0.000 A 
ATOM     25  O   UNL     1       7.430   5.292  15.381  0.00  0.00    +0.000 OA
ENDBRANCH  19  21
ENDBRANCH  15  16
ENDBRANCH   2  15
TORSDOF 4
ENDMDL
MODEL 3
REMARK VINA RESULT:      -8.4      4.157      6.270
REMARK  Name = 
REMARK  5 active torsions:
REMARK  status: ('A' for Active; 'I' for Inactive)
REMARK    1  A    between atoms: C_1  and  N_2
REMARK    2  A    between atoms: N_2  and  C_3
REMARK    3  A    between atoms: N_2  and  C_14
REMARK    4  A    between atoms: C_3  and  C_4
REMARK    5  A    between atoms: C_7  and  C_8
REMARK                            x       y       z     vdW  Elec       q    Type
REMARK                         _______ _______ _______ _____ _____    ______ ____
ROOT
ATOM      1  C   UNL     1       6.234   4.734  19.313  0.00  0.00    +0.000 C 
ATOM      2  N   UNL     1       6.153   5.891  18.428  0.00  0.00    +0.000 NA
ENDROOT
BRANCH   2   3
ATOM      3  C   UNL     1       5.156   5.785  17.322  0.00  0.00    +0.000 C 
ATOM      4  C   UNL     1       4.459   7.115  16.953  0.00  0.00    +0.000 C 
ATOM      5  C   UNL     1       3.223   7.454  17.791  0.00  0.00    +0.000 C 
ATOM      6  C   UNL     1       2.260   6.282  18.009  0.00  0.00    +0.000 C 
ATOM      7  N   UNL     1       2.980   5.050  18.298  0.00  0.00    +0.000 N 
ATOM      8  C   UNL     1       2.720   4.225  19.374  0.00  0.00    +0.000 A 
ATOM      9  C   UNL     1       1.506   4.226  20.044  0.00  0.00    +0.000 A 
ATOM     10  C   UNL     1       1.306   3.393  21.149  0.00  0.00    +0.000 A 
ATOM     11  C   UNL     1       2.347   2.593  21.556  0.00  0.00    +0.000 A 
ATOM     12  N   UNL     1       3.520   2.577  20.913  0.00  0.00    +0.000 NA
ATOM     13  N   UNL     1       3.687   3.384  19.811  0.00  0.00    +0.000 NA
ATOM     14  C   UNL     1       4.062   4.684  17.385  0.00  0.00    +0.000 C 
ENDBRANCH   2   3
BRANCH   2  15
ATOM     15  C   UNL     1       7.498   6.238  17.900  0.00  0.00    +0.000 C 
BRANCH  15  16
ATOM     16  C   UNL     1       7.841   7.696  17.926  0.00  0.00    +0.000 A 
ATOM     17  N   UNL     1       7.362   8.673  17.183  0.00  0.00    +0.000 NA
ATOM     18  N   UNL     1       7.933   9.835  17.654  0.00  0.00    +0.000 NA
ATOM     19  C   UNL     1       8.724   9.498  18.658  0.00  0.00    +0.000 A 
ATOM     20  O   UNL     1       8.715   8.140  18.884  0.00  0.00    +0.000 OA
BRANCH  19  21
ATOM     21  C   UNL     1       9.467  10.443  19.438  0.00  0.00    +0.000 A 
ATOM     22  C   UNL     1      10.647  11.090  19.106  0.00  0.00    +0.000 A 
ATOM     23  C   UNL     1      10.980  11.946  20.184  0.00  0.00    +0.000 A 
ATOM     24  C   UNL     1       9.991  11.772  21.121  0.00  0.00    +0.000 A 
ATOM     25  O   UNL     1       9.074  10.871  20.683  0.00  0.00    +0.000 OA
ENDBRANCH  19  21
ENDBRANCH  15  16
ENDBRANCH   2  15
TORSDOF 4
ENDMDL
MODEL 4
REMARK VINA RESULT:      -8.4      4.245      8.368
REMARK  Name = 
REMARK  5 active torsions:
REMARK  status: ('A' for Active; 'I' for Inactive)
REMARK    1  A    between atoms: C_1  and  N_2
REMARK    2  A    between atoms: N_2  and  C_3
REMARK    3  A    between atoms: N_2  and  C_14
REMARK    4  A    between atoms: C_3  and  C_4
REMARK    5  A    between atoms: C_7  and  C_8
REMARK                            x       y       z     vdW  Elec       q    Type
REMARK                         _______ _______ _______ _____ _____    ______ ____
ROOT
ATOM      1  C   UNL     1       2.554   4.012  21.167  0.00  0.00    +0.000 C 
ATOM      2  N   UNL     1       1.822   4.886  20.257  0.00  0.00    +0.000 NA
ENDROOT
BRANCH   2   3
ATOM      3  C   UNL     1       1.156   4.205  19.108  0.00  0.00    +0.000 C 
ATOM      4  C   UNL     1       0.943   2.684  19.294  0.00  0.00    +0.000 C 
ATOM      5  C   UNL     1       2.133   1.808  18.890  0.00  0.00    +0.000 C 
ATOM      6  C   UNL     1       2.782   2.191  17.555  0.00  0.00    +0.000 C 
ATOM      7  N   UNL     1       2.903   3.636  17.418  0.00  0.00    +0.000 N 
ATOM      8  C   UNL     1       4.069   4.295  17.086  0.00  0.00    +0.000 A 
ATOM      9  C   UNL     1       5.125   3.673  16.436  0.00  0.00    +0.000 A 
ATOM     10  C   UNL     1       6.297   4.379  16.153  0.00  0.00    +0.000 A 
ATOM     11  C   UNL     1       6.376   5.692  16.549  0.00  0.00    +0.000 A 
ATOM     12  N   UNL     1       5.362   6.307  17.169  0.00  0.00    +0.000 NA
ATOM     13  N   UNL     1       4.206   5.601  17.415  0.00  0.00    +0.000 NA
ATOM     14  C   UNL     1       1.701   4.429  17.670  0.00  0.00    +0.000 C 
ENDBRANCH   2   3
BRANCH   2  15
ATOM     15  C   UNL     1       2.691   5.995  19.786  0.00  0.00    +0.000 C 
BRANCH  15  16
ATOM     16  C   UNL     1       2.074   7.359  19.830  0.00  0.00    +0.000 A 
ATOM     17  N   UNL     1       2.016   8.272  18.882  0.00  0.00    +0.000 NA
ATOM     18  N   UNL     1       1.270   9.313  19.392  0.00  0.00    +0.000 NA
ATOM     19  C   UNL     1       0.915   8.972  20.618  0.00  0.00    +0.000 A 
ATOM     20  O   UNL     1       1.401   7.730  20.964  0.00  0.00    +0.000 OA
BRANCH  19  21
ATOM     21  C   UNL     1       0.091   9.783  21.464  0.00  0.00    +0.000 A 
ATOM     22  C   UNL     1      -0.314   9.529  22.765  0.00  0.00    +0.000 A 
ATOM     23  C   UNL     1      -1.093  10.632  23.190  0.00  0.00    +0.000 A 
ATOM     24  C   UNL     1      -1.129  11.499  22.125  0.00  0.00    +0.000 A 
ATOM     25  O   UNL     1      -0.419  10.999  21.081  0.00  0.00    +0.000 OA
ENDBRANCH  19  21
ENDBRANCH  15  16
ENDBRANCH   2  15
TORSDOF 4
ENDMDL
MODEL 5
REMARK VINA RESULT:      -8.1      3.902      5.858
REMARK  Name = 
REMARK  5 active torsions:
REMARK  status: ('A' for Active; 'I' for Inactive)
REMARK    1  A    between atoms: C_1  and  N_2
REMARK    2  A    between atoms: N_2  and  C_3
REMARK    3  A    between atoms: N_2  and  C_14
REMARK    4  A    between atoms: C_3  and  C_4
REMARK    5  A    between atoms: C_7  and  C_8
REMARK                            x       y       z     vdW  Elec       q    Type
REMARK                         _______ _______ _______ _____ _____    ______ ____
ROOT
ATOM      1  C   UNL     1       6.298   4.523  18.317  0.00  0.00    +0.000 C 
ATOM      2  N   UNL     1       5.913   5.828  17.789  0.00  0.00    +0.000 NA
ENDROOT
BRANCH   2   3
ATOM      3  C   UNL     1       4.682   5.842  16.944  0.00  0.00    +0.000 C 
ATOM      4  C   UNL     1       4.004   7.226  16.815  0.00  0.00    +0.000 C 
ATOM      5  C   UNL     1       3.020   7.574  17.936  0.00  0.00    +0.000 C 
ATOM      6  C   UNL     1       2.062   6.440  18.316  0.00  0.00    +0.000 C 
ATOM      7  N   UNL     1       2.749   5.158  18.368  0.00  0.00    +0.000 N 
ATOM      8  C   UNL     1       2.694   4.281  19.432  0.00  0.00    +0.000 A 
ATOM      9  C   UNL     1       1.670   4.302  20.369  0.00  0.00    +0.000 A 
ATOM     10  C   UNL     1       1.680   3.414  21.447  0.00  0.00    +0.000 A 
ATOM     11  C   UNL     1       2.733   2.538  21.559  0.00  0.00    +0.000 A 
ATOM     12  N   UNL     1       3.722   2.503  20.658  0.00  0.00    +0.000 NA
ATOM     13  N   UNL     1       3.680   3.368  19.588  0.00  0.00    +0.000 NA
ATOM     14  C   UNL     1       3.565   4.795  17.209  0.00  0.00    +0.000 C 
ENDBRANCH   2   3
BRANCH   2  15
ATOM     15  C   UNL     1       7.053   6.459  17.076  0.00  0.00    +0.000 C 
BRANCH  15  16
ATOM     16  C   UNL     1       7.754   7.552  17.825  0.00  0.00    +0.000 A 
ATOM     17  N   UNL     1       8.465   7.473  18.931  0.00  0.00    +0.000 NA
ATOM     18  N   UNL     1       8.966   8.736  19.161  0.00  0.00    +0.000 NA
ATOM     19  C   UNL     1       8.533   9.509  18.181  0.00  0.00    +0.000 A 
ATOM     20  O   UNL     1       7.747   8.813  17.289  0.00  0.00    +0.000 OA
BRANCH  19  21
ATOM     21  C   UNL     1       8.877  10.893  18.046  0.00  0.00    +0.000 A 
ATOM     22  C   UNL     1      10.056  11.524  18.415  0.00  0.00    +0.000 A 
ATOM     23  C   UNL     1       9.936  12.889  18.059  0.00  0.00    +0.000 A 
ATOM     24  C   UNL     1       8.690  13.022  17.498  0.00  0.00    +0.000 A 
ATOM     25  O   UNL     1       8.043  11.828  17.484  0.00  0.00    +0.000 OA
ENDBRANCH  19  21
ENDBRANCH  15  16
ENDBRANCH   2  15
TORSDOF 4
ENDMDL
MODEL 6
REMARK VINA RESULT:      -8.0      4.597      7.718
REMARK  Name = 
REMARK  5 active torsions:
REMARK  status: ('A' for Active; 'I' for Inactive)
REMARK    1  A    between atoms: C_1  and  N_2
REMARK    2  A    between atoms: N_2  and  C_3
REMARK    3  A    between atoms: N_2  and  C_14
REMARK    4  A    between atoms: C_3  and  C_4
REMARK    5  A    between atoms: C_7  and  C_8
REMARK                            x       y       z     vdW  Elec       q    Type
REMARK                         _______ _______ _______ _____ _____    ______ ____
ROOT
ATOM      1  C   UNL     1       7.625   5.090  18.045  0.00  0.00    +0.000 C 
ATOM      2  N   UNL     1       6.957   6.380  18.183  0.00  0.00    +0.000 NA
ENDROOT
BRANCH   2   3
ATOM      3  C   UNL     1       5.476   6.361  17.988  0.00  0.00    +0.000 C 
ATOM      4  C   UNL     1       4.727   5.309  18.839  0.00  0.00    +0.000 C 
ATOM      5  C   UNL     1       4.645   3.911  18.217  0.00  0.00    +0.000 C 
ATOM      6  C   UNL     1       4.272   3.896  16.731  0.00  0.00    +0.000 C 
ATOM      7  N   UNL     1       4.968   4.943  15.998  0.00  0.00    +0.000 N 
ATOM      8  C   UNL     1       5.693   4.740  14.841  0.00  0.00    +0.000 A 
ATOM      9  C   UNL     1       5.498   3.641  14.017  0.00  0.00    +0.000 A 
ATOM     10  C   UNL     1       6.283   3.466  12.874  0.00  0.00    +0.000 A 
ATOM     11  C   UNL     1       7.254   4.399  12.603  0.00  0.00    +0.000 A 
ATOM     12  N   UNL     1       7.446   5.468  13.385  0.00  0.00    +0.000 NA
ATOM     13  N   UNL     1       6.645   5.636  14.492  0.00  0.00    +0.000 NA
ATOM     14  C   UNL     1       4.899   6.297  16.548  0.00  0.00    +0.000 C 
ENDBRANCH   2   3
BRANCH   2  15
ATOM     15  C   UNL     1       7.594   7.394  17.304  0.00  0.00    +0.000 C 
BRANCH  15  16
ATOM     16  C   UNL     1       8.224   8.554  18.014  0.00  0.00    +0.000 A 
ATOM     17  N   UNL     1       8.825   8.581  19.185  0.00  0.00    +0.000 NA
ATOM     18  N   UNL     1       9.306   9.862  19.346  0.00  0.00    +0.000 NA
ATOM     19  C   UNL     1       8.972  10.540  18.262  0.00  0.00    +0.000 A 
ATOM     20  O   UNL     1       8.272   9.762  17.367  0.00  0.00    +0.000 OA
BRANCH  19  21
ATOM     21  C   UNL     1       9.332  11.908  18.036  0.00  0.00    +0.000 A 
ATOM     22  C   UNL     1       8.579  13.046  18.283  0.00  0.00    +0.000 A 
ATOM     23  C   UNL     1       9.369  14.164  17.923  0.00  0.00    +0.000 A 
ATOM     24  C   UNL     1      10.559  13.652  17.468  0.00  0.00    +0.000 A 
ATOM     25  O   UNL     1      10.550  12.296  17.532  0.00  0.00    +0.000 OA
ENDBRANCH  19  21
ENDBRANCH  15  16
ENDBRANCH   2  15
TORSDOF 4
ENDMDL
MODEL 7
REMARK VINA RESULT:      -7.9      2.953      5.257
REMARK  Name = 
REMARK  5 active torsions:
REMARK  status: ('A' for Active; 'I' for Inactive)
REMARK    1  A    between atoms: C_1  and  N_2
REMARK    2  A    between atoms: N_2  and  C_3
REMARK    3  A    between atoms: N_2  and  C_14
REMARK    4  A    between atoms: C_3  and  C_4
REMARK    5  A    between atoms: C_7  and  C_8
REMARK                            x       y       z     vdW  Elec       q    Type
REMARK                         _______ _______ _______ _____ _____    ______ ____
ROOT
ATOM      1  C   UNL     1       2.327   4.088  17.325  0.00  0.00    +0.000 C 
ATOM      2  N   UNL     1       3.132   3.027  17.920  0.00  0.00    +0.000 NA
ENDROOT
BRANCH   2   3
ATOM      3  C   UNL     1       3.441   3.192  19.372  0.00  0.00    +0.000 C 
ATOM      4  C   UNL     1       2.396   2.573  20.329  0.00  0.00    +0.000 C 
ATOM      5  C   UNL     1       1.207   3.478  20.664  0.00  0.00    +0.000 C 
ATOM      6  C   UNL     1       1.583   4.925  21.000  0.00  0.00    +0.000 C 
ATOM      7  N   UNL     1       2.608   5.430  20.098  0.00  0.00    +0.000 N 
ATOM      8  C   UNL     1       2.522   6.618  19.400  0.00  0.00    +0.000 A 
ATOM      9  C   UNL     1       1.683   7.655  19.784  0.00  0.00    +0.000 A 
ATOM     10  C   UNL     1       1.609   8.823  19.022  0.00  0.00    +0.000 A 
ATOM     11  C   UNL     1       2.373   8.906  17.883  0.00  0.00    +0.000 A 
ATOM     12  N   UNL     1       3.192   7.917  17.507  0.00  0.00    +0.000 NA
ATOM     13  N   UNL     1       3.271   6.785  18.285  0.00  0.00    +0.000 NA
ATOM     14  C   UNL     1       3.800   4.602  19.918  0.00  0.00    +0.000 C 
ENDBRANCH   2   3
BRANCH   2  15
ATOM     15  C   UNL     1       4.375   2.812  17.135  0.00  0.00    +0.000 C 
BRANCH  15  16
ATOM     16  C   UNL     1       5.087   4.057  16.704  0.00  0.00    +0.000 A 
ATOM     17  N   UNL     1       5.035   4.682  15.546  0.00  0.00    +0.000 NA
ATOM     18  N   UNL     1       5.800   5.820  15.684  0.00  0.00    +0.000 NA
ATOM     19  C   UNL     1       6.270   5.823  16.918  0.00  0.00    +0.000 A 
ATOM     20  O   UNL     1       5.854   4.718  17.627  0.00  0.00    +0.000 OA
BRANCH  19  21
ATOM     21  C   UNL     1       7.082   6.872  17.459  0.00  0.00    +0.000 A 
ATOM     22  C   UNL     1       7.955   6.815  18.535  0.00  0.00    +0.000 A 
ATOM     23  C   UNL     1       8.547   8.093  18.670  0.00  0.00    +0.000 A 
ATOM     24  C   UNL     1       8.001   8.867  17.676  0.00  0.00    +0.000 A 
ATOM     25  O   UNL     1       7.119   8.144  16.940  0.00  0.00    +0.000 OA
ENDBRANCH  19  21
ENDBRANCH  15  16
ENDBRANCH   2  15
TORSDOF 4
ENDMDL
MODEL 8
REMARK VINA RESULT:      -7.9      3.996      7.967
REMARK  Name = 
REMARK  5 active torsions:
REMARK  status: ('A' for Active; 'I' for Inactive)
REMARK    1  A    between atoms: C_1  and  N_2
REMARK    2  A    between atoms: N_2  and  C_3
REMARK    3  A    between atoms: N_2  and  C_14
REMARK    4  A    between atoms: C_3  and  C_4
REMARK    5  A    between atoms: C_7  and  C_8
REMARK                            x       y       z     vdW  Elec       q    Type
REMARK                         _______ _______ _______ _____ _____    ______ ____
ROOT
ATOM      1  C   UNL     1       2.863   4.341  20.988  0.00  0.00    +0.000 C 
ATOM      2  N   UNL     1       1.878   5.133  20.259  0.00  0.00    +0.000 NA
ENDROOT
BRANCH   2   3
ATOM      3  C   UNL     1       1.180   4.424  19.145  0.00  0.00    +0.000 C 
ATOM      4  C   UNL     1       0.915   2.922  19.401  0.00  0.00    +0.000 C 
ATOM      5  C   UNL     1       2.071   1.988  19.030  0.00  0.00    +0.000 C 
ATOM      6  C   UNL     1       2.722   2.287  17.676  0.00  0.00    +0.000 C 
ATOM      7  N   UNL     1       2.893   3.719  17.473  0.00  0.00    +0.000 N 
ATOM      8  C   UNL     1       4.078   4.322  17.104  0.00  0.00    +0.000 A 
ATOM      9  C   UNL     1       5.107   3.633  16.476  0.00  0.00    +0.000 A 
ATOM     10  C   UNL     1       6.300   4.284  16.154  0.00  0.00    +0.000 A 
ATOM     11  C   UNL     1       6.429   5.610  16.490  0.00  0.00    +0.000 A 
ATOM     12  N   UNL     1       5.441   6.288  17.088  0.00  0.00    +0.000 NA
ATOM     13  N   UNL     1       4.263   5.635  17.373  0.00  0.00    +0.000 NA
ATOM     14  C   UNL     1       1.721   4.565  17.696  0.00  0.00    +0.000 C 
ENDBRANCH   2   3
BRANCH   2  15
ATOM     15  C   UNL     1       2.479   6.405  19.784  0.00  0.00    +0.000 C 
BRANCH  15  16
ATOM     16  C   UNL     1       1.733   7.649  20.159  0.00  0.00    +0.000 A 
ATOM     17  N   UNL     1       1.316   8.038  21.346  0.00  0.00    +0.000 NA
ATOM     18  N   UNL     1       0.763   9.287  21.173  0.00  0.00    +0.000 NA
ATOM     19  C   UNL     1       0.877   9.588  19.892  0.00  0.00    +0.000 A 
ATOM     20  O   UNL     1       1.488   8.579  19.182  0.00  0.00    +0.000 OA
BRANCH  19  21
ATOM     21  C   UNL     1       0.451  10.832  19.324  0.00  0.00    +0.000 A 
ATOM     22  C   UNL     1      -0.772  11.138  18.746  0.00  0.00    +0.000 A 
ATOM     23  C   UNL     1      -0.729  12.498  18.356  0.00  0.00    +0.000 A 
ATOM     24  C   UNL     1       0.519  12.951  18.709  0.00  0.00    +0.000 A 
ATOM     25  O   UNL     1       1.238  11.958  19.293  0.00  0.00    +0.000 OA
ENDBRANCH  19  21
ENDBRANCH  15  16
ENDBRANCH   2  15
TORSDOF 4
ENDMDL
MODEL 9
REMARK VINA RESULT:      -7.7      3.497      6.877
REMARK  Name = 
REMARK  5 active torsions:
REMARK  status: ('A' for Active; 'I' for Inactive)
REMARK    1  A    between atoms: C_1  and  N_2
REMARK    2  A    between atoms: N_2  and  C_3
REMARK    3  A    between atoms: N_2  and  C_14
REMARK    4  A    between atoms: C_3  and  C_4
REMARK    5  A    between atoms: C_7  and  C_8
REMARK                            x       y       z     vdW  Elec       q    Type
REMARK                         _______ _______ _______ _____ _____    ______ ____
ROOT
ATOM      1  C   UNL     1       6.155   7.771  17.395  0.00  0.00    +0.000 C 
ATOM      2  N   UNL     1       5.378   6.680  17.972  0.00  0.00    +0.000 NA
ENDROOT
BRANCH   2   3
ATOM      3  C   UNL     1       6.012   5.330  17.897  0.00  0.00    +0.000 C 
ATOM      4  C   UNL     1       6.149   4.760  16.466  0.00  0.00    +0.000 C 
ATOM      5  C   UNL     1       4.918   4.011  15.945  0.00  0.00    +0.000 C 
ATOM      6  C   UNL     1       4.292   3.038  16.950  0.00  0.00    +0.000 C 
ATOM      7  N   UNL     1       4.242   3.613  18.287  0.00  0.00    +0.000 N 
ATOM      8  C   UNL     1       3.112   3.663  19.076  0.00  0.00    +0.000 A 
ATOM      9  C   UNL     1       2.028   2.817  18.889  0.00  0.00    +0.000 A 
ATOM     10  C   UNL     1       0.893   2.932  19.696  0.00  0.00    +0.000 A 
ATOM     11  C   UNL     1       0.877   3.911  20.660  0.00  0.00    +0.000 A 
ATOM     12  N   UNL     1       1.919   4.728  20.856  0.00  0.00    +0.000 NA
ATOM     13  N   UNL     1       3.039   4.581  20.069  0.00  0.00    +0.000 NA
ATOM     14  C   UNL     1       5.482   4.188  18.808  0.00  0.00    +0.000 C 
ENDBRANCH   2   3
BRANCH   2  15
ATOM     15  C   UNL     1       4.007   6.655  17.398  0.00  0.00    +0.000 C 
BRANCH  15  16
ATOM     16  C   UNL     1       3.093   7.744  17.870  0.00  0.00    +0.000 A 
ATOM     17  N   UNL     1       2.624   8.778  17.202  0.00  0.00    +0.000 NA
ATOM     18  N   UNL     1       1.761   9.431  18.054  0.00  0.00    +0.000 NA
ATOM     19  C   UNL     1       1.752   8.756  19.190  0.00  0.00    +0.000 A 
ATOM     20  O   UNL     1       2.588   7.663  19.141  0.00  0.00    +0.000 OA
BRANCH  19  21
ATOM     21  C   UNL     1       0.939   9.102  20.317  0.00  0.00    +0.000 A 
ATOM     22  C   UNL     1       0.694   8.357  21.460  0.00  0.00    +0.000 A 
ATOM     23  C   UNL     1      -0.147   9.128  22.298  0.00  0.00    +0.000 A 
ATOM     24  C   UNL     1      -0.379  10.300  21.620  0.00  0.00    +0.000 A 
ATOM     25  O   UNL     1       0.269  10.297  20.427  0.00  0.00    +0.000 OA
ENDBRANCH  19  21
ENDBRANCH  15  16
ENDBRANCH   2  15
TORSDOF 4
ENDMDL
