MODEL 1
REMARK VINA RESULT:      -8.1      0.000      0.000
REMARK  Name = 
REMARK  1 active torsions:
REMARK  status: ('A' for Active; 'I' for Inactive)
REMARK    1  A    between atoms: N_5  and  C_6
REMARK                            x       y       z     vdW  Elec       q    Type
REMARK                         _______ _______ _______ _____ _____    ______ ____
ROOT
ATOM      1  O   UNL     1       7.870   6.992  16.923  0.00  0.00    +0.000 OA
ATOM      2  C   UNL     1       7.062   6.071  16.929  0.00  0.00    +0.000 A 
ATOM      3  N   UNL     1       6.392   5.691  18.068  0.00  0.00    +0.000 N 
ATOM      4  C   UNL     1       5.399   4.738  18.101  0.00  0.00    +0.000 A 
ATOM      5  N   UNL     1       4.773   4.565  19.310  0.00  0.00    +0.000 N 
ATOM      6  N   UNL     1       5.092   4.080  17.028  0.00  0.00    +0.000 NA
ATOM      7  C   UNL     1       5.757   4.331  15.828  0.00  0.00    +0.000 A 
ATOM      8  C   UNL     1       5.413   3.569  14.710  0.00  0.00    +0.000 A 
ATOM      9  C   UNL     1       6.062   3.784  13.495  0.00  0.00    +0.000 A 
ATOM     10 CL   UNL     1       5.650   2.823  12.131  0.00  0.00    +0.000 Cl
ATOM     11  C   UNL     1       7.046   4.768  13.384  0.00  0.00    +0.000 A 
ATOM     12  C   UNL     1       7.386   5.543  14.497  0.00  0.00    +0.000 A 
ATOM     13  C   UNL     1       6.739   5.310  15.712  0.00  0.00    +0.000 A 
ATOM     14  H   UNL     1       6.611   6.230  18.891  0.00  0.00    +0.000 HD
ATOM     15  H   UNL     1       5.059   5.161  20.078  0.00  0.00    +0.000 HD
ENDROOT
BRANCH   5  16
ATOM     16  C   UNL     1       3.448   4.092  19.484  0.00  0.00    +0.000 A 
ATOM     17  C   UNL     1       2.343   4.923  19.698  0.00  0.00    +0.000 A 
ATOM     18  C   UNL     1       1.086   4.393  20.010  0.00  0.00    +0.000 A 
ATOM     19  C   UNL     1       0.907   3.014  20.079  0.00  0.00    +0.000 A 
ATOM     20  C   UNL     1       1.977   2.166  19.807  0.00  0.00    +0.000 A 
ATOM     21  C   UNL     1       3.226   2.707  19.508  0.00  0.00    +0.000 A 
ATOM     22  F   UNL     1       4.255   1.876  19.278  0.00  0.00    +0.000 F 
ENDBRANCH   5  16
TORSDOF 1
ENDMDL
MODEL 2
REMARK VINA RESULT:      -8.1      1.011      1.468
REMARK  Name = 
REMARK  1 active torsions:
REMARK  status: ('A' for Active; 'I' for Inactive)
REMARK    1  A    between atoms: N_5  and  C_6
REMARK                            x       y       z     vdW  Elec       q    Type
REMARK                         _______ _______ _______ _____ _____    ______ ____
ROOT
ATOM      1  O   UNL     1       7.834   6.918  16.885  0.00  0.00    +0.000 OA
ATOM      2  C   UNL     1       7.062   5.966  16.879  0.00  0.00    +0.000 A 
ATOM      3  N   UNL     1       6.432   5.526  18.018  0.00  0.00    +0.000 N 
ATOM      4  C   UNL     1       5.477   4.534  18.042  0.00  0.00    +0.000 A 
ATOM      5  N   UNL     1       4.884   4.301  19.257  0.00  0.00    +0.000 N 
ATOM      6  N   UNL     1       5.174   3.897  16.955  0.00  0.00    +0.000 NA
ATOM      7  C   UNL     1       5.803   4.209  15.751  0.00  0.00    +0.000 A 
ATOM      8  C   UNL     1       5.465   3.468  14.617  0.00  0.00    +0.000 A 
ATOM      9  C   UNL     1       6.080   3.744  13.397  0.00  0.00    +0.000 A 
ATOM     10 CL   UNL     1       5.676   2.809  12.012  0.00  0.00    +0.000 Cl
ATOM     11  C   UNL     1       7.022   4.770  13.296  0.00  0.00    +0.000 A 
ATOM     12  C   UNL     1       7.356   5.524  14.425  0.00  0.00    +0.000 A 
ATOM     13  C   UNL     1       6.744   5.229  15.645  0.00  0.00    +0.000 A 
ATOM     14  H   UNL     1       6.648   6.049  18.852  0.00  0.00    +0.000 HD
ATOM     15  H   UNL     1       5.162   4.884  20.037  0.00  0.00    +0.000 HD
ENDROOT
BRANCH   5  16
ATOM     16  C   UNL     1       3.583   3.771  19.442  0.00  0.00    +0.000 A 
ATOM     17  C   UNL     1       3.245   2.431  19.217  0.00  0.00    +0.000 A 
ATOM     18  C   UNL     1       1.915   1.999  19.272  0.00  0.00    +0.000 A 
ATOM     19  C   UNL     1       0.901   2.898  19.591  0.00  0.00    +0.000 A 
ATOM     20  C   UNL     1       1.220   4.221  19.883  0.00  0.00    +0.000 A 
ATOM     21  C   UNL     1       2.547   4.642  19.813  0.00  0.00    +0.000 A 
ATOM     22  F   UNL     1       2.834   5.928  20.066  0.00  0.00    +0.000 F 
ENDBRANCH   5  16
TORSDOF 1
ENDMDL
MODEL 3
REMARK VINA RESULT:      -7.7      3.371      6.551
REMARK  Name = 
REMARK  1 active torsions:
REMARK  status: ('A' for Active; 'I' for Inactive)
REMARK    1  A    between atoms: N_5  and  C_6
REMARK                            x       y       z     vdW  Elec       q    Type
REMARK                         _______ _______ _______ _____ _____    ______ ____
ROOT
ATOM      1  O   UNL     1       3.058   2.963  19.416  0.00  0.00    +0.000 OA
ATOM      2  C   UNL     1       3.596   3.721  18.618  0.00  0.00    +0.000 A 
ATOM      3  N   UNL     1       4.575   3.298  17.751  0.00  0.00    +0.000 N 
ATOM      4  C   UNL     1       5.130   4.083  16.766  0.00  0.00    +0.000 A 
ATOM      5  N   UNL     1       6.020   3.458  15.929  0.00  0.00    +0.000 N 
ATOM      6  N   UNL     1       4.790   5.329  16.658  0.00  0.00    +0.000 NA
ATOM      7  C   UNL     1       3.857   5.888  17.531  0.00  0.00    +0.000 A 
ATOM      8  C   UNL     1       3.553   7.243  17.395  0.00  0.00    +0.000 A 
ATOM      9  C   UNL     1       2.632   7.840  18.254  0.00  0.00    +0.000 A 
ATOM     10 CL   UNL     1       2.284   9.516  18.095  0.00  0.00    +0.000 Cl
ATOM     11  C   UNL     1       1.999   7.086  19.245  0.00  0.00    +0.000 A 
ATOM     12  C   UNL     1       2.290   5.725  19.379  0.00  0.00    +0.000 A 
ATOM     13  C   UNL     1       3.224   5.141  18.520  0.00  0.00    +0.000 A 
ATOM     14  H   UNL     1       4.809   2.320  17.818  0.00  0.00    +0.000 HD
ATOM     15  H   UNL     1       6.186   2.468  16.072  0.00  0.00    +0.000 HD
ENDROOT
BRANCH   5  16
ATOM     16  C   UNL     1       6.296   3.844  14.594  0.00  0.00    +0.000 A 
ATOM     17  C   UNL     1       5.742   3.222  13.470  0.00  0.00    +0.000 A 
ATOM     18  C   UNL     1       6.165   3.548  12.177  0.00  0.00    +0.000 A 
ATOM     19  C   UNL     1       7.131   4.534  11.986  0.00  0.00    +0.000 A 
ATOM     20  C   UNL     1       7.650   5.212  13.086  0.00  0.00    +0.000 A 
ATOM     21  C   UNL     1       7.227   4.869  14.369  0.00  0.00    +0.000 A 
ATOM     22  F   UNL     1       7.761   5.510  15.421  0.00  0.00    +0.000 F 
ENDBRANCH   5  16
TORSDOF 1
ENDMDL
MODEL 4
REMARK VINA RESULT:      -7.6      3.011      6.309
REMARK  Name = 
REMARK  1 active torsions:
REMARK  status: ('A' for Active; 'I' for Inactive)
REMARK    1  A    between atoms: N_5  and  C_6
REMARK                            x       y       z     vdW  Elec       q    Type
REMARK                         _______ _______ _______ _____ _____    ______ ____
ROOT
ATOM      1  O   UNL     1       6.795   5.132  19.875  0.00  0.00    +0.000 OA
ATOM      2  C   UNL     1       6.158   4.958  18.843  0.00  0.00    +0.000 A 
ATOM      3  N   UNL     1       6.647   5.319  17.610  0.00  0.00    +0.000 N 
ATOM      4  C   UNL     1       6.017   5.045  16.417  0.00  0.00    +0.000 A 
ATOM      5  N   UNL     1       6.707   5.391  15.281  0.00  0.00    +0.000 N 
ATOM      6  N   UNL     1       4.853   4.477  16.411  0.00  0.00    +0.000 NA
ATOM      7  C   UNL     1       4.226   4.131  17.607  0.00  0.00    +0.000 A 
ATOM      8  C   UNL     1       2.957   3.554  17.546  0.00  0.00    +0.000 A 
ATOM      9  C   UNL     1       2.294   3.203  18.721  0.00  0.00    +0.000 A 
ATOM     10 CL   UNL     1       0.720   2.517  18.636  0.00  0.00    +0.000 Cl
ATOM     11  C   UNL     1       2.899   3.411  19.962  0.00  0.00    +0.000 A 
ATOM     12  C   UNL     1       4.175   3.977  20.030  0.00  0.00    +0.000 A 
ATOM     13  C   UNL     1       4.824   4.337  18.847  0.00  0.00    +0.000 A 
ATOM     14  H   UNL     1       7.567   5.729  17.621  0.00  0.00    +0.000 HD
ATOM     15  H   UNL     1       7.630   5.792  15.394  0.00  0.00    +0.000 HD
ENDROOT
BRANCH   5  16
ATOM     16  C   UNL     1       6.560   4.770  14.016  0.00  0.00    +0.000 A 
ATOM     17  C   UNL     1       5.509   3.906  13.687  0.00  0.00    +0.000 A 
ATOM     18  C   UNL     1       5.497   3.206  12.475  0.00  0.00    +0.000 A 
ATOM     19  C   UNL     1       6.525   3.389  11.553  0.00  0.00    +0.000 A 
ATOM     20  C   UNL     1       7.547   4.293  11.831  0.00  0.00    +0.000 A 
ATOM     21  C   UNL     1       7.553   4.974  13.047  0.00  0.00    +0.000 A 
ATOM     22  F   UNL     1       8.562   5.818  13.313  0.00  0.00    +0.000 F 
ENDBRANCH   5  16
TORSDOF 1
ENDMDL
MODEL 5
REMARK VINA RESULT:      -7.6      5.784      7.838
REMARK  Name = 
REMARK  1 active torsions:
REMARK  status: ('A' for Active; 'I' for Inactive)
REMARK    1  A    between atoms: N_5  and  C_6
REMARK                            x       y       z     vdW  Elec       q    Type
REMARK                         _______ _______ _______ _____ _____    ______ ____
ROOT
ATOM      1  O   UNL     1       0.776   9.718  23.380  0.00  0.00    +0.000 OA
ATOM      2  C   UNL     1       0.912   9.362  22.215  0.00  0.00    +0.000 A 
ATOM      3  N   UNL     1       1.707   8.297  21.863  0.00  0.00    +0.000 N 
ATOM      4  C   UNL     1       1.805   7.793  20.585  0.00  0.00    +0.000 A 
ATOM      5  N   UNL     1       2.568   6.661  20.443  0.00  0.00    +0.000 N 
ATOM      6  N   UNL     1       1.183   8.373  19.608  0.00  0.00    +0.000 NA
ATOM      7  C   UNL     1       0.404   9.507  19.835  0.00  0.00    +0.000 A 
ATOM      8  C   UNL     1      -0.215  10.114  18.741  0.00  0.00    +0.000 A 
ATOM      9  C   UNL     1      -0.994  11.254  18.927  0.00  0.00    +0.000 A 
ATOM     10 CL   UNL     1      -1.732  12.010  17.571  0.00  0.00    +0.000 Cl
ATOM     11  C   UNL     1      -1.172  11.787  20.206  0.00  0.00    +0.000 A 
ATOM     12  C   UNL     1      -0.565  11.177  21.307  0.00  0.00    +0.000 A 
ATOM     13  C   UNL     1       0.224  10.042  21.107  0.00  0.00    +0.000 A 
ATOM     14  H   UNL     1       2.159   7.831  22.633  0.00  0.00    +0.000 HD
ATOM     15  H   UNL     1       2.978   6.261  21.279  0.00  0.00    +0.000 HD
ENDROOT
BRANCH   5  16
ATOM     16  C   UNL     1       2.403   5.687  19.427  0.00  0.00    +0.000 A 
ATOM     17  C   UNL     1       1.464   4.651  19.484  0.00  0.00    +0.000 A 
ATOM     18  C   UNL     1       1.448   3.633  18.523  0.00  0.00    +0.000 A 
ATOM     19  C   UNL     1       2.354   3.657  17.466  0.00  0.00    +0.000 A 
ATOM     20  C   UNL     1       3.254   4.712  17.353  0.00  0.00    +0.000 A 
ATOM     21  C   UNL     1       3.267   5.713  18.323  0.00  0.00    +0.000 A 
ATOM     22  F   UNL     1       4.163   6.707  18.217  0.00  0.00    +0.000 F 
ENDBRANCH   5  16
TORSDOF 1
ENDMDL
MODEL 6
REMARK VINA RESULT:      -7.5      5.841      7.891
REMARK  Name = 
REMARK  1 active torsions:
REMARK  status: ('A' for Active; 'I' for Inactive)
REMARK    1  A    between atoms: N_5  and  C_6
REMARK                            x       y       z     vdW  Elec       q    Type
REMARK                         _______ _______ _______ _____ _____    ______ ____
ROOT
ATOM      1  O   UNL     1       0.429   9.851  23.358  0.00  0.00    +0.000 OA
ATOM      2  C   UNL     1       0.665   9.485  22.213  0.00  0.00    +0.000 A 
ATOM      3  N   UNL     1       1.538   8.459  21.935  0.00  0.00    +0.000 N 
ATOM      4  C   UNL     1       1.751   7.943  20.677  0.00  0.00    +0.000 A 
ATOM      5  N   UNL     1       2.581   6.852  20.609  0.00  0.00    +0.000 N 
ATOM      6  N   UNL     1       1.169   8.474  19.648  0.00  0.00    +0.000 NA
ATOM      7  C   UNL     1       0.317   9.568  19.801  0.00  0.00    +0.000 A 
ATOM      8  C   UNL     1      -0.256  10.124  18.657  0.00  0.00    +0.000 A 
ATOM      9  C   UNL     1      -1.105  11.224  18.768  0.00  0.00    +0.000 A 
ATOM     10 CL   UNL     1      -1.786  11.918  17.350  0.00  0.00    +0.000 Cl
ATOM     11  C   UNL     1      -1.400  11.765  20.020  0.00  0.00    +0.000 A 
ATOM     12  C   UNL     1      -0.839  11.205  21.172  0.00  0.00    +0.000 A 
ATOM     13  C   UNL     1       0.021  10.112  21.047  0.00  0.00    +0.000 A 
ATOM     14  H   UNL     1       1.959   8.030  22.743  0.00  0.00    +0.000 HD
ATOM     15  H   UNL     1       2.952   6.487  21.478  0.00  0.00    +0.000 HD
ENDROOT
BRANCH   5  16
ATOM     16  C   UNL     1       2.539   5.856  19.602  0.00  0.00    +0.000 A 
ATOM     17  C   UNL     1       3.348   5.865  18.460  0.00  0.00    +0.000 A 
ATOM     18  C   UNL     1       3.158   4.937  17.429  0.00  0.00    +0.000 A 
ATOM     19  C   UNL     1       2.173   3.960  17.542  0.00  0.00    +0.000 A 
ATOM     20  C   UNL     1       1.399   3.891  18.697  0.00  0.00    +0.000 A 
ATOM     21  C   UNL     1       1.591   4.828  19.711  0.00  0.00    +0.000 A 
ATOM     22  F   UNL     1       0.815   4.768  20.805  0.00  0.00    +0.000 F 
ENDBRANCH   5  16
TORSDOF 1
ENDMDL
MODEL 7
REMARK VINA RESULT:      -7.2      3.515      6.637
REMARK  Name = 
REMARK  1 active torsions:
REMARK  status: ('A' for Active; 'I' for Inactive)
REMARK    1  A    between atoms: N_5  and  C_6
REMARK                            x       y       z     vdW  Elec       q    Type
REMARK                         _______ _______ _______ _____ _____    ______ ____
ROOT
ATOM      1  O   UNL     1       2.475   3.044  21.090  0.00  0.00    +0.000 OA
ATOM      2  C   UNL     1       3.002   3.832  20.313  0.00  0.00    +0.000 A 
ATOM      3  N   UNL     1       4.063   3.475  19.515  0.00  0.00    +0.000 N 
ATOM      4  C   UNL     1       4.616   4.289  18.552  0.00  0.00    +0.000 A 
ATOM      5  N   UNL     1       5.603   3.724  17.783  0.00  0.00    +0.000 N 
ATOM      6  N   UNL     1       4.189   5.503  18.402  0.00  0.00    +0.000 NA
ATOM      7  C   UNL     1       3.163   5.998  19.206  0.00  0.00    +0.000 A 
ATOM      8  C   UNL     1       2.765   7.324  19.028  0.00  0.00    +0.000 A 
ATOM      9  C   UNL     1       1.750   7.858  19.819  0.00  0.00    +0.000 A 
ATOM     10 CL   UNL     1       1.284   9.500  19.610  0.00  0.00    +0.000 Cl
ATOM     11  C   UNL     1       1.115   7.070  20.782  0.00  0.00    +0.000 A 
ATOM     12  C   UNL     1       1.501   5.738  20.957  0.00  0.00    +0.000 A 
ATOM     13  C   UNL     1       2.529   5.218  20.168  0.00  0.00    +0.000 A 
ATOM     14  H   UNL     1       4.366   2.519  19.614  0.00  0.00    +0.000 HD
ATOM     15  H   UNL     1       5.834   2.752  17.953  0.00  0.00    +0.000 HD
ENDROOT
BRANCH   5  16
ATOM     16  C   UNL     1       5.931   4.114  16.461  0.00  0.00    +0.000 A 
ATOM     17  C   UNL     1       5.211   3.718  15.328  0.00  0.00    +0.000 A 
ATOM     18  C   UNL     1       5.669   4.011  14.038  0.00  0.00    +0.000 A 
ATOM     19  C   UNL     1       6.843   4.740  13.863  0.00  0.00    +0.000 A 
ATOM     20  C   UNL     1       7.542   5.200  14.976  0.00  0.00    +0.000 A 
ATOM     21  C   UNL     1       7.081   4.891  16.254  0.00  0.00    +0.000 A 
ATOM     22  F   UNL     1       7.783   5.314  17.317  0.00  0.00    +0.000 F 
ENDBRANCH   5  16
TORSDOF 1
ENDMDL
MODEL 8
REMARK VINA RESULT:      -7.2      5.281      6.805
REMARK  Name = 
REMARK  1 active torsions:
REMARK  status: ('A' for Active; 'I' for Inactive)
REMARK    1  A    between atoms: N_5  and  C_6
REMARK                            x       y       z     vdW  Elec       q    Type
REMARK                         _______ _______ _______ _____ _____    ______ ____
ROOT
ATOM      1  O   UNL     1       4.799   6.223  16.738  0.00  0.00    +0.000 OA
ATOM      2  C   UNL     1       3.956   6.575  17.555  0.00  0.00    +0.000 A 
ATOM      3  N   UNL     1       3.410   7.837  17.548  0.00  0.00    +0.000 N 
ATOM      4  C   UNL     1       2.385   8.242  18.373  0.00  0.00    +0.000 A 
ATOM      5  N   UNL     1       1.901   9.508  18.151  0.00  0.00    +0.000 N 
ATOM      6  N   UNL     1       1.922   7.439  19.278  0.00  0.00    +0.000 NA
ATOM      7  C   UNL     1       2.449   6.157  19.426  0.00  0.00    +0.000 A 
ATOM      8  C   UNL     1       1.940   5.345  20.440  0.00  0.00    +0.000 A 
ATOM      9  C   UNL     1       2.447   4.060  20.625  0.00  0.00    +0.000 A 
ATOM     10 CL   UNL     1       1.831   3.078  21.893  0.00  0.00    +0.000 Cl
ATOM     11  C   UNL     1       3.455   3.572  19.791  0.00  0.00    +0.000 A 
ATOM     12  C   UNL     1       3.962   4.376  18.765  0.00  0.00    +0.000 A 
ATOM     13  C   UNL     1       3.455   5.666  18.598  0.00  0.00    +0.000 A 
ATOM     14  H   UNL     1       3.752   8.443  16.819  0.00  0.00    +0.000 HD
ATOM     15  H   UNL     1       2.304  10.039  17.389  0.00  0.00    +0.000 HD
ENDROOT
BRANCH   5  16
ATOM     16  C   UNL     1       0.587   9.943  18.452  0.00  0.00    +0.000 A 
ATOM     17  C   UNL     1      -0.519   9.718  17.625  0.00  0.00    +0.000 A 
ATOM     18  C   UNL     1      -1.762  10.299  17.900  0.00  0.00    +0.000 A 
ATOM     19  C   UNL     1      -1.926  11.091  19.034  0.00  0.00    +0.000 A 
ATOM     20  C   UNL     1      -0.857  11.276  19.907  0.00  0.00    +0.000 A 
ATOM     21  C   UNL     1       0.378  10.700  19.614  0.00  0.00    +0.000 A 
ATOM     22  F   UNL     1       1.407  10.915  20.449  0.00  0.00    +0.000 F 
ENDBRANCH   5  16
TORSDOF 1
ENDMDL
MODEL 9
REMARK VINA RESULT:      -7.1      7.565      9.298
REMARK  Name = 
REMARK  1 active torsions:
REMARK  status: ('A' for Active; 'I' for Inactive)
REMARK    1  A    between atoms: N_5  and  C_6
REMARK                            x       y       z     vdW  Elec       q    Type
REMARK                         _______ _______ _______ _____ _____    ______ ____
ROOT
ATOM      1  O   UNL     1      -3.008  12.441  20.256  0.00  0.00    +0.000 OA
ATOM      2  C   UNL     1      -2.313  11.765  19.507  0.00  0.00    +0.000 A 
ATOM      3  N   UNL     1      -1.045  11.358  19.851  0.00  0.00    +0.000 N 
ATOM      4  C   UNL     1      -0.270  10.510  19.093  0.00  0.00    +0.000 A 
ATOM      5  N   UNL     1       0.928  10.134  19.647  0.00  0.00    +0.000 N 
ATOM      6  N   UNL     1      -0.693  10.100  17.939  0.00  0.00    +0.000 NA
ATOM      7  C   UNL     1      -1.936  10.506  17.453  0.00  0.00    +0.000 A 
ATOM      8  C   UNL     1      -2.328  10.065  16.188  0.00  0.00    +0.000 A 
ATOM      9  C   UNL     1      -3.558  10.457  15.665  0.00  0.00    +0.000 A 
ATOM     10 CL   UNL     1      -4.021   9.930  14.095  0.00  0.00    +0.000 Cl
ATOM     11  C   UNL     1      -4.411  11.279  16.405  0.00  0.00    +0.000 A 
ATOM     12  C   UNL     1      -4.030  11.714  17.677  0.00  0.00    +0.000 A 
ATOM     13  C   UNL     1      -2.789  11.326  18.186  0.00  0.00    +0.000 A 
ATOM     14  H   UNL     1      -0.738  11.653  20.765  0.00  0.00    +0.000 HD
ATOM     15  H   UNL     1       1.146  10.477  20.575  0.00  0.00    +0.000 HD
ENDROOT
BRANCH   5  16
ATOM     16  C   UNL     1       1.617   8.929  19.362  0.00  0.00    +0.000 A 
ATOM     17  C   UNL     1       2.252   8.662  18.144  0.00  0.00    +0.000 A 
ATOM     18  C   UNL     1       2.787   7.399  17.867  0.00  0.00    +0.000 A 
ATOM     19  C   UNL     1       2.725   6.389  18.823  0.00  0.00    +0.000 A 
ATOM     20  C   UNL     1       2.156   6.651  20.066  0.00  0.00    +0.000 A 
ATOM     21  C   UNL     1       1.616   7.910  20.325  0.00  0.00    +0.000 A 
ATOM     22  F   UNL     1       1.042   8.136  21.517  0.00  0.00    +0.000 F 
ENDBRANCH   5  16
TORSDOF 1
ENDMDL
