MODEL 1
REMARK VINA RESULT:      -7.7      0.000      0.000
REMARK  Name = 
REMARK  8 active torsions:
REMARK  status: ('A' for Active; 'I' for Inactive)
REMARK    1  A    between atoms: C_1  and  O_2
REMARK    2  A    between atoms: O_2  and  C_3
REMARK    3  A    between atoms: C_5  and  C_6
REMARK    4  A    between atoms: C_14  and  O_15
REMARK    5  A    between atoms: C_19  and  O_20
REMARK    6  A    between atoms: O_20  and  C_21
REMARK    7  A    between atoms: C_22  and  O_23
REMARK    8  A    between atoms: O_23  and  C_24
REMARK                            x       y       z     vdW  Elec       q    Type
REMARK                         _______ _______ _______ _____ _____    ______ ____
ROOT
ATOM      1  C   UNL     1       2.385   6.783  19.479  0.00  0.00    +0.000 C 
ATOM      2  C   UNL     1       2.947   6.923  18.057  0.00  0.00    +0.000 C 
ATOM      3  C   UNL     1       3.843   5.762  17.827  0.00  0.00    +0.000 C 
ATOM      4  O   UNL     1       5.047   5.728  18.011  0.00  0.00    +0.000 OA
ATOM      5  O   UNL     1       3.074   4.708  17.432  0.00  0.00    +0.000 OA
ATOM      6  C   UNL     1       2.326   4.339  18.566  0.00  0.00    +0.000 A 
ATOM      7  C   UNL     1       2.238   2.929  18.621  0.00  0.00    +0.000 A 
ATOM      8  C   UNL     1       1.911   2.323  19.806  0.00  0.00    +0.000 A 
ATOM      9  C   UNL     1       1.658   3.127  20.912  0.00  0.00    +0.000 A 
ATOM     10  C   UNL     1       1.646   4.569  20.824  0.00  0.00    +0.000 A 
ATOM     11  C   UNL     1       1.954   5.246  19.615  0.00  0.00    +0.000 A 
ENDROOT
BRANCH   1  14
ATOM     12  C   UNL     1       1.182  10.626  19.317  0.00  0.00    +0.000 A 
ATOM     13  C   UNL     1       1.585   9.304  18.831  0.00  0.00    +0.000 A 
ATOM     14  C   UNL     1       1.674   8.189  19.683  0.00  0.00    +0.000 A 
ATOM     15  C   UNL     1       1.340   8.498  21.046  0.00  0.00    +0.000 A 
ATOM     16  C   UNL     1       0.983   9.785  21.550  0.00  0.00    +0.000 A 
ATOM     17  C   UNL     1       0.917  10.879  20.684  0.00  0.00    +0.000 A 
BRANCH  12  19
ATOM     18  C   UNL     1       2.418  12.314  18.200  0.00  0.00    +0.000 C 
ATOM     19  O   UNL     1       1.155  11.743  18.507  0.00  0.00    +0.000 OA
ENDBRANCH  12  19
BRANCH  16  20
ATOM     20  O   UNL     1       0.822   9.806  22.920  0.00  0.00    +0.000 OA
ATOM     21  C   UNL     1      -0.484   9.638  23.474  0.00  0.00    +0.000 C 
ENDBRANCH  16  20
BRANCH  17  22
ATOM     22  O   UNL     1       0.833  12.116  21.274  0.00  0.00    +0.000 OA
ATOM     23  C   UNL     1      -0.397  12.806  21.470  0.00  0.00    +0.000 C 
ENDBRANCH  17  22
ENDBRANCH   1  14
BRANCH   9  24
ATOM     24  O   UNL     1       1.477   2.491  22.116  0.00  0.00    +0.000 OA
ATOM     25  H   UNL     1       1.187   3.140  22.799  0.00  0.00    +0.000 HD
ENDBRANCH   9  24
TORSDOF 5
ENDMDL
MODEL 2
REMARK VINA RESULT:      -7.6      3.840      7.574
REMARK  Name = 
REMARK  8 active torsions:
REMARK  status: ('A' for Active; 'I' for Inactive)
REMARK    1  A    between atoms: C_1  and  O_2
REMARK    2  A    between atoms: O_2  and  C_3
REMARK    3  A    between atoms: C_5  and  C_6
REMARK    4  A    between atoms: C_14  and  O_15
REMARK    5  A    between atoms: C_19  and  O_20
REMARK    6  A    between atoms: O_20  and  C_21
REMARK    7  A    between atoms: C_22  and  O_23
REMARK    8  A    between atoms: O_23  and  C_24
REMARK                            x       y       z     vdW  Elec       q    Type
REMARK                         _______ _______ _______ _____ _____    ______ ____
ROOT
ATOM      1  C   UNL     1       4.266   3.865  17.832  0.00  0.00    +0.000 C 
ATOM      2  C   UNL     1       4.031   2.376  17.542  0.00  0.00    +0.000 C 
ATOM      3  C   UNL     1       3.530   1.763  18.799  0.00  0.00    +0.000 C 
ATOM      4  O   UNL     1       4.202   1.215  19.655  0.00  0.00    +0.000 OA
ATOM      5  O   UNL     1       2.185   1.975  18.864  0.00  0.00    +0.000 OA
ATOM      6  C   UNL     1       2.030   3.358  19.078  0.00  0.00    +0.000 A 
ATOM      7  C   UNL     1       0.968   3.568  19.987  0.00  0.00    +0.000 A 
ATOM      8  C   UNL     1       0.876   4.765  20.646  0.00  0.00    +0.000 A 
ATOM      9  C   UNL     1       1.827   5.744  20.376  0.00  0.00    +0.000 A 
ATOM     10  C   UNL     1       2.846   5.563  19.369  0.00  0.00    +0.000 A 
ATOM     11  C   UNL     1       2.972   4.350  18.642  0.00  0.00    +0.000 A 
ENDROOT
BRANCH   1  14
ATOM     12  C   UNL     1       6.186   4.120  14.298  0.00  0.00    +0.000 A 
ATOM     13  C   UNL     1       5.172   3.703  15.269  0.00  0.00    +0.000 A 
ATOM     14  C   UNL     1       5.030   4.331  16.519  0.00  0.00    +0.000 A 
ATOM     15  C   UNL     1       5.978   5.391  16.723  0.00  0.00    +0.000 A 
ATOM     16  C   UNL     1       7.001   5.789  15.809  0.00  0.00    +0.000 A 
ATOM     17  C   UNL     1       7.127   5.138  14.580  0.00  0.00    +0.000 A 
BRANCH  12  19
ATOM     18  C   UNL     1       5.256   3.426  12.229  0.00  0.00    +0.000 C 
ATOM     19  O   UNL     1       6.380   3.471  13.095  0.00  0.00    +0.000 OA
ENDBRANCH  12  19
BRANCH  16  20
ATOM     20  O   UNL     1       7.834   6.763  16.317  0.00  0.00    +0.000 OA
ATOM     21  C   UNL     1       7.470   7.437  17.523  0.00  0.00    +0.000 C 
ENDBRANCH  16  20
BRANCH  17  22
ATOM     22  O   UNL     1       8.281   5.387  13.878  0.00  0.00    +0.000 OA
ATOM     23  C   UNL     1       8.292   5.895  12.548  0.00  0.00    +0.000 C 
ENDBRANCH  17  22
ENDBRANCH   1  14
BRANCH   9  24
ATOM     24  O   UNL     1       1.796   6.875  21.155  0.00  0.00    +0.000 OA
ATOM     25  H   UNL     1       1.021   6.843  21.763  0.00  0.00    +0.000 HD
ENDBRANCH   9  24
TORSDOF 5
ENDMDL
MODEL 3
REMARK VINA RESULT:      -7.5      1.073      2.572
REMARK  Name = 
REMARK  8 active torsions:
REMARK  status: ('A' for Active; 'I' for Inactive)
REMARK    1  A    between atoms: C_1  and  O_2
REMARK    2  A    between atoms: O_2  and  C_3
REMARK    3  A    between atoms: C_5  and  C_6
REMARK    4  A    between atoms: C_14  and  O_15
REMARK    5  A    between atoms: C_19  and  O_20
REMARK    6  A    between atoms: O_20  and  C_21
REMARK    7  A    between atoms: C_22  and  O_23
REMARK    8  A    between atoms: O_23  and  C_24
REMARK                            x       y       z     vdW  Elec       q    Type
REMARK                         _______ _______ _______ _____ _____    ______ ____
ROOT
ATOM      1  C   UNL     1       2.386   6.764  19.639  0.00  0.00    +0.000 C 
ATOM      2  C   UNL     1       2.787   6.939  18.168  0.00  0.00    +0.000 C 
ATOM      3  C   UNL     1       3.574   5.739  17.786  0.00  0.00    +0.000 C 
ATOM      4  O   UNL     1       4.787   5.625  17.824  0.00  0.00    +0.000 OA
ATOM      5  O   UNL     1       2.698   4.753  17.443  0.00  0.00    +0.000 OA
ATOM      6  C   UNL     1       2.064   4.375  18.642  0.00  0.00    +0.000 A 
ATOM      7  C   UNL     1       1.892   2.972  18.650  0.00  0.00    +0.000 A 
ATOM      8  C   UNL     1       1.667   2.330  19.839  0.00  0.00    +0.000 A 
ATOM      9  C   UNL     1       1.596   3.093  21.000  0.00  0.00    +0.000 A 
ATOM     10  C   UNL     1       1.667   4.536  20.972  0.00  0.00    +0.000 A 
ATOM     11  C   UNL     1       1.876   5.251  19.764  0.00  0.00    +0.000 A 
ENDROOT
BRANCH   1  14
ATOM     12  C   UNL     1       0.650   9.984  21.330  0.00  0.00    +0.000 A 
ATOM     13  C   UNL     1       1.497   8.795  21.222  0.00  0.00    +0.000 A 
ATOM     14  C   UNL     1       1.796   8.199  19.984  0.00  0.00    +0.000 A 
ATOM     15  C   UNL     1       1.180   8.873  18.875  0.00  0.00    +0.000 A 
ATOM     16  C   UNL     1       0.319  10.010  18.958  0.00  0.00    +0.000 A 
ATOM     17  C   UNL     1       0.028  10.573  20.203  0.00  0.00    +0.000 A 
BRANCH  12  19
ATOM     18  C   UNL     1      -0.519   9.731  23.378  0.00  0.00    +0.000 C 
ATOM     19  O   UNL     1       0.294  10.541  22.541  0.00  0.00    +0.000 OA
ENDBRANCH  12  19
BRANCH  16  20
ATOM     20  O   UNL     1      -0.214  10.377  17.740  0.00  0.00    +0.000 OA
ATOM     21  C   UNL     1      -1.515   9.915  17.377  0.00  0.00    +0.000 C 
ENDBRANCH  16  20
BRANCH  17  22
ATOM     22  O   UNL     1      -1.003  11.480  20.232  0.00  0.00    +0.000 OA
ATOM     23  C   UNL     1      -0.810  12.886  20.124  0.00  0.00    +0.000 C 
ENDBRANCH  17  22
ENDBRANCH   1  14
BRANCH   9  24
ATOM     24  O   UNL     1       1.516   2.413  22.190  0.00  0.00    +0.000 OA
ATOM     25  H   UNL     1       1.766   1.469  22.055  0.00  0.00    +0.000 HD
ENDBRANCH   9  24
TORSDOF 5
ENDMDL
MODEL 4
REMARK VINA RESULT:      -7.4      1.353      7.284
REMARK  Name = 
REMARK  8 active torsions:
REMARK  status: ('A' for Active; 'I' for Inactive)
REMARK    1  A    between atoms: C_1  and  O_2
REMARK    2  A    between atoms: O_2  and  C_3
REMARK    3  A    between atoms: C_5  and  C_6
REMARK    4  A    between atoms: C_14  and  O_15
REMARK    5  A    between atoms: C_19  and  O_20
REMARK    6  A    between atoms: O_20  and  C_21
REMARK    7  A    between atoms: C_22  and  O_23
REMARK    8  A    between atoms: O_23  and  C_24
REMARK                            x       y       z     vdW  Elec       q    Type
REMARK                         _______ _______ _______ _____ _____    ______ ____
ROOT
ATOM      1  C   UNL     1       1.909   8.168  20.109  0.00  0.00    +0.000 C 
ATOM      2  C   UNL     1       0.952   7.776  21.243  0.00  0.00    +0.000 C 
ATOM      3  C   UNL     1       0.574   9.029  21.945  0.00  0.00    +0.000 C 
ATOM      4  O   UNL     1       1.117   9.501  22.929  0.00  0.00    +0.000 OA
ATOM      5  O   UNL     1      -0.454   9.603  21.258  0.00  0.00    +0.000 OA
ATOM      6  C   UNL     1       0.103  10.050  20.046  0.00  0.00    +0.000 A 
ATOM      7  C   UNL     1      -0.465  11.300  19.710  0.00  0.00    +0.000 A 
ATOM      8  C   UNL     1       0.177  12.109  18.810  0.00  0.00    +0.000 A 
ATOM      9  C   UNL     1       1.363  11.656  18.241  0.00  0.00    +0.000 A 
ATOM     10  C   UNL     1       1.883  10.335  18.507  0.00  0.00    +0.000 A 
ATOM     11  C   UNL     1       1.243   9.448  19.414  0.00  0.00    +0.000 A 
ENDROOT
BRANCH   1  14
ATOM     12  C   UNL     1       3.265   4.993  18.030  0.00  0.00    +0.000 A 
ATOM     13  C   UNL     1       3.169   6.382  18.484  0.00  0.00    +0.000 A 
ATOM     14  C   UNL     1       2.429   6.747  19.623  0.00  0.00    +0.000 A 
ATOM     15  C   UNL     1       1.791   5.628  20.259  0.00  0.00    +0.000 A 
ATOM     16  C   UNL     1       1.837   4.272  19.813  0.00  0.00    +0.000 A 
ATOM     17  C   UNL     1       2.568   3.940  18.670  0.00  0.00    +0.000 A 
BRANCH  12  19
ATOM     18  C   UNL     1       5.331   4.425  17.014  0.00  0.00    +0.000 C 
ATOM     19  O   UNL     1       3.932   4.627  16.879  0.00  0.00    +0.000 OA
ENDBRANCH  12  19
BRANCH  16  20
ATOM     20  O   UNL     1       1.040   3.428  20.558  0.00  0.00    +0.000 OA
ATOM     21  C   UNL     1       1.619   2.686  21.632  0.00  0.00    +0.000 C 
ENDBRANCH  16  20
BRANCH  17  22
ATOM     22  O   UNL     1       2.351   2.685  18.155  0.00  0.00    +0.000 OA
ATOM     23  C   UNL     1       3.234   1.589  18.368  0.00  0.00    +0.000 C 
ENDBRANCH  17  22
ENDBRANCH   1  14
BRANCH   9  24
ATOM     24  O   UNL     1       2.058  12.544  17.458  0.00  0.00    +0.000 OA
ATOM     25  H   UNL     1       2.621  13.122  18.023  0.00  0.00    +0.000 HD
ENDBRANCH   9  24
TORSDOF 5
ENDMDL
MODEL 5
REMARK VINA RESULT:      -7.3      1.428      6.744
REMARK  Name = 
REMARK  8 active torsions:
REMARK  status: ('A' for Active; 'I' for Inactive)
REMARK    1  A    between atoms: C_1  and  O_2
REMARK    2  A    between atoms: O_2  and  C_3
REMARK    3  A    between atoms: C_5  and  C_6
REMARK    4  A    between atoms: C_14  and  O_15
REMARK    5  A    between atoms: C_19  and  O_20
REMARK    6  A    between atoms: O_20  and  C_21
REMARK    7  A    between atoms: C_22  and  O_23
REMARK    8  A    between atoms: O_23  and  C_24
REMARK                            x       y       z     vdW  Elec       q    Type
REMARK                         _______ _______ _______ _____ _____    ______ ____
ROOT
ATOM      1  C   UNL     1       1.417   8.123  19.296  0.00  0.00    +0.000 C 
ATOM      2  C   UNL     1       1.527   8.926  17.993  0.00  0.00    +0.000 C 
ATOM      3  C   UNL     1       0.394   9.885  17.977  0.00  0.00    +0.000 C 
ATOM      4  O   UNL     1      -0.697   9.710  17.462  0.00  0.00    +0.000 OA
ATOM      5  O   UNL     1       0.760  10.982  18.698  0.00  0.00    +0.000 OA
ATOM      6  C   UNL     1       0.821  10.553  20.037  0.00  0.00    +0.000 A 
ATOM      7  C   UNL     1       0.308  11.571  20.872  0.00  0.00    +0.000 A 
ATOM      8  C   UNL     1      -0.099  11.257  22.142  0.00  0.00    +0.000 A 
ATOM      9  C   UNL     1       0.029   9.940  22.571  0.00  0.00    +0.000 A 
ATOM     10  C   UNL     1       0.651   8.926  21.752  0.00  0.00    +0.000 A 
ATOM     11  C   UNL     1       1.110   9.204  20.437  0.00  0.00    +0.000 A 
ENDROOT
BRANCH   1  14
ATOM     12  C   UNL     1       4.015   5.433  17.795  0.00  0.00    +0.000 A 
ATOM     13  C   UNL     1       3.324   6.714  17.956  0.00  0.00    +0.000 A 
ATOM     14  C   UNL     1       2.504   6.986  19.065  0.00  0.00    +0.000 A 
ATOM     15  C   UNL     1       2.423   5.886  19.986  0.00  0.00    +0.000 A 
ATOM     16  C   UNL     1       3.055   4.615  19.830  0.00  0.00    +0.000 A 
ATOM     17  C   UNL     1       3.853   4.367  18.711  0.00  0.00    +0.000 A 
BRANCH  12  19
ATOM     18  C   UNL     1       5.273   6.236  15.951  0.00  0.00    +0.000 C 
ATOM     19  O   UNL     1       4.770   5.126  16.680  0.00  0.00    +0.000 OA
ENDBRANCH  12  19
BRANCH  16  20
ATOM     20  O   UNL     1       2.712   3.714  20.816  0.00  0.00    +0.000 OA
ATOM     21  C   UNL     1       1.340   3.356  20.991  0.00  0.00    +0.000 C 
ENDBRANCH  16  20
BRANCH  17  22
ATOM     22  O   UNL     1       4.204   3.056  18.495  0.00  0.00    +0.000 OA
ATOM     23  C   UNL     1       3.335   2.103  17.894  0.00  0.00    +0.000 C 
ENDBRANCH  17  22
ENDBRANCH   1  14
BRANCH   9  24
ATOM     24  O   UNL     1      -0.519   9.625  23.790  0.00  0.00    +0.000 OA
ATOM     25  H   UNL     1      -1.192  10.300  24.040  0.00  0.00    +0.000 HD
ENDBRANCH   9  24
TORSDOF 5
ENDMDL
MODEL 6
REMARK VINA RESULT:      -7.3      3.656      6.953
REMARK  Name = 
REMARK  8 active torsions:
REMARK  status: ('A' for Active; 'I' for Inactive)
REMARK    1  A    between atoms: C_1  and  O_2
REMARK    2  A    between atoms: O_2  and  C_3
REMARK    3  A    between atoms: C_5  and  C_6
REMARK    4  A    between atoms: C_14  and  O_15
REMARK    5  A    between atoms: C_19  and  O_20
REMARK    6  A    between atoms: O_20  and  C_21
REMARK    7  A    between atoms: C_22  and  O_23
REMARK    8  A    between atoms: O_23  and  C_24
REMARK                            x       y       z     vdW  Elec       q    Type
REMARK                         _______ _______ _______ _____ _____    ______ ____
ROOT
ATOM      1  C   UNL     1       5.201   4.479  16.262  0.00  0.00    +0.000 C 
ATOM      2  C   UNL     1       6.258   5.360  16.943  0.00  0.00    +0.000 C 
ATOM      3  C   UNL     1       7.577   4.956  16.395  0.00  0.00    +0.000 C 
ATOM      4  O   UNL     1       8.341   4.136  16.874  0.00  0.00    +0.000 OA
ATOM      5  O   UNL     1       7.765   5.619  15.219  0.00  0.00    +0.000 OA
ATOM      6  C   UNL     1       6.840   5.060  14.317  0.00  0.00    +0.000 A 
ATOM      7  C   UNL     1       7.448   4.944  13.046  0.00  0.00    +0.000 A 
ATOM      8  C   UNL     1       6.908   4.090  12.120  0.00  0.00    +0.000 A 
ATOM      9  C   UNL     1       5.762   3.381  12.463  0.00  0.00    +0.000 A 
ATOM     10  C   UNL     1       5.085   3.583  13.724  0.00  0.00    +0.000 A 
ATOM     11  C   UNL     1       5.590   4.473  14.708  0.00  0.00    +0.000 A 
ENDROOT
BRANCH   1  14
ATOM     12  C   UNL     1       2.517   5.859  18.933  0.00  0.00    +0.000 A 
ATOM     13  C   UNL     1       3.635   5.889  17.987  0.00  0.00    +0.000 A 
ATOM     14  C   UNL     1       3.902   4.823  17.111  0.00  0.00    +0.000 A 
ATOM     15  C   UNL     1       2.979   3.731  17.260  0.00  0.00    +0.000 A 
ATOM     16  C   UNL     1       1.907   3.662  18.201  0.00  0.00    +0.000 A 
ATOM     17  C   UNL     1       1.674   4.731  19.070  0.00  0.00    +0.000 A 
BRANCH  12  19
ATOM     18  C   UNL     1       1.924   8.127  19.293  0.00  0.00    +0.000 C 
ATOM     19  O   UNL     1       2.282   6.869  19.845  0.00  0.00    +0.000 OA
ENDBRANCH  12  19
BRANCH  16  20
ATOM     20  O   UNL     1       1.254   2.448  18.191  0.00  0.00    +0.000 OA
ATOM     21  C   UNL     1       1.890   1.306  18.767  0.00  0.00    +0.000 C 
ENDBRANCH  16  20
BRANCH  17  22
ATOM     22  O   UNL     1       0.812   4.489  20.111  0.00  0.00    +0.000 OA
ATOM     23  C   UNL     1       1.157   3.698  21.243  0.00  0.00    +0.000 C 
ENDBRANCH  17  22
ENDBRANCH   1  14
BRANCH   9  24
ATOM     24  O   UNL     1       5.328   2.428  11.574  0.00  0.00    +0.000 OA
ATOM     25  H   UNL     1       5.808   2.524  10.719  0.00  0.00    +0.000 HD
ENDBRANCH   9  24
TORSDOF 5
ENDMDL
MODEL 7
REMARK VINA RESULT:      -7.3      1.320      7.634
REMARK  Name = 
REMARK  8 active torsions:
REMARK  status: ('A' for Active; 'I' for Inactive)
REMARK    1  A    between atoms: C_1  and  O_2
REMARK    2  A    between atoms: O_2  and  C_3
REMARK    3  A    between atoms: C_5  and  C_6
REMARK    4  A    between atoms: C_14  and  O_15
REMARK    5  A    between atoms: C_19  and  O_20
REMARK    6  A    between atoms: O_20  and  C_21
REMARK    7  A    between atoms: C_22  and  O_23
REMARK    8  A    between atoms: O_23  and  C_24
REMARK                            x       y       z     vdW  Elec       q    Type
REMARK                         _______ _______ _______ _____ _____    ______ ____
ROOT
ATOM      1  C   UNL     1       1.683   8.158  20.356  0.00  0.00    +0.000 C 
ATOM      2  C   UNL     1       0.693   7.991  21.518  0.00  0.00    +0.000 C 
ATOM      3  C   UNL     1       0.518   9.331  22.134  0.00  0.00    +0.000 C 
ATOM      4  O   UNL     1       1.140   9.780  23.081  0.00  0.00    +0.000 OA
ATOM      5  O   UNL     1      -0.423  10.005  21.414  0.00  0.00    +0.000 OA
ATOM      6  C   UNL     1       0.177  10.281  20.172  0.00  0.00    +0.000 A 
ATOM      7  C   UNL     1      -0.202  11.577  19.754  0.00  0.00    +0.000 A 
ATOM      8  C   UNL     1       0.541  12.219  18.798  0.00  0.00    +0.000 A 
ATOM      9  C   UNL     1       1.638  11.556  18.257  0.00  0.00    +0.000 A 
ATOM     10  C   UNL     1       1.957  10.192  18.610  0.00  0.00    +0.000 A 
ATOM     11  C   UNL     1       1.206   9.474  19.578  0.00  0.00    +0.000 A 
ENDROOT
BRANCH   1  14
ATOM     12  C   UNL     1       2.580   4.230  20.297  0.00  0.00    +0.000 A 
ATOM     13  C   UNL     1       1.958   5.477  20.747  0.00  0.00    +0.000 A 
ATOM     14  C   UNL     1       1.976   6.646  19.965  0.00  0.00    +0.000 A 
ATOM     15  C   UNL     1       2.666   6.474  18.717  0.00  0.00    +0.000 A 
ATOM     16  C   UNL     1       3.314   5.281  18.274  0.00  0.00    +0.000 A 
ATOM     17  C   UNL     1       3.293   4.138  19.077  0.00  0.00    +0.000 A 
BRANCH  12  19
ATOM     18  C   UNL     1       1.383   2.647  21.595  0.00  0.00    +0.000 C 
ATOM     19  O   UNL     1       2.628   3.094  21.080  0.00  0.00    +0.000 OA
ENDBRANCH  12  19
BRANCH  16  20
ATOM     20  O   UNL     1       3.989   5.440  17.082  0.00  0.00    +0.000 OA
ATOM     21  C   UNL     1       4.703   6.653  16.838  0.00  0.00    +0.000 C 
ENDBRANCH  16  20
BRANCH  17  22
ATOM     22  O   UNL     1       4.150   3.128  18.717  0.00  0.00    +0.000 OA
ATOM     23  C   UNL     1       3.719   1.919  18.101  0.00  0.00    +0.000 C 
ENDBRANCH  17  22
ENDBRANCH   1  14
BRANCH   9  24
ATOM     24  O   UNL     1       2.446  12.274  17.412  0.00  0.00    +0.000 OA
ATOM     25  H   UNL     1       1.900  12.726  16.727  0.00  0.00    +0.000 HD
ENDBRANCH   9  24
TORSDOF 5
ENDMDL
MODEL 8
REMARK VINA RESULT:      -7.2      1.378      3.162
REMARK  Name = 
REMARK  8 active torsions:
REMARK  status: ('A' for Active; 'I' for Inactive)
REMARK    1  A    between atoms: C_1  and  O_2
REMARK    2  A    between atoms: O_2  and  C_3
REMARK    3  A    between atoms: C_5  and  C_6
REMARK    4  A    between atoms: C_14  and  O_15
REMARK    5  A    between atoms: C_19  and  O_20
REMARK    6  A    between atoms: O_20  and  C_21
REMARK    7  A    between atoms: C_22  and  O_23
REMARK    8  A    between atoms: O_23  and  C_24
REMARK                            x       y       z     vdW  Elec       q    Type
REMARK                         _______ _______ _______ _____ _____    ______ ____
ROOT
ATOM      1  C   UNL     1       2.290   7.015  18.883  0.00  0.00    +0.000 C 
ATOM      2  C   UNL     1       1.995   6.172  20.132  0.00  0.00    +0.000 C 
ATOM      3  C   UNL     1       2.352   4.769  19.803  0.00  0.00    +0.000 C 
ATOM      4  O   UNL     1       1.599   3.911  19.375  0.00  0.00    +0.000 OA
ATOM      5  O   UNL     1       3.691   4.617  20.003  0.00  0.00    +0.000 OA
ATOM      6  C   UNL     1       4.313   5.371  18.989  0.00  0.00    +0.000 A 
ATOM      7  C   UNL     1       5.446   4.668  18.521  0.00  0.00    +0.000 A 
ATOM      8  C   UNL     1       5.980   4.990  17.302  0.00  0.00    +0.000 A 
ATOM      9  C   UNL     1       5.392   6.019  16.573  0.00  0.00    +0.000 A 
ATOM     10  C   UNL     1       4.301   6.804  17.102  0.00  0.00    +0.000 A 
ATOM     11  C   UNL     1       3.727   6.526  18.371  0.00  0.00    +0.000 A 
ENDROOT
BRANCH   1  14
ATOM     12  C   UNL     1       1.206  10.883  19.207  0.00  0.00    +0.000 A 
ATOM     13  C   UNL     1       1.549   9.616  18.559  0.00  0.00    +0.000 A 
ATOM     14  C   UNL     1       1.632   8.408  19.274  0.00  0.00    +0.000 A 
ATOM     15  C   UNL     1       1.356   8.567  20.675  0.00  0.00    +0.000 A 
ATOM     16  C   UNL     1       1.058   9.797  21.336  0.00  0.00    +0.000 A 
ATOM     17  C   UNL     1       0.997  10.984  20.604  0.00  0.00    +0.000 A 
BRANCH  12  19
ATOM     18  C   UNL     1       2.455  12.635  18.209  0.00  0.00    +0.000 C 
ATOM     19  O   UNL     1       1.185  12.087  18.532  0.00  0.00    +0.000 OA
ENDBRANCH  12  19
BRANCH  16  20
ATOM     20  O   UNL     1       0.946   9.664  22.704  0.00  0.00    +0.000 OA
ATOM     21  C   UNL     1      -0.351   9.556  23.294  0.00  0.00    +0.000 C 
ENDBRANCH  16  20
BRANCH  17  22
ATOM     22  O   UNL     1       0.973  12.147  21.334  0.00  0.00    +0.000 OA
ATOM     23  C   UNL     1      -0.219  12.880  21.598  0.00  0.00    +0.000 C 
ENDBRANCH  17  22
ENDBRANCH   1  14
BRANCH   9  24
ATOM     24  O   UNL     1       5.854   6.222  15.296  0.00  0.00    +0.000 OA
ATOM     25  H   UNL     1       5.392   5.616  14.671  0.00  0.00    +0.000 HD
ENDBRANCH   9  24
TORSDOF 5
ENDMDL
MODEL 9
REMARK VINA RESULT:      -7.2      0.907      2.669
REMARK  Name = 
REMARK  8 active torsions:
REMARK  status: ('A' for Active; 'I' for Inactive)
REMARK    1  A    between atoms: C_1  and  O_2
REMARK    2  A    between atoms: O_2  and  C_3
REMARK    3  A    between atoms: C_5  and  C_6
REMARK    4  A    between atoms: C_14  and  O_15
REMARK    5  A    between atoms: C_19  and  O_20
REMARK    6  A    between atoms: O_20  and  C_21
REMARK    7  A    between atoms: C_22  and  O_23
REMARK    8  A    between atoms: O_23  and  C_24
REMARK                            x       y       z     vdW  Elec       q    Type
REMARK                         _______ _______ _______ _____ _____    ______ ____
ROOT
ATOM      1  C   UNL     1       2.366   6.584  19.684  0.00  0.00    +0.000 C 
ATOM      2  C   UNL     1       2.688   6.791  18.197  0.00  0.00    +0.000 C 
ATOM      3  C   UNL     1       3.440   5.592  17.745  0.00  0.00    +0.000 C 
ATOM      4  O   UNL     1       4.652   5.466  17.714  0.00  0.00    +0.000 OA
ATOM      5  O   UNL     1       2.536   4.623  17.427  0.00  0.00    +0.000 OA
ATOM      6  C   UNL     1       1.965   4.222  18.649  0.00  0.00    +0.000 A 
ATOM      7  C   UNL     1       1.778   2.822  18.634  0.00  0.00    +0.000 A 
ATOM      8  C   UNL     1       1.611   2.153  19.818  0.00  0.00    +0.000 A 
ATOM      9  C   UNL     1       1.611   2.889  20.998  0.00  0.00    +0.000 A 
ATOM     10  C   UNL     1       1.696   4.331  21.001  0.00  0.00    +0.000 A 
ATOM     11  C   UNL     1       1.847   5.073  19.800  0.00  0.00    +0.000 A 
ENDROOT
BRANCH   1  14
ATOM     12  C   UNL     1       0.277   9.705  21.146  0.00  0.00    +0.000 A 
ATOM     13  C   UNL     1       0.940   8.399  21.129  0.00  0.00    +0.000 A 
ATOM     14  C   UNL     1       1.810   8.015  20.094  0.00  0.00    +0.000 A 
ATOM     15  C   UNL     1       1.956   9.025  19.082  0.00  0.00    +0.000 A 
ATOM     16  C   UNL     1       1.290  10.288  19.056  0.00  0.00    +0.000 A 
ATOM     17  C   UNL     1       0.420  10.638  20.091  0.00  0.00    +0.000 A 
BRANCH  12  19
ATOM     18  C   UNL     1      -0.353   9.596  23.430  0.00  0.00    +0.000 C 
ATOM     19  O   UNL     1      -0.629  10.071  22.120  0.00  0.00    +0.000 OA
ENDBRANCH  12  19
BRANCH  16  20
ATOM     20  O   UNL     1       1.538  11.009  17.907  0.00  0.00    +0.000 OA
ATOM     21  C   UNL     1       2.492  12.072  17.938  0.00  0.00    +0.000 C 
ENDBRANCH  16  20
BRANCH  17  22
ATOM     22  O   UNL     1      -0.378  11.733  19.869  0.00  0.00    +0.000 OA
ATOM     23  C   UNL     1      -1.610  11.672  19.159  0.00  0.00    +0.000 C 
ENDBRANCH  17  22
ENDBRANCH   1  14
BRANCH   9  24
ATOM     24  O   UNL     1       1.589   2.181  22.175  0.00  0.00    +0.000 OA
ATOM     25  H   UNL     1       1.115   2.696  22.868  0.00  0.00    +0.000 HD
ENDBRANCH   9  24
TORSDOF 5
ENDMDL
