MODEL 1
REMARK VINA RESULT:      -8.4      0.000      0.000
REMARK  Name = 
REMARK  8 active torsions:
REMARK  status: ('A' for Active; 'I' for Inactive)
REMARK    1  A    between atoms: C_1  and  C_2
REMARK    2  A    between atoms: C_6  and  N_7
REMARK    3  A    between atoms: C_11  and  C_13
REMARK    4  A    between atoms: C_13  and  C_14
REMARK    5  A    between atoms: C_18  and  C_20
REMARK    6  A    between atoms: C_22  and  C_23
REMARK    7  A    between atoms: C_25  and  C_26
REMARK    8  A    between atoms: C_30  and  C_31
REMARK                            x       y       z     vdW  Elec       q    Type
REMARK                         _______ _______ _______ _____ _____    ______ ____
ROOT
ATOM      1  C   UNL     1       2.031   8.153  19.755  0.00  0.00    +0.000 C 
ENDROOT
BRANCH   1   6
ATOM      2  N   UNL     1      -0.991  11.652  22.013  0.00  0.00    +0.000 N 
ATOM      3  C   UNL     1      -1.404  11.520  20.605  0.00  0.00    +0.000 C 
ATOM      4  C   UNL     1      -0.161  11.315  19.720  0.00  0.00    +0.000 C 
ATOM      5  N   UNL     1       0.684  10.212  20.200  0.00  0.00    +0.000 N 
ATOM      6  C   UNL     1       1.169   9.307  19.280  0.00  0.00    +0.000 C 
ATOM      7  O   UNL     1       0.912   9.395  18.079  0.00  0.00    +0.000 OA
ATOM      8  C   UNL     1       1.063  10.342  21.620  0.00  0.00    +0.000 C 
ATOM      9  C   UNL     1      -0.153  10.557  22.549  0.00  0.00    +0.000 C 
ATOM     10  C   UNL     1      -0.945   9.254  22.706  0.00  0.00    +0.000 C 
BRANCH   2  16
ATOM     11  C   UNL     1      -5.023  12.551  24.755  0.00  0.00    +0.000 C 
ATOM     12  C   UNL     1      -3.675  12.970  24.246  0.00  0.00    +0.000 A 
ATOM     13  C   UNL     1      -3.094  14.169  24.662  0.00  0.00    +0.000 A 
ATOM     14  C   UNL     1      -1.835  14.528  24.190  0.00  0.00    +0.000 A 
ATOM     15  C   UNL     1      -1.149  13.681  23.318  0.00  0.00    +0.000 A 
ATOM     16  C   UNL     1      -1.696  12.463  22.888  0.00  0.00    +0.000 A 
ATOM     17  C   UNL     1      -2.978  12.140  23.351  0.00  0.00    +0.000 A 
ENDBRANCH   2  16
ENDBRANCH   1   6
BRANCH   1  18
ATOM     18  C   UNL     1       1.789   6.866  18.947  0.00  0.00    +0.000 C 
ATOM     19  C   UNL     1       2.332   5.639  19.700  0.00  0.00    +0.000 C 
ATOM     20  C   UNL     1       3.860   5.647  19.747  0.00  0.00    +0.000 C 
ATOM     21  N   UNL     1       4.413   5.691  18.393  0.00  0.00    +0.000 N 
ATOM     22  C   UNL     1       5.214   4.613  17.993  0.00  0.00    +0.000 C 
ATOM     23  O   UNL     1       5.372   3.651  18.751  0.00  0.00    +0.000 OA
ATOM     24  C   UNL     1       3.932   6.788  17.553  0.00  0.00    +0.000 C 
ATOM     25  C   UNL     1       2.410   6.892  17.544  0.00  0.00    +0.000 C 
BRANCH  22  26
ATOM     26  C   UNL     1       5.857   4.625  16.687  0.00  0.00    +0.000 A 
ATOM     27  N   UNL     1       5.446   3.953  15.561  0.00  0.00    +0.000 N 
ATOM     28  C   UNL     1       6.313   4.160  14.520  0.00  0.00    +0.000 A 
ATOM     29  C   UNL     1       6.161   3.467  13.217  0.00  0.00    +0.000 C 
ATOM     30  C   UNL     1       7.226   5.098  14.937  0.00  0.00    +0.000 A 
ATOM     31  C   UNL     1       6.933   5.421  16.291  0.00  0.00    +0.000 A 
ATOM     32  C   UNL     1       7.651   6.418  17.131  0.00  0.00    +0.000 C 
ATOM     33  H   UNL     1       4.627   3.362  15.512  0.00  0.00    +0.000 HD
ENDBRANCH  22  26
ENDBRANCH   1  18
TORSDOF 4
ENDMDL
MODEL 2
REMARK VINA RESULT:      -8.0      2.304      3.550
REMARK  Name = 
REMARK  8 active torsions:
REMARK  status: ('A' for Active; 'I' for Inactive)
REMARK    1  A    between atoms: C_1  and  C_2
REMARK    2  A    between atoms: C_6  and  N_7
REMARK    3  A    between atoms: C_11  and  C_13
REMARK    4  A    between atoms: C_13  and  C_14
REMARK    5  A    between atoms: C_18  and  C_20
REMARK    6  A    between atoms: C_22  and  C_23
REMARK    7  A    between atoms: C_25  and  C_26
REMARK    8  A    between atoms: C_30  and  C_31
REMARK                            x       y       z     vdW  Elec       q    Type
REMARK                         _______ _______ _______ _____ _____    ______ ____
ROOT
ATOM      1  C   UNL     1       1.093  11.270  19.323  0.00  0.00    +0.000 C 
ENDROOT
BRANCH   1   6
ATOM      2  N   UNL     1      -1.672  14.446  22.278  0.00  0.00    +0.000 N 
ATOM      3  C   UNL     1      -2.182  14.533  20.899  0.00  0.00    +0.000 C 
ATOM      4  C   UNL     1      -1.007  14.441  19.908  0.00  0.00    +0.000 C 
ATOM      5  N   UNL     1      -0.163  13.264  20.160  0.00  0.00    +0.000 N 
ATOM      6  C   UNL     1       0.235  12.497  19.084  0.00  0.00    +0.000 C 
ATOM      7  O   UNL     1      -0.100  12.769  17.931  0.00  0.00    +0.000 OA
ATOM      8  C   UNL     1       0.314  13.174  21.553  0.00  0.00    +0.000 C 
ATOM      9  C   UNL     1      -0.831  13.269  22.587  0.00  0.00    +0.000 C 
ATOM     10  C   UNL     1      -1.647  11.972  22.605  0.00  0.00    +0.000 C 
BRANCH   2  16
ATOM     11  C   UNL     1      -5.694  16.617  24.200  0.00  0.00    +0.000 C 
ATOM     12  C   UNL     1      -4.246  16.237  24.302  0.00  0.00    +0.000 A 
ATOM     13  C   UNL     1      -3.505  16.539  25.446  0.00  0.00    +0.000 A 
ATOM     14  C   UNL     1      -2.169  16.160  25.525  0.00  0.00    +0.000 A 
ATOM     15  C   UNL     1      -1.578  15.462  24.470  0.00  0.00    +0.000 A 
ATOM     16  C   UNL     1      -2.293  15.130  23.311  0.00  0.00    +0.000 A 
ATOM     17  C   UNL     1      -3.628  15.552  23.242  0.00  0.00    +0.000 A 
ENDBRANCH   2  16
ENDBRANCH   1   6
BRANCH   1  18
ATOM     18  C   UNL     1       0.418   9.976  18.835  0.00  0.00    +0.000 C 
ATOM     19  C   UNL     1       0.116   9.039  20.018  0.00  0.00    +0.000 C 
ATOM     20  C   UNL     1       1.401   8.467  20.615  0.00  0.00    +0.000 C 
ATOM     21  N   UNL     1       2.167   7.754  19.593  0.00  0.00    +0.000 N 
ATOM     22  C   UNL     1       2.393   6.386  19.799  0.00  0.00    +0.000 C 
ATOM     23  O   UNL     1       1.896   5.823  20.778  0.00  0.00    +0.000 OA
ATOM     24  C   UNL     1       2.475   8.523  18.387  0.00  0.00    +0.000 C 
ATOM     25  C   UNL     1       1.242   9.202  17.798  0.00  0.00    +0.000 C 
BRANCH  22  26
ATOM     26  C   UNL     1       3.210   5.630  18.859  0.00  0.00    +0.000 A 
ATOM     27  N   UNL     1       4.583   5.576  18.820  0.00  0.00    +0.000 N 
ATOM     28  C   UNL     1       5.015   4.798  17.778  0.00  0.00    +0.000 A 
ATOM     29  C   UNL     1       6.454   4.655  17.445  0.00  0.00    +0.000 C 
ATOM     30  C   UNL     1       3.902   4.222  17.217  0.00  0.00    +0.000 A 
ATOM     31  C   UNL     1       2.759   4.715  17.908  0.00  0.00    +0.000 A 
ATOM     32  C   UNL     1       1.344   4.331  17.650  0.00  0.00    +0.000 C 
ATOM     33  H   UNL     1       5.195   6.066  19.460  0.00  0.00    +0.000 HD
ENDBRANCH  22  26
ENDBRANCH   1  18
TORSDOF 4
ENDMDL
MODEL 3
REMARK VINA RESULT:      -8.0      2.319      3.711
REMARK  Name = 
REMARK  8 active torsions:
REMARK  status: ('A' for Active; 'I' for Inactive)
REMARK    1  A    between atoms: C_1  and  C_2
REMARK    2  A    between atoms: C_6  and  N_7
REMARK    3  A    between atoms: C_11  and  C_13
REMARK    4  A    between atoms: C_13  and  C_14
REMARK    5  A    between atoms: C_18  and  C_20
REMARK    6  A    between atoms: C_22  and  C_23
REMARK    7  A    between atoms: C_25  and  C_26
REMARK    8  A    between atoms: C_30  and  C_31
REMARK                            x       y       z     vdW  Elec       q    Type
REMARK                         _______ _______ _______ _____ _____    ______ ____
ROOT
ATOM      1  C   UNL     1       0.969  11.219  19.257  0.00  0.00    +0.000 C 
ENDROOT
BRANCH   1   6
ATOM      2  N   UNL     1      -1.517  14.497  22.345  0.00  0.00    +0.000 N 
ATOM      3  C   UNL     1      -2.190  14.492  21.034  0.00  0.00    +0.000 C 
ATOM      4  C   UNL     1      -1.139  14.370  19.916  0.00  0.00    +0.000 C 
ATOM      5  N   UNL     1      -0.236  13.228  20.129  0.00  0.00    +0.000 N 
ATOM      6  C   UNL     1       0.053  12.411  19.056  0.00  0.00    +0.000 C 
ATOM      7  O   UNL     1      -0.424  12.607  17.938  0.00  0.00    +0.000 OA
ATOM      8  C   UNL     1       0.405  13.230  21.457  0.00  0.00    +0.000 C 
ATOM      9  C   UNL     1      -0.612  13.359  22.615  0.00  0.00    +0.000 C 
ATOM     10  C   UNL     1      -1.382  12.046  22.801  0.00  0.00    +0.000 C 
BRANCH   2  16
ATOM     11  C   UNL     1      -0.923  16.715  26.740  0.00  0.00    +0.000 C 
ATOM     12  C   UNL     1      -1.801  16.321  25.589  0.00  0.00    +0.000 A 
ATOM     13  C   UNL     1      -3.145  16.700  25.550  0.00  0.00    +0.000 A 
ATOM     14  C   UNL     1      -3.935  16.339  24.464  0.00  0.00    +0.000 A 
ATOM     15  C   UNL     1      -3.380  15.614  23.408  0.00  0.00    +0.000 A 
ATOM     16  C   UNL     1      -2.032  15.225  23.406  0.00  0.00    +0.000 A 
ATOM     17  C   UNL     1      -1.266  15.574  24.526  0.00  0.00    +0.000 A 
ENDBRANCH   2  16
ENDBRANCH   1   6
BRANCH   1  18
ATOM     18  C   UNL     1       0.322   9.897  18.809  0.00  0.00    +0.000 C 
ATOM     19  C   UNL     1       0.067   8.978  20.016  0.00  0.00    +0.000 C 
ATOM     20  C   UNL     1       1.378   8.454  20.602  0.00  0.00    +0.000 C 
ATOM     21  N   UNL     1       2.145   7.740  19.582  0.00  0.00    +0.000 N 
ATOM     22  C   UNL     1       2.412   6.384  19.812  0.00  0.00    +0.000 C 
ATOM     23  O   UNL     1       1.948   5.828  20.812  0.00  0.00    +0.000 OA
ATOM     24  C   UNL     1       2.410   8.491  18.355  0.00  0.00    +0.000 C 
ATOM     25  C   UNL     1       1.149   9.123  17.773  0.00  0.00    +0.000 C 
BRANCH  22  26
ATOM     26  C   UNL     1       3.233   5.630  18.874  0.00  0.00    +0.000 A 
ATOM     27  N   UNL     1       4.606   5.578  18.840  0.00  0.00    +0.000 N 
ATOM     28  C   UNL     1       5.042   4.802  17.798  0.00  0.00    +0.000 A 
ATOM     29  C   UNL     1       6.482   4.662  17.469  0.00  0.00    +0.000 C 
ATOM     30  C   UNL     1       3.932   4.225  17.233  0.00  0.00    +0.000 A 
ATOM     31  C   UNL     1       2.787   4.716  17.920  0.00  0.00    +0.000 A 
ATOM     32  C   UNL     1       1.373   4.330  17.658  0.00  0.00    +0.000 C 
ATOM     33  H   UNL     1       5.216   6.068  19.482  0.00  0.00    +0.000 HD
ENDBRANCH  22  26
ENDBRANCH   1  18
TORSDOF 4
ENDMDL
MODEL 4
REMARK VINA RESULT:      -7.9      2.444      3.304
REMARK  Name = 
REMARK  8 active torsions:
REMARK  status: ('A' for Active; 'I' for Inactive)
REMARK    1  A    between atoms: C_1  and  C_2
REMARK    2  A    between atoms: C_6  and  N_7
REMARK    3  A    between atoms: C_11  and  C_13
REMARK    4  A    between atoms: C_13  and  C_14
REMARK    5  A    between atoms: C_18  and  C_20
REMARK    6  A    between atoms: C_22  and  C_23
REMARK    7  A    between atoms: C_25  and  C_26
REMARK    8  A    between atoms: C_30  and  C_31
REMARK                            x       y       z     vdW  Elec       q    Type
REMARK                         _______ _______ _______ _____ _____    ______ ____
ROOT
ATOM      1  C   UNL     1       2.098   8.595  19.830  0.00  0.00    +0.000 C 
ENDROOT
BRANCH   1   6
ATOM      2  N   UNL     1      -0.292  13.145  20.072  0.00  0.00    +0.000 N 
ATOM      3  C   UNL     1      -0.614  12.385  21.293  0.00  0.00    +0.000 C 
ATOM      4  C   UNL     1      -0.779  10.895  20.943  0.00  0.00    +0.000 C 
ATOM      5  N   UNL     1       0.376  10.370  20.200  0.00  0.00    +0.000 N 
ATOM      6  C   UNL     1       0.897   9.149  20.573  0.00  0.00    +0.000 C 
ATOM      7  O   UNL     1       0.428   8.496  21.506  0.00  0.00    +0.000 OA
ATOM      8  C   UNL     1       0.705  11.160  18.998  0.00  0.00    +0.000 C 
ATOM      9  C   UNL     1       0.874  12.667  19.298  0.00  0.00    +0.000 C 
ATOM     10  C   UNL     1       2.194  12.923  20.034  0.00  0.00    +0.000 C 
BRANCH   2  16
ATOM     11  C   UNL     1      -0.157  17.464  17.641  0.00  0.00    +0.000 C 
ATOM     12  C   UNL     1      -0.688  16.616  18.759  0.00  0.00    +0.000 A 
ATOM     13  C   UNL     1      -1.649  17.113  19.641  0.00  0.00    +0.000 A 
ATOM     14  C   UNL     1      -2.140  16.302  20.659  0.00  0.00    +0.000 A 
ATOM     15  C   UNL     1      -1.685  14.988  20.785  0.00  0.00    +0.000 A 
ATOM     16  C   UNL     1      -0.729  14.450  19.911  0.00  0.00    +0.000 A 
ATOM     17  C   UNL     1      -0.227  15.298  18.914  0.00  0.00    +0.000 A 
ENDBRANCH   2  16
ENDBRANCH   1   6
BRANCH   1  18
ATOM     18  C   UNL     1       1.714   7.487  18.834  0.00  0.00    +0.000 C 
ATOM     19  C   UNL     1       1.786   6.103  19.503  0.00  0.00    +0.000 C 
ATOM     20  C   UNL     1       3.231   5.708  19.807  0.00  0.00    +0.000 C 
ATOM     21  N   UNL     1       4.031   5.715  18.582  0.00  0.00    +0.000 N 
ATOM     22  C   UNL     1       4.610   4.501  18.188  0.00  0.00    +0.000 C 
ATOM     23  O   UNL     1       4.379   3.473  18.831  0.00  0.00    +0.000 OA
ATOM     24  C   UNL     1       4.004   6.964  17.821  0.00  0.00    +0.000 C 
ATOM     25  C   UNL     1       2.584   7.463  17.570  0.00  0.00    +0.000 C 
BRANCH  22  26
ATOM     26  C   UNL     1       5.479   4.450  17.020  0.00  0.00    +0.000 A 
ATOM     27  N   UNL     1       5.105   4.175  15.727  0.00  0.00    +0.000 N 
ATOM     28  C   UNL     1       6.190   4.172  14.891  0.00  0.00    +0.000 A 
ATOM     29  C   UNL     1       6.081   3.800  13.458  0.00  0.00    +0.000 C 
ATOM     30  C   UNL     1       7.269   4.593  15.629  0.00  0.00    +0.000 A 
ATOM     31  C   UNL     1       6.828   4.800  16.967  0.00  0.00    +0.000 A 
ATOM     32  C   UNL     1       7.661   5.289  18.099  0.00  0.00    +0.000 C 
ATOM     33  H   UNL     1       4.157   3.975  15.433  0.00  0.00    +0.000 HD
ENDBRANCH  22  26
ENDBRANCH   1  18
TORSDOF 4
ENDMDL
MODEL 5
REMARK VINA RESULT:      -7.8      2.274      2.990
REMARK  Name = 
REMARK  8 active torsions:
REMARK  status: ('A' for Active; 'I' for Inactive)
REMARK    1  A    between atoms: C_1  and  C_2
REMARK    2  A    between atoms: C_6  and  N_7
REMARK    3  A    between atoms: C_11  and  C_13
REMARK    4  A    between atoms: C_13  and  C_14
REMARK    5  A    between atoms: C_18  and  C_20
REMARK    6  A    between atoms: C_22  and  C_23
REMARK    7  A    between atoms: C_25  and  C_26
REMARK    8  A    between atoms: C_30  and  C_31
REMARK                            x       y       z     vdW  Elec       q    Type
REMARK                         _______ _______ _______ _____ _____    ______ ____
ROOT
ATOM      1  C   UNL     1       2.066   8.386  20.078  0.00  0.00    +0.000 C 
ENDROOT
BRANCH   1   6
ATOM      2  N   UNL     1      -0.174  13.017  20.058  0.00  0.00    +0.000 N 
ATOM      3  C   UNL     1      -0.579  12.310  21.286  0.00  0.00    +0.000 C 
ATOM      4  C   UNL     1      -0.779  10.815  20.977  0.00  0.00    +0.000 C 
ATOM      5  N   UNL     1       0.391  10.228  20.307  0.00  0.00    +0.000 N 
ATOM      6  C   UNL     1       0.852   9.003  20.744  0.00  0.00    +0.000 C 
ATOM      7  O   UNL     1       0.317   8.398  21.674  0.00  0.00    +0.000 OA
ATOM      8  C   UNL     1       0.803  10.965  19.098  0.00  0.00    +0.000 C 
ATOM      9  C   UNL     1       1.010  12.475  19.356  0.00  0.00    +0.000 C 
ATOM     10  C   UNL     1       2.302  12.712  20.146  0.00  0.00    +0.000 C 
BRANCH   2  16
ATOM     11  C   UNL     1      -2.827  17.007  21.332  0.00  0.00    +0.000 C 
ATOM     12  C   UNL     1      -1.863  16.327  20.405  0.00  0.00    +0.000 A 
ATOM     13  C   UNL     1      -1.315  17.007  19.316  0.00  0.00    +0.000 A 
ATOM     14  C   UNL     1      -0.409  16.361  18.481  0.00  0.00    +0.000 A 
ATOM     15  C   UNL     1      -0.037  15.042  18.743  0.00  0.00    +0.000 A 
ATOM     16  C   UNL     1      -0.557  14.329  19.834  0.00  0.00    +0.000 A 
ATOM     17  C   UNL     1      -1.492  14.992  20.641  0.00  0.00    +0.000 A 
ENDBRANCH   2  16
ENDBRANCH   1   6
BRANCH   1  18
ATOM     18  C   UNL     1       1.687   7.315  19.040  0.00  0.00    +0.000 C 
ATOM     19  C   UNL     1       1.776   5.906  19.652  0.00  0.00    +0.000 C 
ATOM     20  C   UNL     1       3.226   5.513  19.931  0.00  0.00    +0.000 C 
ATOM     21  N   UNL     1       4.019   5.577  18.703  0.00  0.00    +0.000 N 
ATOM     22  C   UNL     1       4.607   4.386  18.256  0.00  0.00    +0.000 C 
ATOM     23  O   UNL     1       4.390   3.331  18.859  0.00  0.00    +0.000 OA
ATOM     24  C   UNL     1       3.976   6.856  17.993  0.00  0.00    +0.000 C 
ATOM     25  C   UNL     1       2.550   7.351  17.771  0.00  0.00    +0.000 C 
BRANCH  22  26
ATOM     26  C   UNL     1       5.470   4.392  17.083  0.00  0.00    +0.000 A 
ATOM     27  N   UNL     1       5.098   4.123  15.787  0.00  0.00    +0.000 N 
ATOM     28  C   UNL     1       6.177   4.179  14.945  0.00  0.00    +0.000 A 
ATOM     29  C   UNL     1       6.074   3.828  13.506  0.00  0.00    +0.000 C 
ATOM     30  C   UNL     1       7.242   4.632  15.683  0.00  0.00    +0.000 A 
ATOM     31  C   UNL     1       6.803   4.797  17.027  0.00  0.00    +0.000 A 
ATOM     32  C   UNL     1       7.623   5.300  18.163  0.00  0.00    +0.000 C 
ATOM     33  H   UNL     1       4.158   3.890  15.496  0.00  0.00    +0.000 HD
ENDBRANCH  22  26
ENDBRANCH   1  18
TORSDOF 4
ENDMDL
MODEL 6
REMARK VINA RESULT:      -7.8      0.822      1.475
REMARK  Name = 
REMARK  8 active torsions:
REMARK  status: ('A' for Active; 'I' for Inactive)
REMARK    1  A    between atoms: C_1  and  C_2
REMARK    2  A    between atoms: C_6  and  N_7
REMARK    3  A    between atoms: C_11  and  C_13
REMARK    4  A    between atoms: C_13  and  C_14
REMARK    5  A    between atoms: C_18  and  C_20
REMARK    6  A    between atoms: C_22  and  C_23
REMARK    7  A    between atoms: C_25  and  C_26
REMARK    8  A    between atoms: C_30  and  C_31
REMARK                            x       y       z     vdW  Elec       q    Type
REMARK                         _______ _______ _______ _____ _____    ______ ____
ROOT
ATOM      1  C   UNL     1       1.686   8.818  19.322  0.00  0.00    +0.000 C 
ENDROOT
BRANCH   1   6
ATOM      2  N   UNL     1      -1.191  12.143  21.993  0.00  0.00    +0.000 N 
ATOM      3  C   UNL     1      -1.837  11.912  20.689  0.00  0.00    +0.000 C 
ATOM      4  C   UNL     1      -0.760  11.775  19.598  0.00  0.00    +0.000 C 
ATOM      5  N   UNL     1       0.256  10.772  19.947  0.00  0.00    +0.000 N 
ATOM      6  C   UNL     1       0.650   9.871  18.979  0.00  0.00    +0.000 C 
ATOM      7  O   UNL     1       0.174   9.883  17.844  0.00  0.00    +0.000 OA
ATOM      8  C   UNL     1       0.872  10.998  21.269  0.00  0.00    +0.000 C 
ATOM      9  C   UNL     1      -0.172  11.149  22.399  0.00  0.00    +0.000 C 
ATOM     10  C   UNL     1      -0.799   9.792  22.735  0.00  0.00    +0.000 C 
BRANCH   2  16
ATOM     11  C   UNL     1      -1.083  16.010  25.095  0.00  0.00    +0.000 C 
ATOM     12  C   UNL     1      -1.793  14.816  24.527  0.00  0.00    +0.000 A 
ATOM     13  C   UNL     1      -3.086  14.489  24.939  0.00  0.00    +0.000 A 
ATOM     14  C   UNL     1      -3.732  13.388  24.385  0.00  0.00    +0.000 A 
ATOM     15  C   UNL     1      -3.093  12.625  23.406  0.00  0.00    +0.000 A 
ATOM     16  C   UNL     1      -1.799  12.929  22.959  0.00  0.00    +0.000 A 
ATOM     17  C   UNL     1      -1.158  14.023  23.556  0.00  0.00    +0.000 A 
ENDBRANCH   2  16
ENDBRANCH   1   6
BRANCH   1  18
ATOM     18  C   UNL     1       1.467   7.503  18.553  0.00  0.00    +0.000 C 
ATOM     19  C   UNL     1       1.683   6.289  19.473  0.00  0.00    +0.000 C 
ATOM     20  C   UNL     1       3.155   6.138  19.856  0.00  0.00    +0.000 C 
ATOM     21  N   UNL     1       3.984   6.012  18.657  0.00  0.00    +0.000 N 
ATOM     22  C   UNL     1       4.714   4.827  18.504  0.00  0.00    +0.000 C 
ATOM     23  O   UNL     1       4.589   3.917  19.329  0.00  0.00    +0.000 OA
ATOM     24  C   UNL     1       3.831   7.084  17.672  0.00  0.00    +0.000 C 
ATOM     25  C   UNL     1       2.370   7.350  17.322  0.00  0.00    +0.000 C 
BRANCH  22  26
ATOM     26  C   UNL     1       5.618   4.665  17.372  0.00  0.00    +0.000 A 
ATOM     27  N   UNL     1       5.270   4.354  16.080  0.00  0.00    +0.000 N 
ATOM     28  C   UNL     1       6.381   4.240  15.286  0.00  0.00    +0.000 A 
ATOM     29  C   UNL     1       6.296   3.810  13.868  0.00  0.00    +0.000 C 
ATOM     30  C   UNL     1       7.459   4.624  16.044  0.00  0.00    +0.000 A 
ATOM     31  C   UNL     1       6.988   4.922  17.354  0.00  0.00    +0.000 A 
ATOM     32  C   UNL     1       7.813   5.408  18.494  0.00  0.00    +0.000 C 
ATOM     33  H   UNL     1       4.322   4.203  15.760  0.00  0.00    +0.000 HD
ENDBRANCH  22  26
ENDBRANCH   1  18
TORSDOF 4
ENDMDL
MODEL 7
REMARK VINA RESULT:      -7.7      1.259      1.877
REMARK  Name = 
REMARK  8 active torsions:
REMARK  status: ('A' for Active; 'I' for Inactive)
REMARK    1  A    between atoms: C_1  and  C_2
REMARK    2  A    between atoms: C_6  and  N_7
REMARK    3  A    between atoms: C_11  and  C_13
REMARK    4  A    between atoms: C_13  and  C_14
REMARK    5  A    between atoms: C_18  and  C_20
REMARK    6  A    between atoms: C_22  and  C_23
REMARK    7  A    between atoms: C_25  and  C_26
REMARK    8  A    between atoms: C_30  and  C_31
REMARK                            x       y       z     vdW  Elec       q    Type
REMARK                         _______ _______ _______ _____ _____    ______ ____
ROOT
ATOM      1  C   UNL     1       2.020   8.461  19.714  0.00  0.00    +0.000 C 
ENDROOT
BRANCH   1   6
ATOM      2  N   UNL     1      -1.429  11.570  21.928  0.00  0.00    +0.000 N 
ATOM      3  C   UNL     1      -0.842  10.710  22.971  0.00  0.00    +0.000 C 
ATOM      4  C   UNL     1      -0.604   9.300  22.401  0.00  0.00    +0.000 C 
ATOM      5  N   UNL     1       0.167   9.333  21.149  0.00  0.00    +0.000 N 
ATOM      6  C   UNL     1       1.202   8.435  20.991  0.00  0.00    +0.000 C 
ATOM      7  O   UNL     1       1.497   7.618  21.864  0.00  0.00    +0.000 OA
ATOM      8  C   UNL     1      -0.416  10.223  20.127  0.00  0.00    +0.000 C 
ATOM      9  C   UNL     1      -0.681  11.651  20.655  0.00  0.00    +0.000 C 
ATOM     10  C   UNL     1       0.637  12.418  20.814  0.00  0.00    +0.000 C 
BRANCH   2  16
ATOM     11  C   UNL     1      -2.938  15.169  24.988  0.00  0.00    +0.000 C 
ATOM     12  C   UNL     1      -3.132  14.351  23.745  0.00  0.00    +0.000 A 
ATOM     13  C   UNL     1      -4.202  14.600  22.883  0.00  0.00    +0.000 A 
ATOM     14  C   UNL     1      -4.351  13.840  21.727  0.00  0.00    +0.000 A 
ATOM     15  C   UNL     1      -3.421  12.845  21.422  0.00  0.00    +0.000 A 
ATOM     16  C   UNL     1      -2.327  12.573  22.257  0.00  0.00    +0.000 A 
ATOM     17  C   UNL     1      -2.218  13.331  23.431  0.00  0.00    +0.000 A 
ENDBRANCH   2  16
ENDBRANCH   1   6
BRANCH   1  18
ATOM     18  C   UNL     1       1.684   7.289  18.775  0.00  0.00    +0.000 C 
ATOM     19  C   UNL     1       1.971   5.942  19.461  0.00  0.00    +0.000 C 
ATOM     20  C   UNL     1       3.471   5.721  19.647  0.00  0.00    +0.000 C 
ATOM     21  N   UNL     1       4.161   5.783  18.358  0.00  0.00    +0.000 N 
ATOM     22  C   UNL     1       4.840   4.633  17.938  0.00  0.00    +0.000 C 
ATOM     23  O   UNL     1       4.784   3.604  18.617  0.00  0.00    +0.000 OA
ATOM     24  C   UNL     1       3.927   7.000  17.579  0.00  0.00    +0.000 C 
ATOM     25  C   UNL     1       2.443   7.328  17.442  0.00  0.00    +0.000 C 
BRANCH  22  26
ATOM     26  C   UNL     1       5.609   4.648  16.701  0.00  0.00    +0.000 A 
ATOM     27  N   UNL     1       5.239   4.102  15.495  0.00  0.00    +0.000 N 
ATOM     28  C   UNL     1       6.224   4.267  14.558  0.00  0.00    +0.000 A 
ATOM     29  C   UNL     1       6.125   3.680  13.198  0.00  0.00    +0.000 C 
ATOM     30  C   UNL     1       7.192   5.058  15.125  0.00  0.00    +0.000 A 
ATOM     31  C   UNL     1       6.803   5.329  16.467  0.00  0.00    +0.000 A 
ATOM     32  C   UNL     1       7.544   6.176  17.442  0.00  0.00    +0.000 C 
ATOM     33  H   UNL     1       4.365   3.620  15.327  0.00  0.00    +0.000 HD
ENDBRANCH  22  26
ENDBRANCH   1  18
TORSDOF 4
ENDMDL
MODEL 8
REMARK VINA RESULT:      -7.7      1.344      1.744
REMARK  Name = 
REMARK  8 active torsions:
REMARK  status: ('A' for Active; 'I' for Inactive)
REMARK    1  A    between atoms: C_1  and  C_2
REMARK    2  A    between atoms: C_6  and  N_7
REMARK    3  A    between atoms: C_11  and  C_13
REMARK    4  A    between atoms: C_13  and  C_14
REMARK    5  A    between atoms: C_18  and  C_20
REMARK    6  A    between atoms: C_22  and  C_23
REMARK    7  A    between atoms: C_25  and  C_26
REMARK    8  A    between atoms: C_30  and  C_31
REMARK                            x       y       z     vdW  Elec       q    Type
REMARK                         _______ _______ _______ _____ _____    ______ ____
ROOT
ATOM      1  C   UNL     1       2.008   8.376  19.696  0.00  0.00    +0.000 C 
ENDROOT
BRANCH   1   6
ATOM      2  N   UNL     1      -1.361  11.519  21.984  0.00  0.00    +0.000 N 
ATOM      3  C   UNL     1      -0.778  10.637  23.010  0.00  0.00    +0.000 C 
ATOM      4  C   UNL     1      -0.571   9.230  22.421  0.00  0.00    +0.000 C 
ATOM      5  N   UNL     1       0.186   9.263  21.162  0.00  0.00    +0.000 N 
ATOM      6  C   UNL     1       1.203   8.349  20.982  0.00  0.00    +0.000 C 
ATOM      7  O   UNL     1       1.493   7.517  21.842  0.00  0.00    +0.000 OA
ATOM      8  C   UNL     1      -0.392  10.175  20.156  0.00  0.00    +0.000 C 
ATOM      9  C   UNL     1      -0.625  11.602  20.704  0.00  0.00    +0.000 C 
ATOM     10  C   UNL     1       0.708  12.343  20.856  0.00  0.00    +0.000 C 
BRANCH   2  16
ATOM     11  C   UNL     1      -5.679  13.882  21.385  0.00  0.00    +0.000 C 
ATOM     12  C   UNL     1      -4.349  13.755  22.067  0.00  0.00    +0.000 A 
ATOM     13  C   UNL     1      -3.977  14.638  23.082  0.00  0.00    +0.000 A 
ATOM     14  C   UNL     1      -2.746  14.490  23.712  0.00  0.00    +0.000 A 
ATOM     15  C   UNL     1      -1.893  13.448  23.342  0.00  0.00    +0.000 A 
ATOM     16  C   UNL     1      -2.237  12.535  22.334  0.00  0.00    +0.000 A 
ATOM     17  C   UNL     1      -3.468  12.725  21.693  0.00  0.00    +0.000 A 
ENDBRANCH   2  16
ENDBRANCH   1   6
BRANCH   1  18
ATOM     18  C   UNL     1       1.693   7.180  18.780  0.00  0.00    +0.000 C 
ATOM     19  C   UNL     1       2.039   5.853  19.478  0.00  0.00    +0.000 C 
ATOM     20  C   UNL     1       3.550   5.685  19.635  0.00  0.00    +0.000 C 
ATOM     21  N   UNL     1       4.210   5.753  18.332  0.00  0.00    +0.000 N 
ATOM     22  C   UNL     1       4.920   4.620  17.912  0.00  0.00    +0.000 C 
ATOM     23  O   UNL     1       4.912   3.599  18.606  0.00  0.00    +0.000 OA
ATOM     24  C   UNL     1       3.920   6.950  17.542  0.00  0.00    +0.000 C 
ATOM     25  C   UNL     1       2.423   7.226  17.431  0.00  0.00    +0.000 C 
BRANCH  22  26
ATOM     26  C   UNL     1       5.663   4.644  16.660  0.00  0.00    +0.000 A 
ATOM     27  N   UNL     1       5.288   4.067  15.470  0.00  0.00    +0.000 N 
ATOM     28  C   UNL     1       6.248   4.252  14.510  0.00  0.00    +0.000 A 
ATOM     29  C   UNL     1       6.144   3.641  13.162  0.00  0.00    +0.000 C 
ATOM     30  C   UNL     1       7.198   5.087  15.046  0.00  0.00    +0.000 A 
ATOM     31  C   UNL     1       6.826   5.365  16.391  0.00  0.00    +0.000 A 
ATOM     32  C   UNL     1       7.554   6.254  17.338  0.00  0.00    +0.000 C 
ATOM     33  H   UNL     1       4.430   3.551  15.327  0.00  0.00    +0.000 HD
ENDBRANCH  22  26
ENDBRANCH   1  18
TORSDOF 4
ENDMDL
MODEL 9
REMARK VINA RESULT:      -7.6      4.709      9.137
REMARK  Name = 
REMARK  8 active torsions:
REMARK  status: ('A' for Active; 'I' for Inactive)
REMARK    1  A    between atoms: C_1  and  C_2
REMARK    2  A    between atoms: C_6  and  N_7
REMARK    3  A    between atoms: C_11  and  C_13
REMARK    4  A    between atoms: C_13  and  C_14
REMARK    5  A    between atoms: C_18  and  C_20
REMARK    6  A    between atoms: C_22  and  C_23
REMARK    7  A    between atoms: C_25  and  C_26
REMARK    8  A    between atoms: C_30  and  C_31
REMARK                            x       y       z     vdW  Elec       q    Type
REMARK                         _______ _______ _______ _____ _____    ______ ____
ROOT
ATOM      1  C   UNL     1      -0.342  13.434  20.314  0.00  0.00    +0.000 C 
ENDROOT
BRANCH   1   6
ATOM      2  N   UNL     1       1.268   8.552  20.138  0.00  0.00    +0.000 N 
ATOM      3  C   UNL     1       0.266   8.672  21.211  0.00  0.00    +0.000 C 
ATOM      4  C   UNL     1       0.434  10.026  21.923  0.00  0.00    +0.000 C 
ATOM      5  N   UNL     1       0.434  11.152  20.977  0.00  0.00    +0.000 N 
ATOM      6  C   UNL     1      -0.316  12.268  21.283  0.00  0.00    +0.000 C 
ATOM      7  O   UNL     1      -0.984  12.343  22.315  0.00  0.00    +0.000 OA
ATOM      8  C   UNL     1       1.421  11.002  19.891  0.00  0.00    +0.000 C 
ATOM      9  C   UNL     1       1.297   9.651  19.149  0.00  0.00    +0.000 C 
ATOM     10  C   UNL     1       0.055   9.645  18.250  0.00  0.00    +0.000 C 
BRANCH   2  16
ATOM     11  C   UNL     1       1.958   3.741  21.120  0.00  0.00    +0.000 C 
ATOM     12  C   UNL     1       2.199   4.939  20.250  0.00  0.00    +0.000 A 
ATOM     13  C   UNL     1       2.946   4.832  19.076  0.00  0.00    +0.000 A 
ATOM     14  C   UNL     1       3.141   5.953  18.275  0.00  0.00    +0.000 A 
ATOM     15  C   UNL     1       2.574   7.176  18.638  0.00  0.00    +0.000 A 
ATOM     16  C   UNL     1       1.807   7.319  19.803  0.00  0.00    +0.000 A 
ATOM     17  C   UNL     1       1.653   6.183  20.609  0.00  0.00    +0.000 A 
ENDBRANCH   2  16
ENDBRANCH   1   6
BRANCH   1  18
ATOM     18  C   UNL     1       0.419  14.660  20.849  0.00  0.00    +0.000 C 
ATOM     19  C   UNL     1       0.323  15.836  19.861  0.00  0.00    +0.000 C 
ATOM     20  C   UNL     1       1.118  15.556  18.586  0.00  0.00    +0.000 C 
ATOM     21  N   UNL     1       2.519  15.284  18.906  0.00  0.00    +0.000 N 
ATOM     22  C   UNL     1       3.479  16.156  18.376  0.00  0.00    +0.000 C 
ATOM     23  O   UNL     1       3.121  17.141  17.725  0.00  0.00    +0.000 OA
ATOM     24  C   UNL     1       2.745  14.216  19.881  0.00  0.00    +0.000 C 
ATOM     25  C   UNL     1       1.901  14.388  21.141  0.00  0.00    +0.000 C 
BRANCH  22  26
ATOM     26  C   UNL     1       4.898  15.902  18.593  0.00  0.00    +0.000 A 
ATOM     27  N   UNL     1       5.700  15.049  17.875  0.00  0.00    +0.000 N 
ATOM     28  C   UNL     1       6.973  15.029  18.382  0.00  0.00    +0.000 A 
ATOM     29  C   UNL     1       8.016  14.112  17.858  0.00  0.00    +0.000 C 
ATOM     30  C   UNL     1       7.034  15.993  19.357  0.00  0.00    +0.000 A 
ATOM     31  C   UNL     1       5.740  16.572  19.481  0.00  0.00    +0.000 A 
ATOM     32  C   UNL     1       5.357  17.680  20.398  0.00  0.00    +0.000 C 
ATOM     33  H   UNL     1       5.388  14.489  17.092  0.00  0.00    +0.000 HD
ENDBRANCH  22  26
ENDBRANCH   1  18
TORSDOF 4
ENDMDL
