MODEL 1
REMARK VINA RESULT:      -7.8      0.000      0.000
REMARK  Name = 
REMARK  8 active torsions:
REMARK  status: ('A' for Active; 'I' for Inactive)
REMARK    1  A    between atoms: C_1  and  C_2
REMARK    2  A    between atoms: C_2  and  O_3
REMARK    3  A    between atoms: O_3  and  C_4
REMARK    4  A    between atoms: C_9  and  N_10
REMARK    5  A    between atoms: C_13  and  C_14
REMARK    6  A    between atoms: N_16  and  C_17
REMARK    7  A    between atoms: C_23  and  C_24
REMARK    8  A    between atoms: C_25  and  C_26
REMARK                            x       y       z     vdW  Elec       q    Type
REMARK                         _______ _______ _______ _____ _____    ______ ____
ROOT
ATOM      1  N   UNL     1       4.302   4.696  17.872  0.00  0.00    +0.000 N 
ATOM      2  N   UNL     1       4.082   3.709  18.780  0.00  0.00    +0.000 NA
ATOM      3  N   UNL     1       3.189   4.121  19.667  0.00  0.00    +0.000 NA
ATOM      4  C   UNL     1       2.814   5.396  19.338  0.00  0.00    +0.000 A 
ATOM      5  C   UNL     1       3.453   5.770  18.160  0.00  0.00    +0.000 A 
ATOM      6  C   UNL     1       3.424   7.068  17.435  0.00  0.00    +0.000 C 
ENDROOT
BRANCH   1  12
ATOM      7  C   UNL     1       6.586   5.229  17.052  0.00  0.00    +0.000 A 
ATOM      8  C   UNL     1       7.451   5.303  15.945  0.00  0.00    +0.000 A 
ATOM      9  C   UNL     1       7.100   4.770  14.704  0.00  0.00    +0.000 A 
ATOM     10  C   UNL     1       5.902   4.092  14.561  0.00  0.00    +0.000 A 
ATOM     11  C   UNL     1       5.036   3.993  15.648  0.00  0.00    +0.000 A 
ATOM     12  C   UNL     1       5.327   4.614  16.878  0.00  0.00    +0.000 A 
BRANCH   7  13
ATOM     13  O   UNL     1       6.897   5.795  18.265  0.00  0.00    +0.000 OA
BRANCH  13  15
ATOM     14  C   UNL     1       7.445   8.058  17.627  0.00  0.00    +0.000 C 
ATOM     15  C   UNL     1       7.935   6.779  18.278  0.00  0.00    +0.000 C 
ENDBRANCH  13  15
ENDBRANCH   7  13
ENDBRANCH   1  12
BRANCH   4  16
ATOM     16  C   UNL     1       1.928   6.207  20.178  0.00  0.00    +0.000 C 
ATOM     17  O   UNL     1       1.143   5.683  20.963  0.00  0.00    +0.000 OA
ATOM     18  N   UNL     1       2.038   7.575  19.947  0.00  0.00    +0.000 N 
ATOM     19  H   UNL     1       2.663   7.819  19.186  0.00  0.00    +0.000 HD
BRANCH  18  20
ATOM     20  C   UNL     1       1.306   8.610  20.578  0.00  0.00    +0.000 A 
ATOM     21  C   UNL     1       1.149   8.639  21.973  0.00  0.00    +0.000 A 
ATOM     22  C   UNL     1       0.445   9.661  22.607  0.00  0.00    +0.000 A 
ATOM     23  C   UNL     1      -0.108  10.685  21.857  0.00  0.00    +0.000 A 
ATOM     24  C   UNL     1       0.042  10.686  20.468  0.00  0.00    +0.000 A 
ATOM     25 CL   UNL     1      -0.661  12.029  19.628  0.00  0.00    +0.000 Cl
ATOM     26  C   UNL     1       0.732   9.648  19.801  0.00  0.00    +0.000 A 
ATOM     27  C   UNL     1       0.861   9.650  18.298  0.00  0.00    +0.000 C 
ENDBRANCH  18  20
ENDBRANCH   4  16
TORSDOF 5
ENDMDL
MODEL 2
REMARK VINA RESULT:      -7.6      2.673      3.743
REMARK  Name = 
REMARK  8 active torsions:
REMARK  status: ('A' for Active; 'I' for Inactive)
REMARK    1  A    between atoms: C_1  and  C_2
REMARK    2  A    between atoms: C_2  and  O_3
REMARK    3  A    between atoms: O_3  and  C_4
REMARK    4  A    between atoms: C_9  and  N_10
REMARK    5  A    between atoms: C_13  and  C_14
REMARK    6  A    between atoms: N_16  and  C_17
REMARK    7  A    between atoms: C_23  and  C_24
REMARK    8  A    between atoms: C_25  and  C_26
REMARK                            x       y       z     vdW  Elec       q    Type
REMARK                         _______ _______ _______ _____ _____    ______ ____
ROOT
ATOM      1  N   UNL     1       2.857   7.248  18.057  0.00  0.00    +0.000 N 
ATOM      2  N   UNL     1       2.851   8.211  17.099  0.00  0.00    +0.000 NA
ATOM      3  N   UNL     1       2.115   9.233  17.510  0.00  0.00    +0.000 NA
ATOM      4  C   UNL     1       1.632   8.940  18.756  0.00  0.00    +0.000 A 
ATOM      5  C   UNL     1       2.139   7.711  19.166  0.00  0.00    +0.000 A 
ATOM      6  C   UNL     1       1.863   6.934  20.404  0.00  0.00    +0.000 C 
ENDROOT
BRANCH   1  12
ATOM      7  C   UNL     1       4.792   5.794  17.495  0.00  0.00    +0.000 A 
ATOM      8  C   UNL     1       5.226   4.521  17.081  0.00  0.00    +0.000 A 
ATOM      9  C   UNL     1       4.358   3.431  17.033  0.00  0.00    +0.000 A 
ATOM     10  C   UNL     1       3.050   3.574  17.463  0.00  0.00    +0.000 A 
ATOM     11  C   UNL     1       2.601   4.821  17.891  0.00  0.00    +0.000 A 
ATOM     12  C   UNL     1       3.435   5.957  17.848  0.00  0.00    +0.000 A 
BRANCH   7  13
ATOM     13  O   UNL     1       5.624   6.888  17.497  0.00  0.00    +0.000 OA
BRANCH  13  15
ATOM     14  C   UNL     1       7.854   7.741  17.862  0.00  0.00    +0.000 C 
ATOM     15  C   UNL     1       7.008   6.655  17.224  0.00  0.00    +0.000 C 
ENDBRANCH  13  15
ENDBRANCH   7  13
ENDBRANCH   1  12
BRANCH   4  16
ATOM     16  C   UNL     1       0.677   9.800  19.462  0.00  0.00    +0.000 C 
ATOM     17  O   UNL     1       0.835  10.085  20.646  0.00  0.00    +0.000 OA
ATOM     18  N   UNL     1      -0.408  10.186  18.682  0.00  0.00    +0.000 N 
ATOM     19  H   UNL     1      -0.426   9.768  17.757  0.00  0.00    +0.000 HD
BRANCH  18  20
ATOM     20  C   UNL     1      -1.503  10.992  19.078  0.00  0.00    +0.000 A 
ATOM     21  C   UNL     1      -1.403  11.857  20.180  0.00  0.00    +0.000 A 
ATOM     22  C   UNL     1      -2.468  12.666  20.570  0.00  0.00    +0.000 A 
ATOM     23  C   UNL     1      -3.655  12.636  19.857  0.00  0.00    +0.000 A 
ATOM     24  C   UNL     1      -3.778  11.791  18.751  0.00  0.00    +0.000 A 
ATOM     25 CL   UNL     1      -5.292  11.853  17.911  0.00  0.00    +0.000 Cl
ATOM     26  C   UNL     1      -2.719  10.944  18.351  0.00  0.00    +0.000 A 
ATOM     27  C   UNL     1      -2.878  10.018  17.170  0.00  0.00    +0.000 C 
ENDBRANCH  18  20
ENDBRANCH   4  16
TORSDOF 5
ENDMDL
MODEL 3
REMARK VINA RESULT:      -7.6      2.288      3.423
REMARK  Name = 
REMARK  8 active torsions:
REMARK  status: ('A' for Active; 'I' for Inactive)
REMARK    1  A    between atoms: C_1  and  C_2
REMARK    2  A    between atoms: C_2  and  O_3
REMARK    3  A    between atoms: O_3  and  C_4
REMARK    4  A    between atoms: C_9  and  N_10
REMARK    5  A    between atoms: C_13  and  C_14
REMARK    6  A    between atoms: N_16  and  C_17
REMARK    7  A    between atoms: C_23  and  C_24
REMARK    8  A    between atoms: C_25  and  C_26
REMARK                            x       y       z     vdW  Elec       q    Type
REMARK                         _______ _______ _______ _____ _____    ______ ____
ROOT
ATOM      1  N   UNL     1       2.882   7.340  18.029  0.00  0.00    +0.000 N 
ATOM      2  N   UNL     1       2.930   8.309  17.079  0.00  0.00    +0.000 NA
ATOM      3  N   UNL     1       2.152   9.318  17.441  0.00  0.00    +0.000 NA
ATOM      4  C   UNL     1       1.585   9.009  18.648  0.00  0.00    +0.000 A 
ATOM      5  C   UNL     1       2.080   7.785  19.086  0.00  0.00    +0.000 A 
ATOM      6  C   UNL     1       1.728   6.995  20.296  0.00  0.00    +0.000 C 
ENDROOT
BRANCH   1  12
ATOM      7  C   UNL     1       4.858   5.922  17.521  0.00  0.00    +0.000 A 
ATOM      8  C   UNL     1       5.327   4.651  17.140  0.00  0.00    +0.000 A 
ATOM      9  C   UNL     1       4.486   3.539  17.104  0.00  0.00    +0.000 A 
ATOM     10  C   UNL     1       3.169   3.660  17.515  0.00  0.00    +0.000 A 
ATOM     11  C   UNL     1       2.686   4.905  17.911  0.00  0.00    +0.000 A 
ATOM     12  C   UNL     1       3.493   6.059  17.854  0.00  0.00    +0.000 A 
BRANCH   7  13
ATOM     13  O   UNL     1       5.664   7.034  17.510  0.00  0.00    +0.000 OA
BRANCH  13  15
ATOM     14  C   UNL     1       7.803   8.150  17.611  0.00  0.00    +0.000 C 
ATOM     15  C   UNL     1       7.069   6.824  17.674  0.00  0.00    +0.000 C 
ENDBRANCH  13  15
ENDBRANCH   7  13
ENDBRANCH   1  12
BRANCH   4  16
ATOM     16  C   UNL     1       0.569   9.850  19.289  0.00  0.00    +0.000 C 
ATOM     17  O   UNL     1      -0.507  10.072  18.742  0.00  0.00    +0.000 OA
ATOM     18  N   UNL     1       0.977  10.387  20.506  0.00  0.00    +0.000 N 
ATOM     19  H   UNL     1       1.940  10.180  20.750  0.00  0.00    +0.000 HD
BRANCH  18  20
ATOM     20  C   UNL     1       0.237  11.251  21.350  0.00  0.00    +0.000 A 
ATOM     21  C   UNL     1      -0.710  10.743  22.253  0.00  0.00    +0.000 A 
ATOM     22  C   UNL     1      -1.433  11.582  23.100  0.00  0.00    +0.000 A 
ATOM     23  C   UNL     1      -1.213  12.948  23.069  0.00  0.00    +0.000 A 
ATOM     24  C   UNL     1      -0.270  13.479  22.186  0.00  0.00    +0.000 A 
ATOM     25 CL   UNL     1      -0.050  15.197  22.250  0.00  0.00    +0.000 Cl
ATOM     26  C   UNL     1       0.458  12.651  21.302  0.00  0.00    +0.000 A 
ATOM     27  C   UNL     1       1.455  13.243  20.336  0.00  0.00    +0.000 C 
ENDBRANCH  18  20
ENDBRANCH   4  16
TORSDOF 5
ENDMDL
MODEL 4
REMARK VINA RESULT:      -7.6      2.745      3.949
REMARK  Name = 
REMARK  8 active torsions:
REMARK  status: ('A' for Active; 'I' for Inactive)
REMARK    1  A    between atoms: C_1  and  C_2
REMARK    2  A    between atoms: C_2  and  O_3
REMARK    3  A    between atoms: O_3  and  C_4
REMARK    4  A    between atoms: C_9  and  N_10
REMARK    5  A    between atoms: C_13  and  C_14
REMARK    6  A    between atoms: N_16  and  C_17
REMARK    7  A    between atoms: C_23  and  C_24
REMARK    8  A    between atoms: C_25  and  C_26
REMARK                            x       y       z     vdW  Elec       q    Type
REMARK                         _______ _______ _______ _____ _____    ______ ____
ROOT
ATOM      1  N   UNL     1       2.940   6.703  18.607  0.00  0.00    +0.000 N 
ATOM      2  N   UNL     1       3.341   7.289  17.449  0.00  0.00    +0.000 NA
ATOM      3  N   UNL     1       2.811   8.500  17.364  0.00  0.00    +0.000 NA
ATOM      4  C   UNL     1       2.052   8.715  18.482  0.00  0.00    +0.000 A 
ATOM      5  C   UNL     1       2.164   7.617  19.329  0.00  0.00    +0.000 A 
ATOM      6  C   UNL     1       1.488   7.344  20.625  0.00  0.00    +0.000 C 
ENDROOT
BRANCH   1  12
ATOM      7  C   UNL     1       4.514   4.896  19.262  0.00  0.00    +0.000 A 
ATOM      8  C   UNL     1       4.756   3.511  19.323  0.00  0.00    +0.000 A 
ATOM      9  C   UNL     1       3.749   2.579  19.068  0.00  0.00    +0.000 A 
ATOM     10  C   UNL     1       2.460   3.013  18.813  0.00  0.00    +0.000 A 
ATOM     11  C   UNL     1       2.193   4.380  18.763  0.00  0.00    +0.000 A 
ATOM     12  C   UNL     1       3.218   5.334  18.915  0.00  0.00    +0.000 A 
BRANCH   7  13
ATOM     13  O   UNL     1       5.508   5.823  19.460  0.00  0.00    +0.000 OA
BRANCH  13  15
ATOM     14  C   UNL     1       7.171   6.453  17.826  0.00  0.00    +0.000 C 
ATOM     15  C   UNL     1       6.807   5.505  18.953  0.00  0.00    +0.000 C 
ENDBRANCH  13  15
ENDBRANCH   7  13
ENDBRANCH   1  12
BRANCH   4  16
ATOM     16  C   UNL     1       1.220   9.909  18.661  0.00  0.00    +0.000 C 
ATOM     17  O   UNL     1       1.723  11.024  18.758  0.00  0.00    +0.000 OA
ATOM     18  N   UNL     1      -0.140   9.630  18.763  0.00  0.00    +0.000 N 
ATOM     19  H   UNL     1      -0.363   8.640  18.767  0.00  0.00    +0.000 HD
BRANCH  18  20
ATOM     20  C   UNL     1      -1.190  10.560  18.961  0.00  0.00    +0.000 A 
ATOM     21  C   UNL     1      -1.198  11.417  20.072  0.00  0.00    +0.000 A 
ATOM     22  C   UNL     1      -2.217  12.347  20.270  0.00  0.00    +0.000 A 
ATOM     23  C   UNL     1      -3.248  12.445  19.350  0.00  0.00    +0.000 A 
ATOM     24  C   UNL     1      -3.260  11.610  18.231  0.00  0.00    +0.000 A 
ATOM     25 CL   UNL     1      -4.577  11.836  17.127  0.00  0.00    +0.000 Cl
ATOM     26  C   UNL     1      -2.249  10.644  18.022  0.00  0.00    +0.000 A 
ATOM     27  C   UNL     1      -2.292   9.731  16.821  0.00  0.00    +0.000 C 
ENDBRANCH  18  20
ENDBRANCH   4  16
TORSDOF 5
ENDMDL
MODEL 5
REMARK VINA RESULT:      -7.5      2.481      3.921
REMARK  Name = 
REMARK  8 active torsions:
REMARK  status: ('A' for Active; 'I' for Inactive)
REMARK    1  A    between atoms: C_1  and  C_2
REMARK    2  A    between atoms: C_2  and  O_3
REMARK    3  A    between atoms: O_3  and  C_4
REMARK    4  A    between atoms: C_9  and  N_10
REMARK    5  A    between atoms: C_13  and  C_14
REMARK    6  A    between atoms: N_16  and  C_17
REMARK    7  A    between atoms: C_23  and  C_24
REMARK    8  A    between atoms: C_25  and  C_26
REMARK                            x       y       z     vdW  Elec       q    Type
REMARK                         _______ _______ _______ _____ _____    ______ ____
ROOT
ATOM      1  N   UNL     1       2.786   6.622  18.546  0.00  0.00    +0.000 N 
ATOM      2  N   UNL     1       3.135   7.213  17.374  0.00  0.00    +0.000 NA
ATOM      3  N   UNL     1       2.695   8.462  17.365  0.00  0.00    +0.000 NA
ATOM      4  C   UNL     1       2.049   8.698  18.549  0.00  0.00    +0.000 A 
ATOM      5  C   UNL     1       2.146   7.568  19.354  0.00  0.00    +0.000 A 
ATOM      6  C   UNL     1       1.559   7.305  20.696  0.00  0.00    +0.000 C 
ENDROOT
BRANCH   1  12
ATOM      7  C   UNL     1       4.208   4.718  19.273  0.00  0.00    +0.000 A 
ATOM      8  C   UNL     1       4.399   3.324  19.270  0.00  0.00    +0.000 A 
ATOM      9  C   UNL     1       3.406   2.450  18.827  0.00  0.00    +0.000 A 
ATOM     10  C   UNL     1       2.174   2.948  18.441  0.00  0.00    +0.000 A 
ATOM     11  C   UNL     1       1.956   4.323  18.449  0.00  0.00    +0.000 A 
ATOM     12  C   UNL     1       2.981   5.227  18.794  0.00  0.00    +0.000 A 
BRANCH   7  13
ATOM     13  O   UNL     1       5.196   5.593  19.657  0.00  0.00    +0.000 OA
BRANCH  13  15
ATOM     14  C   UNL     1       6.591   6.185  17.777  0.00  0.00    +0.000 C 
ATOM     15  C   UNL     1       6.490   5.411  19.078  0.00  0.00    +0.000 C 
ENDBRANCH  13  15
ENDBRANCH   7  13
ENDBRANCH   1  12
BRANCH   4  16
ATOM     16  C   UNL     1       1.330   9.944  18.829  0.00  0.00    +0.000 C 
ATOM     17  O   UNL     1       1.815  11.035  18.541  0.00  0.00    +0.000 OA
ATOM     18  N   UNL     1       0.116   9.753  19.482  0.00  0.00    +0.000 N 
ATOM     19  H   UNL     1      -0.073   8.789  19.735  0.00  0.00    +0.000 HD
BRANCH  18  20
ATOM     20  C   UNL     1      -0.793  10.752  19.906  0.00  0.00    +0.000 A 
ATOM     21  C   UNL     1      -1.624  11.412  18.986  0.00  0.00    +0.000 A 
ATOM     22  C   UNL     1      -2.534  12.385  19.393  0.00  0.00    +0.000 A 
ATOM     23  C   UNL     1      -2.641  12.712  20.734  0.00  0.00    +0.000 A 
ATOM     24  C   UNL     1      -1.833  12.065  21.672  0.00  0.00    +0.000 A 
ATOM     25 CL   UNL     1      -2.067  12.525  23.326  0.00  0.00    +0.000 Cl
ATOM     26  C   UNL     1      -0.886  11.090  21.280  0.00  0.00    +0.000 A 
ATOM     27  C   UNL     1      -0.002  10.419  22.303  0.00  0.00    +0.000 C 
ENDBRANCH  18  20
ENDBRANCH   4  16
TORSDOF 5
ENDMDL
MODEL 6
REMARK VINA RESULT:      -7.5      2.493      4.232
REMARK  Name = 
REMARK  8 active torsions:
REMARK  status: ('A' for Active; 'I' for Inactive)
REMARK    1  A    between atoms: C_1  and  C_2
REMARK    2  A    between atoms: C_2  and  O_3
REMARK    3  A    between atoms: O_3  and  C_4
REMARK    4  A    between atoms: C_9  and  N_10
REMARK    5  A    between atoms: C_13  and  C_14
REMARK    6  A    between atoms: N_16  and  C_17
REMARK    7  A    between atoms: C_23  and  C_24
REMARK    8  A    between atoms: C_25  and  C_26
REMARK                            x       y       z     vdW  Elec       q    Type
REMARK                         _______ _______ _______ _____ _____    ______ ____
ROOT
ATOM      1  N   UNL     1       2.382   6.636  19.145  0.00  0.00    +0.000 N 
ATOM      2  N   UNL     1       2.021   6.240  20.394  0.00  0.00    +0.000 NA
ATOM      3  N   UNL     1       1.475   7.261  21.037  0.00  0.00    +0.000 NA
ATOM      4  C   UNL     1       1.474   8.344  20.200  0.00  0.00    +0.000 A 
ATOM      5  C   UNL     1       1.982   7.965  18.962  0.00  0.00    +0.000 A 
ATOM      6  C   UNL     1       2.242   8.786  17.749  0.00  0.00    +0.000 C 
ENDROOT
BRANCH   1  12
ATOM      7  C   UNL     1       2.634   4.577  17.778  0.00  0.00    +0.000 A 
ATOM      8  C   UNL     1       3.518   3.711  17.107  0.00  0.00    +0.000 A 
ATOM      9  C   UNL     1       4.856   4.048  16.898  0.00  0.00    +0.000 A 
ATOM     10  C   UNL     1       5.323   5.288  17.297  0.00  0.00    +0.000 A 
ATOM     11  C   UNL     1       4.463   6.168  17.950  0.00  0.00    +0.000 A 
ATOM     12  C   UNL     1       3.138   5.804  18.261  0.00  0.00    +0.000 A 
BRANCH   7  13
ATOM     13  O   UNL     1       1.329   4.236  18.036  0.00  0.00    +0.000 OA
BRANCH  13  15
ATOM     14  C   UNL     1       1.075   2.926  20.048  0.00  0.00    +0.000 C 
ATOM     15  C   UNL     1       1.084   2.917  18.532  0.00  0.00    +0.000 C 
ENDBRANCH  13  15
ENDBRANCH   7  13
ENDBRANCH   1  12
BRANCH   4  16
ATOM     16  C   UNL     1       1.052   9.681  20.629  0.00  0.00    +0.000 C 
ATOM     17  O   UNL     1       1.275  10.081  21.768  0.00  0.00    +0.000 OA
ATOM     18  N   UNL     1       0.352  10.384  19.654  0.00  0.00    +0.000 N 
ATOM     19  H   UNL     1       0.170   9.854  18.808  0.00  0.00    +0.000 HD
BRANCH  18  20
ATOM     20  C   UNL     1      -0.203  11.682  19.768  0.00  0.00    +0.000 A 
ATOM     21  C   UNL     1      -1.430  11.890  20.417  0.00  0.00    +0.000 A 
ATOM     22  C   UNL     1      -1.978  13.165  20.550  0.00  0.00    +0.000 A 
ATOM     23  C   UNL     1      -1.301  14.262  20.045  0.00  0.00    +0.000 A 
ATOM     24  C   UNL     1      -0.074  14.085  19.403  0.00  0.00    +0.000 A 
ATOM     25 CL   UNL     1       0.704  15.525  18.836  0.00  0.00    +0.000 Cl
ATOM     26  C   UNL     1       0.490  12.799  19.236  0.00  0.00    +0.000 A 
ATOM     27  C   UNL     1       1.805  12.622  18.516  0.00  0.00    +0.000 C 
ENDBRANCH  18  20
ENDBRANCH   4  16
TORSDOF 5
ENDMDL
MODEL 7
REMARK VINA RESULT:      -7.5      1.550      1.949
REMARK  Name = 
REMARK  8 active torsions:
REMARK  status: ('A' for Active; 'I' for Inactive)
REMARK    1  A    between atoms: C_1  and  C_2
REMARK    2  A    between atoms: C_2  and  O_3
REMARK    3  A    between atoms: O_3  and  C_4
REMARK    4  A    between atoms: C_9  and  N_10
REMARK    5  A    between atoms: C_13  and  C_14
REMARK    6  A    between atoms: N_16  and  C_17
REMARK    7  A    between atoms: C_23  and  C_24
REMARK    8  A    between atoms: C_25  and  C_26
REMARK                            x       y       z     vdW  Elec       q    Type
REMARK                         _______ _______ _______ _____ _____    ______ ____
ROOT
ATOM      1  N   UNL     1       4.119   6.513  17.434  0.00  0.00    +0.000 N 
ATOM      2  N   UNL     1       3.511   7.580  16.851  0.00  0.00    +0.000 NA
ATOM      3  N   UNL     1       2.670   8.131  17.714  0.00  0.00    +0.000 NA
ATOM      4  C   UNL     1       2.727   7.419  18.881  0.00  0.00    +0.000 A 
ATOM      5  C   UNL     1       3.689   6.422  18.763  0.00  0.00    +0.000 A 
ATOM      6  C   UNL     1       4.077   5.356  19.725  0.00  0.00    +0.000 C 
ENDROOT
BRANCH   1  12
ATOM      7  C   UNL     1       6.236   6.009  16.235  0.00  0.00    +0.000 A 
ATOM      8  C   UNL     1       6.905   5.157  15.337  0.00  0.00    +0.000 A 
ATOM      9  C   UNL     1       6.353   3.943  14.929  0.00  0.00    +0.000 A 
ATOM     10  C   UNL     1       5.147   3.523  15.463  0.00  0.00    +0.000 A 
ATOM     11  C   UNL     1       4.473   4.343  16.365  0.00  0.00    +0.000 A 
ATOM     12  C   UNL     1       4.965   5.617  16.709  0.00  0.00    +0.000 A 
BRANCH   7  13
ATOM     13  O   UNL     1       6.745   7.231  16.605  0.00  0.00    +0.000 OA
BRANCH  13  15
ATOM     14  C   UNL     1       8.178   8.658  17.924  0.00  0.00    +0.000 C 
ATOM     15  C   UNL     1       7.645   7.253  17.716  0.00  0.00    +0.000 C 
ENDBRANCH  13  15
ENDBRANCH   7  13
ENDBRANCH   1  12
BRANCH   4  16
ATOM     16  C   UNL     1       1.834   7.678  20.015  0.00  0.00    +0.000 C 
ATOM     17  O   UNL     1       1.445   6.765  20.738  0.00  0.00    +0.000 OA
ATOM     18  N   UNL     1       1.454   9.011  20.132  0.00  0.00    +0.000 N 
ATOM     19  H   UNL     1       1.789   9.607  19.381  0.00  0.00    +0.000 HD
BRANCH  18  20
ATOM     20  C   UNL     1       0.588   9.572  21.102  0.00  0.00    +0.000 A 
ATOM     21  C   UNL     1       0.604   9.123  22.432  0.00  0.00    +0.000 A 
ATOM     22  C   UNL     1      -0.232   9.677  23.399  0.00  0.00    +0.000 A 
ATOM     23  C   UNL     1      -1.095  10.704  23.058  0.00  0.00    +0.000 A 
ATOM     24  C   UNL     1      -1.126  11.177  21.743  0.00  0.00    +0.000 A 
ATOM     25 CL   UNL     1      -2.219  12.484  21.429  0.00  0.00    +0.000 Cl
ATOM     26  C   UNL     1      -0.303  10.614  20.740  0.00  0.00    +0.000 A 
ATOM     27  C   UNL     1      -0.367  11.118  19.319  0.00  0.00    +0.000 C 
ENDBRANCH  18  20
ENDBRANCH   4  16
TORSDOF 5
ENDMDL
MODEL 8
REMARK VINA RESULT:      -7.5      2.460      3.848
REMARK  Name = 
REMARK  8 active torsions:
REMARK  status: ('A' for Active; 'I' for Inactive)
REMARK    1  A    between atoms: C_1  and  C_2
REMARK    2  A    between atoms: C_2  and  O_3
REMARK    3  A    between atoms: O_3  and  C_4
REMARK    4  A    between atoms: C_9  and  N_10
REMARK    5  A    between atoms: C_13  and  C_14
REMARK    6  A    between atoms: N_16  and  C_17
REMARK    7  A    between atoms: C_23  and  C_24
REMARK    8  A    between atoms: C_25  and  C_26
REMARK                            x       y       z     vdW  Elec       q    Type
REMARK                         _______ _______ _______ _____ _____    ______ ____
ROOT
ATOM      1  N   UNL     1       2.459   7.503  18.190  0.00  0.00    +0.000 N 
ATOM      2  N   UNL     1       2.503   8.370  17.146  0.00  0.00    +0.000 NA
ATOM      3  N   UNL     1       2.042   9.549  17.536  0.00  0.00    +0.000 NA
ATOM      4  C   UNL     1       1.693   9.457  18.856  0.00  0.00    +0.000 A 
ATOM      5  C   UNL     1       2.008   8.186  19.324  0.00  0.00    +0.000 A 
ATOM      6  C   UNL     1       1.766   7.580  20.661  0.00  0.00    +0.000 C 
ENDROOT
BRANCH   1  12
ATOM      7  C   UNL     1       4.054   5.633  17.822  0.00  0.00    +0.000 A 
ATOM      8  C   UNL     1       4.221   4.283  17.461  0.00  0.00    +0.000 A 
ATOM      9  C   UNL     1       3.134   3.417  17.341  0.00  0.00    +0.000 A 
ATOM     10  C   UNL     1       1.861   3.865  17.645  0.00  0.00    +0.000 A 
ATOM     11  C   UNL     1       1.672   5.194  18.020  0.00  0.00    +0.000 A 
ATOM     12  C   UNL     1       2.743   6.109  18.046  0.00  0.00    +0.000 A 
BRANCH   7  13
ATOM     13  O   UNL     1       5.110   6.509  17.894  0.00  0.00    +0.000 OA
BRANCH  13  15
ATOM     14  C   UNL     1       7.438   7.078  17.600  0.00  0.00    +0.000 C 
ATOM     15  C   UNL     1       6.312   6.139  17.213  0.00  0.00    +0.000 C 
ENDBRANCH  13  15
ENDBRANCH   7  13
ENDBRANCH   1  12
BRANCH   4  16
ATOM     16  C   UNL     1       1.030  10.546  19.581  0.00  0.00    +0.000 C 
ATOM     17  O   UNL     1       1.515  11.673  19.615  0.00  0.00    +0.000 OA
ATOM     18  N   UNL     1      -0.127  10.150  20.244  0.00  0.00    +0.000 N 
ATOM     19  H   UNL     1      -0.318   9.155  20.191  0.00  0.00    +0.000 HD
BRANCH  18  20
ATOM     20  C   UNL     1      -0.974  10.958  21.043  0.00  0.00    +0.000 A 
ATOM     21  C   UNL     1      -0.897  10.920  22.444  0.00  0.00    +0.000 A 
ATOM     22  C   UNL     1      -1.713  11.721  23.241  0.00  0.00    +0.000 A 
ATOM     23  C   UNL     1      -2.617  12.588  22.650  0.00  0.00    +0.000 A 
ATOM     24  C   UNL     1      -2.707  12.652  21.257  0.00  0.00    +0.000 A 
ATOM     25 CL   UNL     1      -3.846  13.791  20.620  0.00  0.00    +0.000 Cl
ATOM     26  C   UNL     1      -1.906  11.832  20.429  0.00  0.00    +0.000 A 
ATOM     27  C   UNL     1      -2.034  11.895  18.927  0.00  0.00    +0.000 C 
ENDBRANCH  18  20
ENDBRANCH   4  16
TORSDOF 5
ENDMDL
MODEL 9
REMARK VINA RESULT:      -7.5      3.303      8.067
REMARK  Name = 
REMARK  8 active torsions:
REMARK  status: ('A' for Active; 'I' for Inactive)
REMARK    1  A    between atoms: C_1  and  C_2
REMARK    2  A    between atoms: C_2  and  O_3
REMARK    3  A    between atoms: O_3  and  C_4
REMARK    4  A    between atoms: C_9  and  N_10
REMARK    5  A    between atoms: C_13  and  C_14
REMARK    6  A    between atoms: N_16  and  C_17
REMARK    7  A    between atoms: C_23  and  C_24
REMARK    8  A    between atoms: C_25  and  C_26
REMARK                            x       y       z     vdW  Elec       q    Type
REMARK                         _______ _______ _______ _____ _____    ______ ____
ROOT
ATOM      1  N   UNL     1       0.872  10.033  20.113  0.00  0.00    +0.000 N 
ATOM      2  N   UNL     1       0.600   9.542  21.350  0.00  0.00    +0.000 NA
ATOM      3  N   UNL     1       1.039   8.295  21.434  0.00  0.00    +0.000 NA
ATOM      4  C   UNL     1       1.610   7.961  20.236  0.00  0.00    +0.000 A 
ATOM      5  C   UNL     1       1.583   9.066  19.392  0.00  0.00    +0.000 A 
ATOM      6  C   UNL     1       2.020   9.192  17.976  0.00  0.00    +0.000 C 
ENDROOT
BRANCH   1  12
ATOM      7  C   UNL     1      -0.729  11.407  18.802  0.00  0.00    +0.000 A 
ATOM      8  C   UNL     1      -1.004  12.658  18.220  0.00  0.00    +0.000 A 
ATOM      9  C   UNL     1      -0.219  13.780  18.488  0.00  0.00    +0.000 A 
ATOM     10  C   UNL     1       0.819  13.690  19.399  0.00  0.00    +0.000 A 
ATOM     11  C   UNL     1       1.101  12.465  20.000  0.00  0.00    +0.000 A 
ATOM     12  C   UNL     1       0.385  11.299  19.662  0.00  0.00    +0.000 A 
BRANCH   7  13
ATOM     13  O   UNL     1      -1.463  10.284  18.506  0.00  0.00    +0.000 OA
BRANCH  13  15
ATOM     14  C   UNL     1      -2.691   9.899  16.463  0.00  0.00    +0.000 C 
ATOM     15  C   UNL     1      -2.725  10.479  17.863  0.00  0.00    +0.000 C 
ENDBRANCH  13  15
ENDBRANCH   7  13
ENDBRANCH   1  12
BRANCH   4  16
ATOM     16  C   UNL     1       2.093   6.610  19.934  0.00  0.00    +0.000 C 
ATOM     17  O   UNL     1       2.252   5.780  20.824  0.00  0.00    +0.000 OA
ATOM     18  N   UNL     1       2.389   6.411  18.589  0.00  0.00    +0.000 N 
ATOM     19  H   UNL     1       2.296   7.243  18.015  0.00  0.00    +0.000 HD
BRANCH  18  20
ATOM     20  C   UNL     1       2.892   5.231  17.989  0.00  0.00    +0.000 A 
ATOM     21  C   UNL     1       2.139   4.046  17.982  0.00  0.00    +0.000 A 
ATOM     22  C   UNL     1       2.616   2.882  17.381  0.00  0.00    +0.000 A 
ATOM     23  C   UNL     1       3.854   2.884  16.762  0.00  0.00    +0.000 A 
ATOM     24  C   UNL     1       4.620   4.052  16.746  0.00  0.00    +0.000 A 
ATOM     25 CL   UNL     1       6.139   3.955  15.919  0.00  0.00    +0.000 Cl
ATOM     26  C   UNL     1       4.167   5.238  17.369  0.00  0.00    +0.000 A 
ATOM     27  C   UNL     1       5.018   6.484  17.366  0.00  0.00    +0.000 C 
ENDBRANCH  18  20
ENDBRANCH   4  16
TORSDOF 5
ENDMDL
