MODEL 1
REMARK VINA RESULT:      -8.2      0.000      0.000
REMARK  Name = 
REMARK  5 active torsions:
REMARK  status: ('A' for Active; 'I' for Inactive)
REMARK    1  A    between atoms: C_1  and  C_2
REMARK    2  A    between atoms: N_8  and  C_9
REMARK    3  A    between atoms: C_14  and  C_15
REMARK    4  A    between atoms: C_17  and  C_19
REMARK    5  A    between atoms: C_23  and  C_24
REMARK                            x       y       z     vdW  Elec       q    Type
REMARK                         _______ _______ _______ _____ _____    ______ ____
ROOT
ATOM      1  C   UNL     1      -0.107   9.647  17.781  0.00  0.00    +0.000 C 
ATOM      2  C   UNL     1       1.322   9.693  18.348  0.00  0.00    +0.000 C 
ATOM      3  C   UNL     1       1.909  11.122  18.218  0.00  0.00    +0.000 C 
ATOM      4  C   UNL     1       1.613  11.903  19.424  0.00  0.00    +0.000 A 
ATOM      5  C   UNL     1       1.137  11.394  20.610  0.00  0.00    +0.000 A 
ATOM      6  N   UNL     1       1.102  12.390  21.539  0.00  0.00    +0.000 NA
ATOM      7  N   UNL     1       1.560  13.504  20.966  0.00  0.00    +0.000 NA
ATOM      8  N   UNL     1       1.880  13.216  19.680  0.00  0.00    +0.000 N 
ATOM      9  C   UNL     1       0.809   9.957  20.858  0.00  0.00    +0.000 C 
ATOM     10  C   UNL     1      -0.692   9.727  21.048  0.00  0.00    +0.000 C 
ATOM     11  N   UNL     1       1.374   9.126  19.735  0.00  0.00    +0.000 N 
ATOM     12  C   UNL     1       1.802   7.825  20.093  0.00  0.00    +0.000 C 
ATOM     13  O   UNL     1       1.636   7.393  21.234  0.00  0.00    +0.000 OA
ENDROOT
BRANCH  12  14
ATOM     14  C   UNL     1       2.489   6.924  19.111  0.00  0.00    +0.000 A 
ATOM     15  C   UNL     1       3.289   7.489  18.110  0.00  0.00    +0.000 A 
ATOM     16  C   UNL     1       4.060   6.695  17.265  0.00  0.00    +0.000 A 
ATOM     17  C   UNL     1       3.958   5.313  17.337  0.00  0.00    +0.000 A 
ATOM     18  C   UNL     1       3.063   4.705  18.237  0.00  0.00    +0.000 A 
ATOM     19  C   UNL     1       2.322   5.519  19.125  0.00  0.00    +0.000 A 
ATOM     20 CL   UNL     1       1.215   4.750  20.220  0.00  0.00    +0.000 Cl
BRANCH  18  21
ATOM     21  C   UNL     1       2.932   3.200  18.220  0.00  0.00    +0.000 C 
ATOM     22  F   UNL     1       3.800   2.605  17.344  0.00  0.00    +0.000 F 
ATOM     23  F   UNL     1       3.196   2.626  19.423  0.00  0.00    +0.000 F 
ATOM     24  F   UNL     1       1.699   2.769  17.840  0.00  0.00    +0.000 F 
ENDBRANCH  18  21
ENDBRANCH  12  14
BRANCH   8  25
ATOM     25  C   UNL     1       2.397  14.221  18.892  0.00  0.00    +0.000 A 
ATOM     26  C   UNL     1       1.946  15.496  18.637  0.00  0.00    +0.000 A 
ATOM     27  C   UNL     1       2.911  16.035  17.763  0.00  0.00    +0.000 A 
ATOM     28  N   UNL     1       3.885  15.167  17.480  0.00  0.00    +0.000 NA
ATOM     29  N   UNL     1       3.551  14.069  18.182  0.00  0.00    +0.000 N 
ATOM     30  H   UNL     1       4.136  13.240  18.116  0.00  0.00    +0.000 HD
ENDBRANCH   8  25
TORSDOF 3
ENDMDL
MODEL 2
REMARK VINA RESULT:      -7.9      5.567      8.423
REMARK  Name = 
REMARK  5 active torsions:
REMARK  status: ('A' for Active; 'I' for Inactive)
REMARK    1  A    between atoms: C_1  and  C_2
REMARK    2  A    between atoms: N_8  and  C_9
REMARK    3  A    between atoms: C_14  and  C_15
REMARK    4  A    between atoms: C_17  and  C_19
REMARK    5  A    between atoms: C_23  and  C_24
REMARK                            x       y       z     vdW  Elec       q    Type
REMARK                         _______ _______ _______ _____ _____    ______ ____
ROOT
ATOM      1  C   UNL     1       4.142   7.330  16.320  0.00  0.00    +0.000 C 
ATOM      2  C   UNL     1       4.321   5.855  16.715  0.00  0.00    +0.000 C 
ATOM      3  C   UNL     1       4.433   4.966  15.450  0.00  0.00    +0.000 C 
ATOM      4  C   UNL     1       5.839   4.829  15.051  0.00  0.00    +0.000 A 
ATOM      5  C   UNL     1       6.925   5.185  15.815  0.00  0.00    +0.000 A 
ATOM      6  N   UNL     1       8.065   4.797  15.176  0.00  0.00    +0.000 NA
ATOM      7  N   UNL     1       7.714   4.193  14.039  0.00  0.00    +0.000 NA
ATOM      8  N   UNL     1       6.360   4.201  13.958  0.00  0.00    +0.000 N 
ATOM      9  C   UNL     1       6.855   5.807  17.172  0.00  0.00    +0.000 C 
ATOM     10  C   UNL     1       7.350   7.256  17.176  0.00  0.00    +0.000 C 
ATOM     11  N   UNL     1       5.446   5.687  17.692  0.00  0.00    +0.000 N 
ATOM     12  C   UNL     1       5.322   5.535  19.094  0.00  0.00    +0.000 C 
ATOM     13  O   UNL     1       6.309   5.587  19.828  0.00  0.00    +0.000 OA
ENDROOT
BRANCH  12  14
ATOM     14  C   UNL     1       3.994   5.290  19.746  0.00  0.00    +0.000 A 
ATOM     15  C   UNL     1       3.146   6.375  19.999  0.00  0.00    +0.000 A 
ATOM     16  C   UNL     1       1.850   6.187  20.469  0.00  0.00    +0.000 A 
ATOM     17  C   UNL     1       1.416   4.910  20.799  0.00  0.00    +0.000 A 
ATOM     18  C   UNL     1       2.283   3.807  20.688  0.00  0.00    +0.000 A 
ATOM     19  C   UNL     1       3.581   4.002  20.163  0.00  0.00    +0.000 A 
ATOM     20 CL   UNL     1       4.638   2.630  20.045  0.00  0.00    +0.000 Cl
BRANCH  18  21
ATOM     21  C   UNL     1       1.787   2.451  21.136  0.00  0.00    +0.000 C 
ATOM     22  F   UNL     1       0.625   2.526  21.857  0.00  0.00    +0.000 F 
ATOM     23  F   UNL     1       1.506   1.615  20.101  0.00  0.00    +0.000 F 
ATOM     24  F   UNL     1       2.662   1.796  21.945  0.00  0.00    +0.000 F 
ENDBRANCH  18  21
ENDBRANCH  12  14
BRANCH   8  25
ATOM     25  C   UNL     1       5.766   3.607  12.866  0.00  0.00    +0.000 A 
ATOM     26  C   UNL     1       4.634   3.941  12.158  0.00  0.00    +0.000 A 
ATOM     27  C   UNL     1       4.555   2.957  11.151  0.00  0.00    +0.000 A 
ATOM     28  N   UNL     1       5.549   2.070  11.225  0.00  0.00    +0.000 NA
ATOM     29  N   UNL     1       6.276   2.488  12.278  0.00  0.00    +0.000 N 
ATOM     30  H   UNL     1       7.094   1.955  12.561  0.00  0.00    +0.000 HD
ENDBRANCH   8  25
TORSDOF 3
ENDMDL
MODEL 3
REMARK VINA RESULT:      -7.9      2.855      4.076
REMARK  Name = 
REMARK  5 active torsions:
REMARK  status: ('A' for Active; 'I' for Inactive)
REMARK    1  A    between atoms: C_1  and  C_2
REMARK    2  A    between atoms: N_8  and  C_9
REMARK    3  A    between atoms: C_14  and  C_15
REMARK    4  A    between atoms: C_17  and  C_19
REMARK    5  A    between atoms: C_23  and  C_24
REMARK                            x       y       z     vdW  Elec       q    Type
REMARK                         _______ _______ _______ _____ _____    ______ ____
ROOT
ATOM      1  C   UNL     1       1.410   6.151  17.372  0.00  0.00    +0.000 C 
ATOM      2  C   UNL     1       2.524   7.036  17.954  0.00  0.00    +0.000 C 
ATOM      3  C   UNL     1       1.996   8.471  18.212  0.00  0.00    +0.000 C 
ATOM      4  C   UNL     1       1.466   8.577  19.576  0.00  0.00    +0.000 A 
ATOM      5  C   UNL     1       1.649   7.654  20.579  0.00  0.00    +0.000 A 
ATOM      6  N   UNL     1       1.125   8.145  21.737  0.00  0.00    +0.000 NA
ATOM      7  N   UNL     1       0.633   9.359  21.483  0.00  0.00    +0.000 NA
ATOM      8  N   UNL     1       0.844   9.634  20.172  0.00  0.00    +0.000 N 
ATOM      9  C   UNL     1       2.393   6.365  20.437  0.00  0.00    +0.000 C 
ATOM     10  C   UNL     1       1.472   5.147  20.536  0.00  0.00    +0.000 C 
ATOM     11  N   UNL     1       3.167   6.389  19.144  0.00  0.00    +0.000 N 
ATOM     12  C   UNL     1       4.396   5.686  19.153  0.00  0.00    +0.000 C 
ATOM     13  O   UNL     1       4.748   5.037  20.138  0.00  0.00    +0.000 OA
ENDROOT
BRANCH  12  14
ATOM     14  C   UNL     1       5.329   5.715  17.980  0.00  0.00    +0.000 A 
ATOM     15  C   UNL     1       6.377   6.643  17.964  0.00  0.00    +0.000 A 
ATOM     16  C   UNL     1       7.353   6.617  16.971  0.00  0.00    +0.000 A 
ATOM     17  C   UNL     1       7.233   5.726  15.913  0.00  0.00    +0.000 A 
ATOM     18  C   UNL     1       6.122   4.868  15.819  0.00  0.00    +0.000 A 
ATOM     19  C   UNL     1       5.163   4.868  16.858  0.00  0.00    +0.000 A 
ATOM     20 CL   UNL     1       3.794   3.810  16.718  0.00  0.00    +0.000 Cl
BRANCH  18  21
ATOM     21  C   UNL     1       5.999   3.975  14.606  0.00  0.00    +0.000 C 
ATOM     22  F   UNL     1       7.056   4.106  13.746  0.00  0.00    +0.000 F 
ATOM     23  F   UNL     1       5.959   2.652  14.917  0.00  0.00    +0.000 F 
ATOM     24  F   UNL     1       4.897   4.236  13.853  0.00  0.00    +0.000 F 
ENDBRANCH  18  21
ENDBRANCH  12  14
BRANCH   8  25
ATOM     25  C   UNL     1       0.432  10.855  19.684  0.00  0.00    +0.000 A 
ATOM     26  C   UNL     1      -0.796  11.284  19.237  0.00  0.00    +0.000 A 
ATOM     27  C   UNL     1      -0.581  12.630  18.878  0.00  0.00    +0.000 A 
ATOM     28  N   UNL     1       0.682  13.014  19.072  0.00  0.00    +0.000 NA
ATOM     29  N   UNL     1       1.281  11.915  19.566  0.00  0.00    +0.000 N 
ATOM     30  H   UNL     1       2.275  11.944  19.780  0.00  0.00    +0.000 HD
ENDBRANCH   8  25
TORSDOF 3
ENDMDL
MODEL 4
REMARK VINA RESULT:      -7.6      6.878      9.119
REMARK  Name = 
REMARK  5 active torsions:
REMARK  status: ('A' for Active; 'I' for Inactive)
REMARK    1  A    between atoms: C_1  and  C_2
REMARK    2  A    between atoms: N_8  and  C_9
REMARK    3  A    between atoms: C_14  and  C_15
REMARK    4  A    between atoms: C_17  and  C_19
REMARK    5  A    between atoms: C_23  and  C_24
REMARK                            x       y       z     vdW  Elec       q    Type
REMARK                         _______ _______ _______ _____ _____    ______ ____
ROOT
ATOM      1  C   UNL     1      -0.713  10.950  19.696  0.00  0.00    +0.000 C 
ATOM      2  C   UNL     1      -1.145  12.423  19.791  0.00  0.00    +0.000 C 
ATOM      3  C   UNL     1      -2.641  12.572  19.414  0.00  0.00    +0.000 C 
ATOM      4  C   UNL     1      -3.480  12.451  20.613  0.00  0.00    +0.000 A 
ATOM      5  C   UNL     1      -3.028  12.480  21.911  0.00  0.00    +0.000 A 
ATOM      6  N   UNL     1      -4.098  12.467  22.755  0.00  0.00    +0.000 NA
ATOM      7  N   UNL     1      -5.206  12.447  22.013  0.00  0.00    +0.000 NA
ATOM      8  N   UNL     1      -4.840  12.445  20.708  0.00  0.00    +0.000 N 
ATOM      9  C   UNL     1      -1.596  12.606  22.320  0.00  0.00    +0.000 C 
ATOM     10  C   UNL     1      -1.063  11.330  22.976  0.00  0.00    +0.000 C 
ATOM     11  N   UNL     1      -0.779  13.011  21.121  0.00  0.00    +0.000 N 
ATOM     12  C   UNL     1       0.340  13.835  21.392  0.00  0.00    +0.000 C 
ATOM     13  O   UNL     1       0.654  14.117  22.549  0.00  0.00    +0.000 OA
ENDROOT
BRANCH  12  14
ATOM     14  C   UNL     1       1.180  14.412  20.293  0.00  0.00    +0.000 A 
ATOM     15  C   UNL     1       2.337  13.734  19.890  0.00  0.00    +0.000 A 
ATOM     16  C   UNL     1       3.071  14.149  18.782  0.00  0.00    +0.000 A 
ATOM     17  C   UNL     1       2.719  15.319  18.124  0.00  0.00    +0.000 A 
ATOM     18  C   UNL     1       1.644  16.104  18.579  0.00  0.00    +0.000 A 
ATOM     19  C   UNL     1       0.874  15.647  19.674  0.00  0.00    +0.000 A 
ATOM     20 CL   UNL     1      -0.441  16.636  20.228  0.00  0.00    +0.000 Cl
BRANCH  18  21
ATOM     21  C   UNL     1       1.353  17.409  17.875  0.00  0.00    +0.000 C 
ATOM     22  F   UNL     1       2.217  17.655  16.842  0.00  0.00    +0.000 F 
ATOM     23  F   UNL     1       0.114  17.451  17.316  0.00  0.00    +0.000 F 
ATOM     24  F   UNL     1       1.455  18.496  18.687  0.00  0.00    +0.000 F 
ENDBRANCH  18  21
ENDBRANCH  12  14
BRANCH   8  25
ATOM     25  C   UNL     1      -5.830  12.446  19.749  0.00  0.00    +0.000 A 
ATOM     26  C   UNL     1      -6.764  13.399  19.411  0.00  0.00    +0.000 A 
ATOM     27  C   UNL     1      -7.486  12.813  18.352  0.00  0.00    +0.000 A 
ATOM     28  N   UNL     1      -7.051  11.587  18.054  0.00  0.00    +0.000 NA
ATOM     29  N   UNL     1      -6.040  11.385  18.919  0.00  0.00    +0.000 N 
ATOM     30  H   UNL     1      -5.548  10.495  18.909  0.00  0.00    +0.000 HD
ENDBRANCH   8  25
TORSDOF 3
ENDMDL
MODEL 5
REMARK VINA RESULT:      -7.6      7.188      9.588
REMARK  Name = 
REMARK  5 active torsions:
REMARK  status: ('A' for Active; 'I' for Inactive)
REMARK    1  A    between atoms: C_1  and  C_2
REMARK    2  A    between atoms: N_8  and  C_9
REMARK    3  A    between atoms: C_14  and  C_15
REMARK    4  A    between atoms: C_17  and  C_19
REMARK    5  A    between atoms: C_23  and  C_24
REMARK                            x       y       z     vdW  Elec       q    Type
REMARK                         _______ _______ _______ _____ _____    ______ ____
ROOT
ATOM      1  C   UNL     1      -1.568  14.135  20.056  0.00  0.00    +0.000 C 
ATOM      2  C   UNL     1      -2.262  12.764  20.082  0.00  0.00    +0.000 C 
ATOM      3  C   UNL     1      -1.303  11.662  19.563  0.00  0.00    +0.000 C 
ATOM      4  C   UNL     1      -0.545  11.084  20.679  0.00  0.00    +0.000 A 
ATOM      5  C   UNL     1      -0.820  11.270  22.014  0.00  0.00    +0.000 A 
ATOM      6  N   UNL     1       0.011  10.482  22.753  0.00  0.00    +0.000 NA
ATOM      7  N   UNL     1       0.786   9.797  21.911  0.00  0.00    +0.000 NA
ATOM      8  N   UNL     1       0.449  10.151  20.646  0.00  0.00    +0.000 N 
ATOM      9  C   UNL     1      -1.921  12.125  22.554  0.00  0.00    +0.000 C 
ATOM     10  C   UNL     1      -1.393  13.364  23.281  0.00  0.00    +0.000 C 
ATOM     11  N   UNL     1      -2.858  12.482  21.429  0.00  0.00    +0.000 N 
ATOM     12  C   UNL     1      -4.219  12.628  21.790  0.00  0.00    +0.000 C 
ATOM     13  O   UNL     1      -4.577  12.547  22.965  0.00  0.00    +0.000 OA
ENDROOT
BRANCH  12  14
ATOM     14  C   UNL     1      -5.285  12.869  20.763  0.00  0.00    +0.000 A 
ATOM     15  C   UNL     1      -5.945  11.772  20.194  0.00  0.00    +0.000 A 
ATOM     16  C   UNL     1      -7.036  11.944  19.347  0.00  0.00    +0.000 A 
ATOM     17  C   UNL     1      -7.416  13.223  18.966  0.00  0.00    +0.000 A 
ATOM     18  C   UNL     1      -6.694  14.348  19.406  0.00  0.00    +0.000 A 
ATOM     19  C   UNL     1      -5.619  14.166  20.307  0.00  0.00    +0.000 A 
ATOM     20 CL   UNL     1      -4.734  15.565  20.829  0.00  0.00    +0.000 Cl
BRANCH  18  21
ATOM     21  C   UNL     1      -7.100  15.712  18.898  0.00  0.00    +0.000 C 
ATOM     22  F   UNL     1      -7.916  15.644  17.800  0.00  0.00    +0.000 F 
ATOM     23  F   UNL     1      -7.798  16.438  19.811  0.00  0.00    +0.000 F 
ATOM     24  F   UNL     1      -6.047  16.479  18.508  0.00  0.00    +0.000 F 
ENDBRANCH  18  21
ENDBRANCH  12  14
BRANCH   8  25
ATOM     25  C   UNL     1       1.112   9.549  19.598  0.00  0.00    +0.000 A 
ATOM     26  C   UNL     1       1.798   8.358  19.525  0.00  0.00    +0.000 A 
ATOM     27  C   UNL     1       2.241   8.298  18.188  0.00  0.00    +0.000 A 
ATOM     28  N   UNL     1       1.874   9.368  17.480  0.00  0.00    +0.000 NA
ATOM     29  N   UNL     1       1.185  10.116  18.361  0.00  0.00    +0.000 N 
ATOM     30  H   UNL     1       0.811  11.014  18.065  0.00  0.00    +0.000 HD
ENDBRANCH   8  25
TORSDOF 3
ENDMDL
MODEL 6
REMARK VINA RESULT:      -7.5      6.285      8.494
REMARK  Name = 
REMARK  5 active torsions:
REMARK  status: ('A' for Active; 'I' for Inactive)
REMARK    1  A    between atoms: C_1  and  C_2
REMARK    2  A    between atoms: N_8  and  C_9
REMARK    3  A    between atoms: C_14  and  C_15
REMARK    4  A    between atoms: C_17  and  C_19
REMARK    5  A    between atoms: C_23  and  C_24
REMARK                            x       y       z     vdW  Elec       q    Type
REMARK                         _______ _______ _______ _____ _____    ______ ____
ROOT
ATOM      1  C   UNL     1       0.684  11.082  20.869  0.00  0.00    +0.000 C 
ATOM      2  C   UNL     1       0.325  12.328  20.041  0.00  0.00    +0.000 C 
ATOM      3  C   UNL     1      -0.481  11.924  18.780  0.00  0.00    +0.000 C 
ATOM      4  C   UNL     1      -1.919  11.942  19.071  0.00  0.00    +0.000 A 
ATOM      5  C   UNL     1      -2.502  12.493  20.188  0.00  0.00    +0.000 A 
ATOM      6  N   UNL     1      -3.858  12.436  20.057  0.00  0.00    +0.000 NA
ATOM      7  N   UNL     1      -4.133  11.877  18.878  0.00  0.00    +0.000 NA
ATOM      8  N   UNL     1      -2.960  11.580  18.267  0.00  0.00    +0.000 N 
ATOM      9  C   UNL     1      -1.762  13.139  21.315  0.00  0.00    +0.000 C 
ATOM     10  C   UNL     1      -1.853  12.330  22.611  0.00  0.00    +0.000 C 
ATOM     11  N   UNL     1      -0.335  13.373  20.890  0.00  0.00    +0.000 N 
ATOM     12  C   UNL     1       0.286  14.521  21.438  0.00  0.00    +0.000 C 
ATOM     13  O   UNL     1      -0.293  15.221  22.269  0.00  0.00    +0.000 OA
ENDROOT
BRANCH  12  14
ATOM     14  C   UNL     1       1.661  14.948  21.021  0.00  0.00    +0.000 A 
ATOM     15  C   UNL     1       2.714  14.853  21.940  0.00  0.00    +0.000 A 
ATOM     16  C   UNL     1       4.030  15.100  21.561  0.00  0.00    +0.000 A 
ATOM     17  C   UNL     1       4.303  15.554  20.279  0.00  0.00    +0.000 A 
ATOM     18  C   UNL     1       3.261  15.794  19.365  0.00  0.00    +0.000 A 
ATOM     19  C   UNL     1       1.932  15.492  19.743  0.00  0.00    +0.000 A 
ATOM     20 CL   UNL     1       0.659  15.806  18.605  0.00  0.00    +0.000 Cl
BRANCH  18  21
ATOM     21  C   UNL     1       3.606  16.364  18.009  0.00  0.00    +0.000 C 
ATOM     22  F   UNL     1       2.811  17.424  17.665  0.00  0.00    +0.000 F 
ATOM     23  F   UNL     1       4.878  16.839  17.935  0.00  0.00    +0.000 F 
ATOM     24  F   UNL     1       3.460  15.470  16.994  0.00  0.00    +0.000 F 
ENDBRANCH  18  21
ENDBRANCH  12  14
BRANCH   8  25
ATOM     25  C   UNL     1      -2.999  11.007  17.014  0.00  0.00    +0.000 A 
ATOM     26  C   UNL     1      -2.614   9.761  16.575  0.00  0.00    +0.000 A 
ATOM     27  C   UNL     1      -2.912   9.774  15.198  0.00  0.00    +0.000 A 
ATOM     28  N   UNL     1      -3.432  10.937  14.799  0.00  0.00    +0.000 NA
ATOM     29  N   UNL     1      -3.477  11.672  15.924  0.00  0.00    +0.000 N 
ATOM     30  H   UNL     1      -3.821  12.628  15.880  0.00  0.00    +0.000 HD
ENDBRANCH   8  25
TORSDOF 3
ENDMDL
MODEL 7
REMARK VINA RESULT:      -7.5      7.069      9.540
REMARK  Name = 
REMARK  5 active torsions:
REMARK  status: ('A' for Active; 'I' for Inactive)
REMARK    1  A    between atoms: C_1  and  C_2
REMARK    2  A    between atoms: N_8  and  C_9
REMARK    3  A    between atoms: C_14  and  C_15
REMARK    4  A    between atoms: C_17  and  C_19
REMARK    5  A    between atoms: C_23  and  C_24
REMARK                            x       y       z     vdW  Elec       q    Type
REMARK                         _______ _______ _______ _____ _____    ______ ____
ROOT
ATOM      1  C   UNL     1      -0.881  14.283  19.842  0.00  0.00    +0.000 C 
ATOM      2  C   UNL     1      -1.723  13.070  20.271  0.00  0.00    +0.000 C 
ATOM      3  C   UNL     1      -2.267  12.323  19.026  0.00  0.00    +0.000 C 
ATOM      4  C   UNL     1      -1.324  11.277  18.611  0.00  0.00    +0.000 A 
ATOM      5  C   UNL     1      -0.258  10.823  19.351  0.00  0.00    +0.000 A 
ATOM      6  N   UNL     1       0.313   9.767  18.706  0.00  0.00    +0.000 NA
ATOM      7  N   UNL     1      -0.381   9.542  17.590  0.00  0.00    +0.000 NA
ATOM      8  N   UNL     1      -1.385  10.452  17.528  0.00  0.00    +0.000 N 
ATOM      9  C   UNL     1       0.141  11.344  20.694  0.00  0.00    +0.000 C 
ATOM     10  C   UNL     1       1.477  12.091  20.655  0.00  0.00    +0.000 C 
ATOM     11  N   UNL     1      -0.973  12.202  21.236  0.00  0.00    +0.000 N 
ATOM     12  C   UNL     1      -1.129  12.185  22.643  0.00  0.00    +0.000 C 
ATOM     13  O   UNL     1      -0.340  11.570  23.362  0.00  0.00    +0.000 OA
ENDROOT
BRANCH  12  14
ATOM     14  C   UNL     1      -2.263  12.895  23.319  0.00  0.00    +0.000 A 
ATOM     15  C   UNL     1      -3.482  12.227  23.490  0.00  0.00    +0.000 A 
ATOM     16  C   UNL     1      -4.515  12.787  24.235  0.00  0.00    +0.000 A 
ATOM     17  C   UNL     1      -4.386  14.077  24.730  0.00  0.00    +0.000 A 
ATOM     18  C   UNL     1      -3.231  14.836  24.464  0.00  0.00    +0.000 A 
ATOM     19  C   UNL     1      -2.166  14.240  23.750  0.00  0.00    +0.000 A 
ATOM     20 CL   UNL     1      -0.754  15.196  23.423  0.00  0.00    +0.000 Cl
BRANCH  18  21
ATOM     21  C   UNL     1      -3.174  16.263  24.958  0.00  0.00    +0.000 C 
ATOM     22  F   UNL     1      -2.886  17.155  23.961  0.00  0.00    +0.000 F 
ATOM     23  F   UNL     1      -4.351  16.694  25.487  0.00  0.00    +0.000 F 
ATOM     24  F   UNL     1      -2.219  16.470  25.904  0.00  0.00    +0.000 F 
ENDBRANCH  18  21
ENDBRANCH  12  14
BRANCH   8  25
ATOM     25  C   UNL     1      -2.253  10.398  16.459  0.00  0.00    +0.000 A 
ATOM     26  C   UNL     1      -2.897   9.335  15.867  0.00  0.00    +0.000 A 
ATOM     27  C   UNL     1      -3.649   9.923  14.829  0.00  0.00    +0.000 A 
ATOM     28  N   UNL     1      -3.483  11.246  14.765  0.00  0.00    +0.000 NA
ATOM     29  N   UNL     1      -2.629  11.513  15.769  0.00  0.00    +0.000 N 
ATOM     30  H   UNL     1      -2.321  12.470  15.919  0.00  0.00    +0.000 HD
ENDBRANCH   8  25
TORSDOF 3
ENDMDL
MODEL 8
REMARK VINA RESULT:      -7.4      6.411      8.085
REMARK  Name = 
REMARK  5 active torsions:
REMARK  status: ('A' for Active; 'I' for Inactive)
REMARK    1  A    between atoms: C_1  and  C_2
REMARK    2  A    between atoms: N_8  and  C_9
REMARK    3  A    between atoms: C_14  and  C_15
REMARK    4  A    between atoms: C_17  and  C_19
REMARK    5  A    between atoms: C_23  and  C_24
REMARK                            x       y       z     vdW  Elec       q    Type
REMARK                         _______ _______ _______ _____ _____    ______ ____
ROOT
ATOM      1  C   UNL     1       5.339  15.406  22.205  0.00  0.00    +0.000 C 
ATOM      2  C   UNL     1       5.503  14.783  20.809  0.00  0.00    +0.000 C 
ATOM      3  C   UNL     1       4.126  14.350  20.245  0.00  0.00    +0.000 C 
ATOM      4  C   UNL     1       3.527  15.446  19.474  0.00  0.00    +0.000 A 
ATOM      5  C   UNL     1       4.180  16.585  19.064  0.00  0.00    +0.000 A 
ATOM      6  N   UNL     1       3.347  17.312  18.267  0.00  0.00    +0.000 NA
ATOM      7  N   UNL     1       2.197  16.646  18.157  0.00  0.00    +0.000 NA
ATOM      8  N   UNL     1       2.300  15.505  18.882  0.00  0.00    +0.000 N 
ATOM      9  C   UNL     1       5.606  16.914  19.366  0.00  0.00    +0.000 C 
ATOM     10  C   UNL     1       5.740  18.107  20.316  0.00  0.00    +0.000 C 
ATOM     11  N   UNL     1       6.289  15.683  19.902  0.00  0.00    +0.000 N 
ATOM     12  C   UNL     1       7.662  15.555  19.580  0.00  0.00    +0.000 C 
ATOM     13  O   UNL     1       8.257  16.445  18.973  0.00  0.00    +0.000 OA
ENDROOT
BRANCH  12  14
ATOM     14  C   UNL     1       8.446  14.330  19.944  0.00  0.00    +0.000 A 
ATOM     15  C   UNL     1       9.119  14.290  21.172  0.00  0.00    +0.000 A 
ATOM     16  C   UNL     1       9.740  13.128  21.619  0.00  0.00    +0.000 A 
ATOM     17  C   UNL     1       9.792  12.014  20.793  0.00  0.00    +0.000 A 
ATOM     18  C   UNL     1       9.247  12.056  19.496  0.00  0.00    +0.000 A 
ATOM     19  C   UNL     1       8.574  13.224  19.070  0.00  0.00    +0.000 A 
ATOM     20 CL   UNL     1       7.918  13.259  17.463  0.00  0.00    +0.000 Cl
BRANCH  18  21
ATOM     21  C   UNL     1       9.401  10.843  18.608  0.00  0.00    +0.000 C 
ATOM     22  F   UNL     1      10.347  11.018  17.634  0.00  0.00    +0.000 F 
ATOM     23  F   UNL     1       9.794   9.730  19.284  0.00  0.00    +0.000 F 
ATOM     24  F   UNL     1       8.263  10.515  17.939  0.00  0.00    +0.000 F 
ENDBRANCH  18  21
ENDBRANCH  12  14
BRANCH   8  25
ATOM     25  C   UNL     1       1.227  14.641  18.900  0.00  0.00    +0.000 A 
ATOM     26  C   UNL     1       0.007  14.723  19.532  0.00  0.00    +0.000 A 
ATOM     27  C   UNL     1      -0.656  13.537  19.158  0.00  0.00    +0.000 A 
ATOM     28  N   UNL     1       0.089  12.765  18.364  0.00  0.00    +0.000 NA
ATOM     29  N   UNL     1       1.232  13.460  18.219  0.00  0.00    +0.000 N 
ATOM     30  H   UNL     1       1.987  13.064  17.664  0.00  0.00    +0.000 HD
ENDBRANCH   8  25
TORSDOF 3
ENDMDL
MODEL 9
REMARK VINA RESULT:      -7.4      5.535      7.595
REMARK  Name = 
REMARK  5 active torsions:
REMARK  status: ('A' for Active; 'I' for Inactive)
REMARK    1  A    between atoms: C_1  and  C_2
REMARK    2  A    between atoms: N_8  and  C_9
REMARK    3  A    between atoms: C_14  and  C_15
REMARK    4  A    between atoms: C_17  and  C_19
REMARK    5  A    between atoms: C_23  and  C_24
REMARK                            x       y       z     vdW  Elec       q    Type
REMARK                         _______ _______ _______ _____ _____    ______ ____
ROOT
ATOM      1  C   UNL     1      -1.059  12.427  22.804  0.00  0.00    +0.000 C 
ATOM      2  C   UNL     1      -2.051  12.656  21.652  0.00  0.00    +0.000 C 
ATOM      3  C   UNL     1      -3.479  12.893  22.207  0.00  0.00    +0.000 C 
ATOM      4  C   UNL     1      -3.704  14.326  22.428  0.00  0.00    +0.000 A 
ATOM      5  C   UNL     1      -2.902  15.343  21.965  0.00  0.00    +0.000 A 
ATOM      6  N   UNL     1      -3.488  16.539  22.253  0.00  0.00    +0.000 NA
ATOM      7  N   UNL     1      -4.645  16.292  22.870  0.00  0.00    +0.000 NA
ATOM      8  N   UNL     1      -4.788  14.947  22.974  0.00  0.00    +0.000 N 
ATOM      9  C   UNL     1      -1.641  15.155  21.184  0.00  0.00    +0.000 C 
ATOM     10  C   UNL     1      -0.399  15.573  21.974  0.00  0.00    +0.000 C 
ATOM     11  N   UNL     1      -1.563  13.724  20.719  0.00  0.00    +0.000 N 
ATOM     12  C   UNL     1      -0.923  13.519  19.473  0.00  0.00    +0.000 C 
ATOM     13  O   UNL     1      -0.398  14.454  18.868  0.00  0.00    +0.000 OA
ENDROOT
BRANCH  12  14
ATOM     14  C   UNL     1      -0.871  12.168  18.827  0.00  0.00    +0.000 A 
ATOM     15  C   UNL     1      -1.991  11.700  18.129  0.00  0.00    +0.000 A 
ATOM     16  C   UNL     1      -1.945  10.520  17.393  0.00  0.00    +0.000 A 
ATOM     17  C   UNL     1      -0.806   9.728  17.433  0.00  0.00    +0.000 A 
ATOM     18  C   UNL     1       0.294  10.093  18.232  0.00  0.00    +0.000 A 
ATOM     19  C   UNL     1       0.256  11.319  18.935  0.00  0.00    +0.000 A 
ATOM     20 CL   UNL     1       1.619  11.745  19.923  0.00  0.00    +0.000 Cl
BRANCH  18  21
ATOM     21  C   UNL     1       1.477   9.156  18.303  0.00  0.00    +0.000 C 
ATOM     22  F   UNL     1       1.334   8.063  17.490  0.00  0.00    +0.000 F 
ATOM     23  F   UNL     1       2.643   9.735  17.912  0.00  0.00    +0.000 F 
ATOM     24  F   UNL     1       1.688   8.645  19.546  0.00  0.00    +0.000 F 
ENDBRANCH  18  21
ENDBRANCH  12  14
BRANCH   8  25
ATOM     25  C   UNL     1      -5.931  14.454  23.566  0.00  0.00    +0.000 A 
ATOM     26  C   UNL     1      -7.176  15.014  23.740  0.00  0.00    +0.000 A 
ATOM     27  C   UNL     1      -7.914  14.015  24.406  0.00  0.00    +0.000 A 
ATOM     28  N   UNL     1      -7.190  12.919  24.643  0.00  0.00    +0.000 NA
ATOM     29  N   UNL     1      -5.984  13.210  24.121  0.00  0.00    +0.000 N 
ATOM     30  H   UNL     1      -5.233  12.529  24.195  0.00  0.00    +0.000 HD
ENDBRANCH   8  25
TORSDOF 3
ENDMDL
