MODEL 1
REMARK VINA RESULT:      -7.8      0.000      0.000
REMARK  Name = 
REMARK  10 active torsions:
REMARK  status: ('A' for Active; 'I' for Inactive)
REMARK    1  A    between atoms: C_1  and  C_2
REMARK    2  A    between atoms: C_2  and  C_3
REMARK    3  A    between atoms: C_2  and  C_4
REMARK    4  A    between atoms: C_9  and  O_10
REMARK    5  A    between atoms: O_10  and  C_11
REMARK    6  A    between atoms: C_11  and  C_12
REMARK    7  A    between atoms: C_12  and  N_13
REMARK    8  A    between atoms: C_15  and  N_16
REMARK    9  A    between atoms: N_16  and  S_17
REMARK   10  A    between atoms: S_17  and  C_20
REMARK                            x       y       z     vdW  Elec       q    Type
REMARK                         _______ _______ _______ _____ _____    ______ ____
ROOT
ATOM      1  N   UNL     1       3.398   5.202  18.994  0.00  0.00    +0.000 NA
ATOM      2  C   UNL     1       4.840   5.248  19.345  0.00  0.00    +0.000 C 
ATOM      3  C   UNL     1       5.146   4.411  18.072  0.00  0.00    +0.000 C 
ATOM      4  C   UNL     1       3.665   3.965  18.209  0.00  0.00    +0.000 C 
ENDROOT
BRANCH   3   5
ATOM      5  N   UNL     1       5.545   5.111  16.792  0.00  0.00    +0.000 NA
ATOM      6  H   UNL     1       5.037   5.968  16.568  0.00  0.00    +0.000 HD
BRANCH   5   7
ATOM      7  S   UNL     1       7.152   5.254  16.282  0.00  0.00    +0.000 S 
ATOM      8  O   UNL     1       7.494   6.657  16.387  0.00  0.00    +0.000 OA
ATOM      9  O   UNL     1       7.898   4.229  16.962  0.00  0.00    +0.000 OA
BRANCH   7  10
ATOM     10  C   UNL     1       7.053   4.863  14.556  0.00  0.00    +0.000 A 
ATOM     11  C   UNL     1       7.852   5.554  13.636  0.00  0.00    +0.000 A 
ATOM     12  C   UNL     1       7.794   5.217  12.282  0.00  0.00    +0.000 A 
ATOM     13  C   UNL     1       6.948   4.190  11.856  0.00  0.00    +0.000 A 
ATOM     14  C   UNL     1       6.165   3.511  12.784  0.00  0.00    +0.000 A 
ATOM     15  F   UNL     1       5.359   2.525  12.368  0.00  0.00    +0.000 F 
ATOM     16  C   UNL     1       6.205   3.835  14.133  0.00  0.00    +0.000 A 
ENDBRANCH   7  10
ENDBRANCH   5   7
ENDBRANCH   3   5
BRANCH   1  17
ATOM     17  C   UNL     1       2.493   4.914  20.141  0.00  0.00    +0.000 C 
BRANCH  17  18
ATOM     18  C   UNL     1       1.573   6.105  20.486  0.00  0.00    +0.000 C 
BRANCH  18  19
ATOM     19  O   UNL     1       2.079   7.437  20.165  0.00  0.00    +0.000 OA
BRANCH  19  25
ATOM     20  C   UNL     1       0.784   9.510  19.883  0.00  0.00    +0.000 A 
ATOM     21  C   UNL     1       0.173  10.615  20.536  0.00  0.00    +0.000 A 
ATOM     22  C   UNL     1       0.037  10.691  21.918  0.00  0.00    +0.000 A 
ATOM     23  C   UNL     1       0.452   9.628  22.692  0.00  0.00    +0.000 A 
ATOM     24  C   UNL     1       1.031   8.519  22.080  0.00  0.00    +0.000 A 
ATOM     25  C   UNL     1       1.291   8.462  20.691  0.00  0.00    +0.000 A 
BRANCH  20  27
ATOM     26  C   UNL     1       1.933   8.776  17.763  0.00  0.00    +0.000 C 
ATOM     27  C   UNL     1       0.865   9.686  18.368  0.00  0.00    +0.000 C 
ATOM     28  C   UNL     1      -0.444   9.716  17.586  0.00  0.00    +0.000 C 
ENDBRANCH  20  27
ENDBRANCH  19  25
ENDBRANCH  18  19
ENDBRANCH  17  18
ENDBRANCH   1  17
TORSDOF 8
ENDMDL
MODEL 2
REMARK VINA RESULT:      -7.8      1.093      2.397
REMARK  Name = 
REMARK  10 active torsions:
REMARK  status: ('A' for Active; 'I' for Inactive)
REMARK    1  A    between atoms: C_1  and  C_2
REMARK    2  A    between atoms: C_2  and  C_3
REMARK    3  A    between atoms: C_2  and  C_4
REMARK    4  A    between atoms: C_9  and  O_10
REMARK    5  A    between atoms: O_10  and  C_11
REMARK    6  A    between atoms: C_11  and  C_12
REMARK    7  A    between atoms: C_12  and  N_13
REMARK    8  A    between atoms: C_15  and  N_16
REMARK    9  A    between atoms: N_16  and  S_17
REMARK   10  A    between atoms: S_17  and  C_20
REMARK                            x       y       z     vdW  Elec       q    Type
REMARK                         _______ _______ _______ _____ _____    ______ ____
ROOT
ATOM      1  N   UNL     1       3.064   4.110  18.944  0.00  0.00    +0.000 NA
ATOM      2  C   UNL     1       4.525   4.147  19.203  0.00  0.00    +0.000 C 
ATOM      3  C   UNL     1       4.725   3.121  18.053  0.00  0.00    +0.000 C 
ATOM      4  C   UNL     1       3.242   2.762  18.336  0.00  0.00    +0.000 C 
ENDROOT
BRANCH   3   5
ATOM      5  N   UNL     1       5.068   3.611  16.663  0.00  0.00    +0.000 NA
ATOM      6  H   UNL     1       4.282   3.762  16.030  0.00  0.00    +0.000 HD
BRANCH   5   7
ATOM      7  S   UNL     1       6.269   4.765  16.363  0.00  0.00    +0.000 S 
ATOM      8  O   UNL     1       5.654   6.060  16.561  0.00  0.00    +0.000 OA
ATOM      9  O   UNL     1       7.438   4.349  17.093  0.00  0.00    +0.000 OA
BRANCH   7  10
ATOM     10  C   UNL     1       6.564   4.581  14.625  0.00  0.00    +0.000 A 
ATOM     11  C   UNL     1       7.592   5.308  14.010  0.00  0.00    +0.000 A 
ATOM     12  C   UNL     1       7.841   5.132  12.647  0.00  0.00    +0.000 A 
ATOM     13  C   UNL     1       7.072   4.229  11.909  0.00  0.00    +0.000 A 
ATOM     14  C   UNL     1       6.059   3.511  12.538  0.00  0.00    +0.000 A 
ATOM     15  F   UNL     1       5.329   2.644  11.824  0.00  0.00    +0.000 F 
ATOM     16  C   UNL     1       5.793   3.676  13.890  0.00  0.00    +0.000 A 
ENDBRANCH   7  10
ENDBRANCH   5   7
ENDBRANCH   3   5
BRANCH   1  17
ATOM     17  C   UNL     1       2.222   4.030  20.169  0.00  0.00    +0.000 C 
BRANCH  17  18
ATOM     18  C   UNL     1       1.397   5.312  20.409  0.00  0.00    +0.000 C 
BRANCH  18  19
ATOM     19  O   UNL     1       2.140   6.503  20.813  0.00  0.00    +0.000 OA
BRANCH  19  25
ATOM     20  C   UNL     1       1.301   8.725  20.167  0.00  0.00    +0.000 A 
ATOM     21  C   UNL     1       1.082   9.636  19.099  0.00  0.00    +0.000 A 
ATOM     22  C   UNL     1       1.580   9.426  17.817  0.00  0.00    +0.000 A 
ATOM     23  C   UNL     1       2.373   8.325  17.578  0.00  0.00    +0.000 A 
ATOM     24  C   UNL     1       2.629   7.426  18.611  0.00  0.00    +0.000 A 
ATOM     25  C   UNL     1       2.041   7.548  19.892  0.00  0.00    +0.000 A 
BRANCH  20  27
ATOM     26  C   UNL     1      -0.638   8.299  21.721  0.00  0.00    +0.000 C 
ATOM     27  C   UNL     1       0.607   9.146  21.460  0.00  0.00    +0.000 C 
ATOM     28  C   UNL     1       1.477   9.371  22.693  0.00  0.00    +0.000 C 
ENDBRANCH  20  27
ENDBRANCH  19  25
ENDBRANCH  18  19
ENDBRANCH  17  18
ENDBRANCH   1  17
TORSDOF 8
ENDMDL
MODEL 3
REMARK VINA RESULT:      -7.6      2.321      3.375
REMARK  Name = 
REMARK  10 active torsions:
REMARK  status: ('A' for Active; 'I' for Inactive)
REMARK    1  A    between atoms: C_1  and  C_2
REMARK    2  A    between atoms: C_2  and  C_3
REMARK    3  A    between atoms: C_2  and  C_4
REMARK    4  A    between atoms: C_9  and  O_10
REMARK    5  A    between atoms: O_10  and  C_11
REMARK    6  A    between atoms: C_11  and  C_12
REMARK    7  A    between atoms: C_12  and  N_13
REMARK    8  A    between atoms: C_15  and  N_16
REMARK    9  A    between atoms: N_16  and  S_17
REMARK   10  A    between atoms: S_17  and  C_20
REMARK                            x       y       z     vdW  Elec       q    Type
REMARK                         _______ _______ _______ _____ _____    ______ ____
ROOT
ATOM      1  N   UNL     1       2.212   7.529  17.941  0.00  0.00    +0.000 NA
ATOM      2  C   UNL     1       3.624   7.142  17.697  0.00  0.00    +0.000 C 
ATOM      3  C   UNL     1       3.528   6.153  18.892  0.00  0.00    +0.000 C 
ATOM      4  C   UNL     1       2.368   7.078  19.351  0.00  0.00    +0.000 C 
ENDROOT
BRANCH   3   5
ATOM      5  N   UNL     1       3.197   4.699  18.637  0.00  0.00    +0.000 NA
ATOM      6  H   UNL     1       2.452   4.516  17.964  0.00  0.00    +0.000 HD
BRANCH   5   7
ATOM      7  S   UNL     1       4.377   3.492  18.519  0.00  0.00    +0.000 S 
ATOM      8  O   UNL     1       5.207   3.611  19.700  0.00  0.00    +0.000 OA
ATOM      9  O   UNL     1       3.694   2.272  18.181  0.00  0.00    +0.000 OA
BRANCH   7  10
ATOM     10  C   UNL     1       5.349   4.026  17.136  0.00  0.00    +0.000 A 
ATOM     11  C   UNL     1       6.651   4.501  17.339  0.00  0.00    +0.000 A 
ATOM     12  C   UNL     1       7.423   4.888  16.240  0.00  0.00    +0.000 A 
ATOM     13  C   UNL     1       6.896   4.789  14.950  0.00  0.00    +0.000 A 
ATOM     14  C   UNL     1       5.603   4.309  14.767  0.00  0.00    +0.000 A 
ATOM     15  F   UNL     1       5.108   4.213  13.526  0.00  0.00    +0.000 F 
ATOM     16  C   UNL     1       4.819   3.925  15.846  0.00  0.00    +0.000 A 
ENDBRANCH   7  10
ENDBRANCH   5   7
ENDBRANCH   3   5
BRANCH   1  17
ATOM     17  C   UNL     1       1.955   8.995  17.881  0.00  0.00    +0.000 C 
BRANCH  17  18
ATOM     18  C   UNL     1       1.375   9.551  19.199  0.00  0.00    +0.000 C 
BRANCH  18  19
ATOM     19  O   UNL     1      -0.038   9.920  19.188  0.00  0.00    +0.000 OA
BRANCH  19  25
ATOM     20  C   UNL     1      -1.296  11.455  20.644  0.00  0.00    +0.000 A 
ATOM     21  C   UNL     1      -1.559  11.859  21.981  0.00  0.00    +0.000 A 
ATOM     22  C   UNL     1      -1.104  11.147  23.085  0.00  0.00    +0.000 A 
ATOM     23  C   UNL     1      -0.423   9.965  22.887  0.00  0.00    +0.000 A 
ATOM     24  C   UNL     1      -0.172   9.527  21.589  0.00  0.00    +0.000 A 
ATOM     25  C   UNL     1      -0.517  10.287  20.447  0.00  0.00    +0.000 A 
BRANCH  20  27
ATOM     26  C   UNL     1      -0.757  13.359  19.082  0.00  0.00    +0.000 C 
ATOM     27  C   UNL     1      -1.850  12.430  19.608  0.00  0.00    +0.000 C 
ATOM     28  C   UNL     1      -2.766  11.869  18.524  0.00  0.00    +0.000 C 
ENDBRANCH  20  27
ENDBRANCH  19  25
ENDBRANCH  18  19
ENDBRANCH  17  18
ENDBRANCH   1  17
TORSDOF 8
ENDMDL
MODEL 4
REMARK VINA RESULT:      -7.6      2.851      4.545
REMARK  Name = 
REMARK  10 active torsions:
REMARK  status: ('A' for Active; 'I' for Inactive)
REMARK    1  A    between atoms: C_1  and  C_2
REMARK    2  A    between atoms: C_2  and  C_3
REMARK    3  A    between atoms: C_2  and  C_4
REMARK    4  A    between atoms: C_9  and  O_10
REMARK    5  A    between atoms: O_10  and  C_11
REMARK    6  A    between atoms: C_11  and  C_12
REMARK    7  A    between atoms: C_12  and  N_13
REMARK    8  A    between atoms: C_15  and  N_16
REMARK    9  A    between atoms: N_16  and  S_17
REMARK   10  A    between atoms: S_17  and  C_20
REMARK                            x       y       z     vdW  Elec       q    Type
REMARK                         _______ _______ _______ _____ _____    ______ ____
ROOT
ATOM      1  N   UNL     1       2.032   7.709  18.424  0.00  0.00    +0.000 NA
ATOM      2  C   UNL     1       3.341   7.202  17.939  0.00  0.00    +0.000 C 
ATOM      3  C   UNL     1       3.290   6.107  19.041  0.00  0.00    +0.000 C 
ATOM      4  C   UNL     1       2.325   7.096  19.749  0.00  0.00    +0.000 C 
ENDROOT
BRANCH   3   5
ATOM      5  N   UNL     1       2.754   4.732  18.708  0.00  0.00    +0.000 NA
ATOM      6  H   UNL     1       1.990   4.696  18.032  0.00  0.00    +0.000 HD
BRANCH   5   7
ATOM      7  S   UNL     1       3.750   3.378  18.511  0.00  0.00    +0.000 S 
ATOM      8  O   UNL     1       4.351   3.119  19.802  0.00  0.00    +0.000 OA
ATOM      9  O   UNL     1       2.973   2.387  17.813  0.00  0.00    +0.000 OA
BRANCH   7  10
ATOM     10  C   UNL     1       5.030   3.981  17.444  0.00  0.00    +0.000 A 
ATOM     11  C   UNL     1       6.255   4.390  17.985  0.00  0.00    +0.000 A 
ATOM     12  C   UNL     1       7.271   4.832  17.135  0.00  0.00    +0.000 A 
ATOM     13  C   UNL     1       7.063   4.855  15.754  0.00  0.00    +0.000 A 
ATOM     14  C   UNL     1       5.841   4.440  15.233  0.00  0.00    +0.000 A 
ATOM     15  F   UNL     1       5.651   4.461  13.907  0.00  0.00    +0.000 F 
ATOM     16  C   UNL     1       4.818   4.002  16.063  0.00  0.00    +0.000 A 
ENDBRANCH   7  10
ENDBRANCH   5   7
ENDBRANCH   3   5
BRANCH   1  17
ATOM     17  C   UNL     1       1.949   9.192  18.536  0.00  0.00    +0.000 C 
BRANCH  17  18
ATOM     18  C   UNL     1       0.667   9.766  17.895  0.00  0.00    +0.000 C 
BRANCH  18  19
ATOM     19  O   UNL     1      -0.444  10.052  18.799  0.00  0.00    +0.000 OA
BRANCH  19  25
ATOM     20  C   UNL     1      -2.469  11.446  18.672  0.00  0.00    +0.000 A 
ATOM     21  C   UNL     1      -3.719  11.651  18.027  0.00  0.00    +0.000 A 
ATOM     22  C   UNL     1      -4.101  10.951  16.888  0.00  0.00    +0.000 A 
ATOM     23  C   UNL     1      -3.214  10.065  16.316  0.00  0.00    +0.000 A 
ATOM     24  C   UNL     1      -1.970   9.861  16.908  0.00  0.00    +0.000 A 
ATOM     25  C   UNL     1      -1.598  10.468  18.131  0.00  0.00    +0.000 A 
BRANCH  20  27
ATOM     26  C   UNL     1      -1.220  13.351  19.753  0.00  0.00    +0.000 C 
ATOM     27  C   UNL     1      -2.305  12.290  19.934  0.00  0.00    +0.000 C 
ATOM     28  C   UNL     1      -3.570  12.803  20.614  0.00  0.00    +0.000 C 
ENDBRANCH  20  27
ENDBRANCH  19  25
ENDBRANCH  18  19
ENDBRANCH  17  18
ENDBRANCH   1  17
TORSDOF 8
ENDMDL
MODEL 5
REMARK VINA RESULT:      -7.5      2.921      4.518
REMARK  Name = 
REMARK  10 active torsions:
REMARK  status: ('A' for Active; 'I' for Inactive)
REMARK    1  A    between atoms: C_1  and  C_2
REMARK    2  A    between atoms: C_2  and  C_3
REMARK    3  A    between atoms: C_2  and  C_4
REMARK    4  A    between atoms: C_9  and  O_10
REMARK    5  A    between atoms: O_10  and  C_11
REMARK    6  A    between atoms: C_11  and  C_12
REMARK    7  A    between atoms: C_12  and  N_13
REMARK    8  A    between atoms: C_15  and  N_16
REMARK    9  A    between atoms: N_16  and  S_17
REMARK   10  A    between atoms: S_17  and  C_20
REMARK                            x       y       z     vdW  Elec       q    Type
REMARK                         _______ _______ _______ _____ _____    ______ ____
ROOT
ATOM      1  N   UNL     1       2.741   7.824  18.545  0.00  0.00    +0.000 NA
ATOM      2  C   UNL     1       2.177   7.305  19.817  0.00  0.00    +0.000 C 
ATOM      3  C   UNL     1       2.431   5.860  19.305  0.00  0.00    +0.000 C 
ATOM      4  C   UNL     1       2.394   6.526  17.903  0.00  0.00    +0.000 C 
ENDROOT
BRANCH   3   5
ATOM      5  N   UNL     1       3.700   5.138  19.697  0.00  0.00    +0.000 NA
ATOM      6  H   UNL     1       3.908   5.098  20.696  0.00  0.00    +0.000 HD
BRANCH   5   7
ATOM      7  S   UNL     1       4.215   3.708  18.953  0.00  0.00    +0.000 S 
ATOM      8  O   UNL     1       5.064   3.029  19.909  0.00  0.00    +0.000 OA
ATOM      9  O   UNL     1       3.046   3.088  18.387  0.00  0.00    +0.000 OA
BRANCH   7  10
ATOM     10  C   UNL     1       5.258   4.298  17.647  0.00  0.00    +0.000 A 
ATOM     11  C   UNL     1       5.136   3.762  16.359  0.00  0.00    +0.000 A 
ATOM     12  C   UNL     1       5.938   4.256  15.327  0.00  0.00    +0.000 A 
ATOM     13  C   UNL     1       6.848   5.284  15.584  0.00  0.00    +0.000 A 
ATOM     14  C   UNL     1       6.951   5.809  16.868  0.00  0.00    +0.000 A 
ATOM     15  F   UNL     1       7.823   6.799  17.105  0.00  0.00    +0.000 F 
ATOM     16  C   UNL     1       6.167   5.328  17.907  0.00  0.00    +0.000 A 
ENDBRANCH   7  10
ENDBRANCH   5   7
ENDBRANCH   3   5
BRANCH   1  17
ATOM     17  C   UNL     1       1.964   8.939  17.935  0.00  0.00    +0.000 C 
BRANCH  17  18
ATOM     18  C   UNL     1       0.879   9.495  18.882  0.00  0.00    +0.000 C 
BRANCH  18  19
ATOM     19  O   UNL     1       0.403  10.849  18.609  0.00  0.00    +0.000 OA
BRANCH  19  25
ATOM     20  C   UNL     1      -1.842  11.821  18.872  0.00  0.00    +0.000 A 
ATOM     21  C   UNL     1      -3.232  11.656  18.629  0.00  0.00    +0.000 A 
ATOM     22  C   UNL     1      -3.740  10.646  17.819  0.00  0.00    +0.000 A 
ATOM     23  C   UNL     1      -2.863   9.803  17.170  0.00  0.00    +0.000 A 
ATOM     24  C   UNL     1      -1.493   9.955  17.367  0.00  0.00    +0.000 A 
ATOM     25  C   UNL     1      -0.951  10.895  18.275  0.00  0.00    +0.000 A 
BRANCH  20  27
ATOM     26  C   UNL     1      -1.245  12.437  21.243  0.00  0.00    +0.000 C 
ATOM     27  C   UNL     1      -1.539  12.964  19.839  0.00  0.00    +0.000 C 
ATOM     28  C   UNL     1      -0.582  14.055  19.369  0.00  0.00    +0.000 C 
ENDBRANCH  20  27
ENDBRANCH  19  25
ENDBRANCH  18  19
ENDBRANCH  17  18
ENDBRANCH   1  17
TORSDOF 8
ENDMDL
MODEL 6
REMARK VINA RESULT:      -7.5      5.575     10.908
REMARK  Name = 
REMARK  10 active torsions:
REMARK  status: ('A' for Active; 'I' for Inactive)
REMARK    1  A    between atoms: C_1  and  C_2
REMARK    2  A    between atoms: C_2  and  C_3
REMARK    3  A    between atoms: C_2  and  C_4
REMARK    4  A    between atoms: C_9  and  O_10
REMARK    5  A    between atoms: O_10  and  C_11
REMARK    6  A    between atoms: C_11  and  C_12
REMARK    7  A    between atoms: C_12  and  N_13
REMARK    8  A    between atoms: C_15  and  N_16
REMARK    9  A    between atoms: N_16  and  S_17
REMARK   10  A    between atoms: S_17  and  C_20
REMARK                            x       y       z     vdW  Elec       q    Type
REMARK                         _______ _______ _______ _____ _____    ______ ____
ROOT
ATOM      1  N   UNL     1       0.831   9.647  18.678  0.00  0.00    +0.000 NA
ATOM      2  C   UNL     1       0.943   9.307  20.119  0.00  0.00    +0.000 C 
ATOM      3  C   UNL     1       0.866  10.823  20.451  0.00  0.00    +0.000 C 
ATOM      4  C   UNL     1       1.365  11.001  18.992  0.00  0.00    +0.000 C 
ENDROOT
BRANCH   3   5
ATOM      5  N   UNL     1      -0.465  11.445  20.810  0.00  0.00    +0.000 NA
ATOM      6  H   UNL     1      -1.298  10.949  20.489  0.00  0.00    +0.000 HD
BRANCH   5   7
ATOM      7  S   UNL     1      -0.774  12.158  22.314  0.00  0.00    +0.000 S 
ATOM      8  O   UNL     1      -0.585  11.123  23.307  0.00  0.00    +0.000 OA
ATOM      9  O   UNL     1      -0.041  13.397  22.345  0.00  0.00    +0.000 OA
BRANCH   7  10
ATOM     10  C   UNL     1      -2.511  12.504  22.236  0.00  0.00    +0.000 A 
ATOM     11  C   UNL     1      -3.126  12.714  20.996  0.00  0.00    +0.000 A 
ATOM     12  C   UNL     1      -4.502  12.952  20.940  0.00  0.00    +0.000 A 
ATOM     13  C   UNL     1      -5.254  12.969  22.117  0.00  0.00    +0.000 A 
ATOM     14  C   UNL     1      -4.626  12.751  23.340  0.00  0.00    +0.000 A 
ATOM     15  F   UNL     1      -5.356  12.764  24.464  0.00  0.00    +0.000 F 
ATOM     16  C   UNL     1      -3.260  12.519  23.416  0.00  0.00    +0.000 A 
ENDBRANCH   7  10
ENDBRANCH   5   7
ENDBRANCH   3   5
BRANCH   1  17
ATOM     17  C   UNL     1       1.771   8.901  17.794  0.00  0.00    +0.000 C 
BRANCH  17  18
ATOM     18  C   UNL     1       2.521   7.776  18.539  0.00  0.00    +0.000 C 
BRANCH  18  19
ATOM     19  O   UNL     1       3.528   7.044  17.774  0.00  0.00    +0.000 OA
BRANCH  19  25
ATOM     20  C   UNL     1       4.166   4.773  17.073  0.00  0.00    +0.000 A 
ATOM     21  C   UNL     1       3.745   3.423  16.928  0.00  0.00    +0.000 A 
ATOM     22  C   UNL     1       2.543   2.951  17.444  0.00  0.00    +0.000 A 
ATOM     23  C   UNL     1       1.749   3.803  18.181  0.00  0.00    +0.000 A 
ATOM     24  C   UNL     1       2.145   5.125  18.363  0.00  0.00    +0.000 A 
ATOM     25  C   UNL     1       3.302   5.666  17.753  0.00  0.00    +0.000 A 
BRANCH  20  27
ATOM     26  C   UNL     1       6.678   4.754  17.286  0.00  0.00    +0.000 C 
ATOM     27  C   UNL     1       5.492   5.061  16.372  0.00  0.00    +0.000 C 
ATOM     28  C   UNL     1       5.662   4.560  14.941  0.00  0.00    +0.000 C 
ENDBRANCH  20  27
ENDBRANCH  19  25
ENDBRANCH  18  19
ENDBRANCH  17  18
ENDBRANCH   1  17
TORSDOF 8
ENDMDL
MODEL 7
REMARK VINA RESULT:      -7.5      3.245      5.032
REMARK  Name = 
REMARK  10 active torsions:
REMARK  status: ('A' for Active; 'I' for Inactive)
REMARK    1  A    between atoms: C_1  and  C_2
REMARK    2  A    between atoms: C_2  and  C_3
REMARK    3  A    between atoms: C_2  and  C_4
REMARK    4  A    between atoms: C_9  and  O_10
REMARK    5  A    between atoms: O_10  and  C_11
REMARK    6  A    between atoms: C_11  and  C_12
REMARK    7  A    between atoms: C_12  and  N_13
REMARK    8  A    between atoms: C_15  and  N_16
REMARK    9  A    between atoms: N_16  and  S_17
REMARK   10  A    between atoms: S_17  and  C_20
REMARK                            x       y       z     vdW  Elec       q    Type
REMARK                         _______ _______ _______ _____ _____    ______ ____
ROOT
ATOM      1  N   UNL     1       1.681   8.618  18.136  0.00  0.00    +0.000 NA
ATOM      2  C   UNL     1       2.938   8.075  17.562  0.00  0.00    +0.000 C 
ATOM      3  C   UNL     1       2.902   6.946  18.629  0.00  0.00    +0.000 C 
ATOM      4  C   UNL     1       2.020   7.948  19.422  0.00  0.00    +0.000 C 
ENDROOT
BRANCH   3   5
ATOM      5  N   UNL     1       2.290   5.607  18.283  0.00  0.00    +0.000 NA
ATOM      6  H   UNL     1       1.826   5.542  17.376  0.00  0.00    +0.000 HD
BRANCH   5   7
ATOM      7  S   UNL     1       3.036   4.131  18.646  0.00  0.00    +0.000 S 
ATOM      8  O   UNL     1       3.281   4.134  20.072  0.00  0.00    +0.000 OA
ATOM      9  O   UNL     1       2.262   3.103  18.001  0.00  0.00    +0.000 OA
BRANCH   7  10
ATOM     10  C   UNL     1       4.608   4.277  17.840  0.00  0.00    +0.000 A 
ATOM     11  C   UNL     1       4.701   4.107  16.453  0.00  0.00    +0.000 A 
ATOM     12  C   UNL     1       5.937   4.257  15.821  0.00  0.00    +0.000 A 
ATOM     13  C   UNL     1       7.068   4.583  16.572  0.00  0.00    +0.000 A 
ATOM     14  C   UNL     1       6.957   4.754  17.949  0.00  0.00    +0.000 A 
ATOM     15  F   UNL     1       8.046   5.072  18.662  0.00  0.00    +0.000 F 
ATOM     16  C   UNL     1       5.738   4.604  18.595  0.00  0.00    +0.000 A 
ENDBRANCH   7  10
ENDBRANCH   5   7
ENDBRANCH   3   5
BRANCH   1  17
ATOM     17  C   UNL     1       1.668  10.099  18.300  0.00  0.00    +0.000 C 
BRANCH  17  18
ATOM     18  C   UNL     1       0.658  10.569  19.369  0.00  0.00    +0.000 C 
BRANCH  18  19
ATOM     19  O   UNL     1      -0.631   9.881  19.399  0.00  0.00    +0.000 OA
BRANCH  19  25
ATOM     20  C   UNL     1      -2.409  11.467  18.783  0.00  0.00    +0.000 A 
ATOM     21  C   UNL     1      -3.441  11.776  17.856  0.00  0.00    +0.000 A 
ATOM     22  C   UNL     1      -3.615  11.082  16.664  0.00  0.00    +0.000 A 
ATOM     23  C   UNL     1      -2.715  10.093  16.326  0.00  0.00    +0.000 A 
ATOM     24  C   UNL     1      -1.676   9.784  17.201  0.00  0.00    +0.000 A 
ATOM     25  C   UNL     1      -1.543  10.389  18.472  0.00  0.00    +0.000 A 
BRANCH  20  27
ATOM     26  C   UNL     1      -1.448  13.472  19.970  0.00  0.00    +0.000 C 
ATOM     27  C   UNL     1      -2.460  12.330  20.041  0.00  0.00    +0.000 C 
ATOM     28  C   UNL     1      -3.833  12.746  20.560  0.00  0.00    +0.000 C 
ENDBRANCH  20  27
ENDBRANCH  19  25
ENDBRANCH  18  19
ENDBRANCH  17  18
ENDBRANCH   1  17
TORSDOF 8
ENDMDL
MODEL 8
REMARK VINA RESULT:      -7.5      2.933      3.912
REMARK  Name = 
REMARK  10 active torsions:
REMARK  status: ('A' for Active; 'I' for Inactive)
REMARK    1  A    between atoms: C_1  and  C_2
REMARK    2  A    between atoms: C_2  and  C_3
REMARK    3  A    between atoms: C_2  and  C_4
REMARK    4  A    between atoms: C_9  and  O_10
REMARK    5  A    between atoms: O_10  and  C_11
REMARK    6  A    between atoms: C_11  and  C_12
REMARK    7  A    between atoms: C_12  and  N_13
REMARK    8  A    between atoms: C_15  and  N_16
REMARK    9  A    between atoms: N_16  and  S_17
REMARK   10  A    between atoms: S_17  and  C_20
REMARK                            x       y       z     vdW  Elec       q    Type
REMARK                         _______ _______ _______ _____ _____    ______ ____
ROOT
ATOM      1  N   UNL     1       2.860   7.386  18.707  0.00  0.00    +0.000 NA
ATOM      2  C   UNL     1       2.165   6.938  19.940  0.00  0.00    +0.000 C 
ATOM      3  C   UNL     1       2.321   5.469  19.458  0.00  0.00    +0.000 C 
ATOM      4  C   UNL     1       2.442   6.116  18.052  0.00  0.00    +0.000 C 
ENDROOT
BRANCH   3   5
ATOM      5  N   UNL     1       3.489   4.641  19.944  0.00  0.00    +0.000 NA
ATOM      6  H   UNL     1       3.496   4.405  20.937  0.00  0.00    +0.000 HD
BRANCH   5   7
ATOM      7  S   UNL     1       4.145   3.360  19.052  0.00  0.00    +0.000 S 
ATOM      8  O   UNL     1       4.938   2.578  19.977  0.00  0.00    +0.000 OA
ATOM      9  O   UNL     1       3.066   2.787  18.291  0.00  0.00    +0.000 OA
BRANCH   7  10
ATOM     10  C   UNL     1       5.269   4.179  17.954  0.00  0.00    +0.000 A 
ATOM     11  C   UNL     1       5.174   3.971  16.573  0.00  0.00    +0.000 A 
ATOM     12  C   UNL     1       6.041   4.646  15.711  0.00  0.00    +0.000 A 
ATOM     13  C   UNL     1       6.990   5.530  16.231  0.00  0.00    +0.000 A 
ATOM     14  C   UNL     1       7.067   5.729  17.606  0.00  0.00    +0.000 A 
ATOM     15  F   UNL     1       7.977   6.582  18.096  0.00  0.00    +0.000 F 
ATOM     16  C   UNL     1       6.217   5.063  18.478  0.00  0.00    +0.000 A 
ENDBRANCH   7  10
ENDBRANCH   5   7
ENDBRANCH   3   5
BRANCH   1  17
ATOM     17  C   UNL     1       2.232   8.559  18.037  0.00  0.00    +0.000 C 
BRANCH  17  18
ATOM     18  C   UNL     1       1.030   9.121  18.826  0.00  0.00    +0.000 C 
BRANCH  18  19
ATOM     19  O   UNL     1       1.286  10.293  19.660  0.00  0.00    +0.000 OA
BRANCH  19  25
ATOM     20  C   UNL     1      -0.619  11.410  20.745  0.00  0.00    +0.000 A 
ATOM     21  C   UNL     1      -1.347  11.590  21.953  0.00  0.00    +0.000 A 
ATOM     22  C   UNL     1      -1.122  10.819  23.088  0.00  0.00    +0.000 A 
ATOM     23  C   UNL     1      -0.203   9.793  23.031  0.00  0.00    +0.000 A 
ATOM     24  C   UNL     1       0.508   9.573  21.854  0.00  0.00    +0.000 A 
ATOM     25  C   UNL     1       0.388  10.413  20.722  0.00  0.00    +0.000 A 
BRANCH  20  27
ATOM     26  C   UNL     1       0.080  13.471  19.473  0.00  0.00    +0.000 C 
ATOM     27  C   UNL     1      -1.007  12.414  19.662  0.00  0.00    +0.000 C 
ATOM     28  C   UNL     1      -1.578  11.866  18.358  0.00  0.00    +0.000 C 
ENDBRANCH  20  27
ENDBRANCH  19  25
ENDBRANCH  18  19
ENDBRANCH  17  18
ENDBRANCH   1  17
TORSDOF 8
ENDMDL
MODEL 9
REMARK VINA RESULT:      -7.5      5.763     11.069
REMARK  Name = 
REMARK  10 active torsions:
REMARK  status: ('A' for Active; 'I' for Inactive)
REMARK    1  A    between atoms: C_1  and  C_2
REMARK    2  A    between atoms: C_2  and  C_3
REMARK    3  A    between atoms: C_2  and  C_4
REMARK    4  A    between atoms: C_9  and  O_10
REMARK    5  A    between atoms: O_10  and  C_11
REMARK    6  A    between atoms: C_11  and  C_12
REMARK    7  A    between atoms: C_12  and  N_13
REMARK    8  A    between atoms: C_15  and  N_16
REMARK    9  A    between atoms: N_16  and  S_17
REMARK   10  A    between atoms: S_17  and  C_20
REMARK                            x       y       z     vdW  Elec       q    Type
REMARK                         _______ _______ _______ _____ _____    ______ ____
ROOT
ATOM      1  N   UNL     1       0.868  10.401  18.779  0.00  0.00    +0.000 NA
ATOM      2  C   UNL     1       0.691   9.667  20.058  0.00  0.00    +0.000 C 
ATOM      3  C   UNL     1       0.691  11.029  20.805  0.00  0.00    +0.000 C 
ATOM      4  C   UNL     1       1.455  11.531  19.551  0.00  0.00    +0.000 C 
ENDROOT
BRANCH   3   5
ATOM      5  N   UNL     1      -0.622  11.704  21.135  0.00  0.00    +0.000 NA
ATOM      6  H   UNL     1      -1.428  11.421  20.577  0.00  0.00    +0.000 HD
BRANCH   5   7
ATOM      7  S   UNL     1      -1.116  12.034  22.719  0.00  0.00    +0.000 S 
ATOM      8  O   UNL     1      -1.089  10.774  23.430  0.00  0.00    +0.000 OA
ATOM      9  O   UNL     1      -0.366  13.181  23.159  0.00  0.00    +0.000 OA
BRANCH   7  10
ATOM     10  C   UNL     1      -2.817  12.488  22.514  0.00  0.00    +0.000 A 
ATOM     11  C   UNL     1      -3.312  12.784  21.238  0.00  0.00    +0.000 A 
ATOM     12  C   UNL     1      -4.662  13.107  21.079  0.00  0.00    +0.000 A 
ATOM     13  C   UNL     1      -5.509  13.123  22.190  0.00  0.00    +0.000 A 
ATOM     14  C   UNL     1      -5.002  12.820  23.449  0.00  0.00    +0.000 A 
ATOM     15  F   UNL     1      -5.822  12.834  24.509  0.00  0.00    +0.000 F 
ATOM     16  C   UNL     1      -3.662  12.502  23.628  0.00  0.00    +0.000 A 
ENDBRANCH   7  10
ENDBRANCH   5   7
ENDBRANCH   3   5
BRANCH   1  17
ATOM     17  C   UNL     1       1.879   9.807  17.861  0.00  0.00    +0.000 C 
BRANCH  17  18
ATOM     18  C   UNL     1       1.860   8.263  17.876  0.00  0.00    +0.000 C 
BRANCH  18  19
ATOM     19  O   UNL     1       2.992   7.601  18.521  0.00  0.00    +0.000 OA
BRANCH  19  25
ATOM     20  C   UNL     1       3.038   5.214  17.923  0.00  0.00    +0.000 A 
ATOM     21  C   UNL     1       3.761   4.177  17.273  0.00  0.00    +0.000 A 
ATOM     22  C   UNL     1       4.880   4.420  16.485  0.00  0.00    +0.000 A 
ATOM     23  C   UNL     1       5.277   5.722  16.267  0.00  0.00    +0.000 A 
ATOM     24  C   UNL     1       4.575   6.764  16.869  0.00  0.00    +0.000 A 
ATOM     25  C   UNL     1       3.506   6.543  17.769  0.00  0.00    +0.000 A 
BRANCH  20  27
ATOM     26  C   UNL     1       1.433   3.309  18.306  0.00  0.00    +0.000 C 
ATOM     27  C   UNL     1       1.884   4.691  18.775  0.00  0.00    +0.000 C 
ATOM     28  C   UNL     1       2.002   4.828  20.290  0.00  0.00    +0.000 C 
ENDBRANCH  20  27
ENDBRANCH  19  25
ENDBRANCH  18  19
ENDBRANCH  17  18
ENDBRANCH   1  17
TORSDOF 8
ENDMDL
