MODEL 1
REMARK VINA RESULT:      -7.7      0.000      0.000
REMARK  Name = 
REMARK  6 active torsions:
REMARK  status: ('A' for Active; 'I' for Inactive)
REMARK    1  A    between atoms: C_1  and  C_2
REMARK    2  A    between atoms: C_4  and  O_5
REMARK    3  A    between atoms: O_5  and  C_6
REMARK    4  A    between atoms: C_6  and  C_7
REMARK    5  A    between atoms: C_9  and  C_10
REMARK    6  A    between atoms: C_18  and  C_19
REMARK                            x       y       z     vdW  Elec       q    Type
REMARK                         _______ _______ _______ _____ _____    ______ ____
ROOT
ATOM      1  C   UNL     1       6.246   5.982  16.347  0.00  0.00    +0.000 C 
ENDROOT
BRANCH   1   2
ATOM      2  C   UNL     1       7.038   6.898  17.201  0.00  0.00    +0.000 A 
ATOM      3  N   UNL     1       7.193   8.202  17.122  0.00  0.00    +0.000 NA
ATOM      4  C   UNL     1       8.096   8.458  18.133  0.00  0.00    +0.000 A 
ATOM      5  N   UNL     1       8.480   7.362  18.808  0.00  0.00    +0.000 NA
ATOM      6  O   UNL     1       7.778   6.328  18.193  0.00  0.00    +0.000 OA
BRANCH   4   7
ATOM      7  C   UNL     1       8.617   9.791  18.376  0.00  0.00    +0.000 A 
ATOM      8  C   UNL     1       9.437  10.060  19.476  0.00  0.00    +0.000 A 
ATOM      9  C   UNL     1       9.876  11.360  19.713  0.00  0.00    +0.000 A 
ATOM     10  C   UNL     1       9.486  12.356  18.835  0.00  0.00    +0.000 A 
ATOM     11  N   UNL     1       8.711  12.138  17.751  0.00  0.00    +0.000 NA
ATOM     12  C   UNL     1       8.297  10.860  17.545  0.00  0.00    +0.000 A 
ENDBRANCH   4   7
ENDBRANCH   1   2
BRANCH   1  13
ATOM     13  O   UNL     1       4.880   6.363  16.479  0.00  0.00    +0.000 OA
BRANCH  13  17
ATOM     14  C   UNL     1       3.451   1.855  17.990  0.00  0.00    +0.000 C 
ATOM     15  C   UNL     1       3.263   3.347  17.960  0.00  0.00    +0.000 A 
ATOM     16  C   UNL     1       4.143   4.135  17.194  0.00  0.00    +0.000 A 
ATOM     17  C   UNL     1       4.050   5.533  17.182  0.00  0.00    +0.000 A 
ATOM     18  C   UNL     1       3.054   6.164  17.943  0.00  0.00    +0.000 A 
ATOM     19  C   UNL     1       2.914   7.661  18.013  0.00  0.00    +0.000 C 
ATOM     20  C   UNL     1       2.152   5.381  18.680  0.00  0.00    +0.000 A 
ATOM     21  C   UNL     1       2.257   3.988  18.694  0.00  0.00    +0.000 A 
ATOM     22 BR   UNL     1       1.007   3.023  19.749  0.00  0.00    +0.000 Br
ENDBRANCH  13  17
ENDBRANCH   1  13
TORSDOF 4
ENDMDL
MODEL 2
REMARK VINA RESULT:      -7.6      4.556      6.657
REMARK  Name = 
REMARK  6 active torsions:
REMARK  status: ('A' for Active; 'I' for Inactive)
REMARK    1  A    between atoms: C_1  and  C_2
REMARK    2  A    between atoms: C_4  and  O_5
REMARK    3  A    between atoms: O_5  and  C_6
REMARK    4  A    between atoms: C_6  and  C_7
REMARK    5  A    between atoms: C_9  and  C_10
REMARK    6  A    between atoms: C_18  and  C_19
REMARK                            x       y       z     vdW  Elec       q    Type
REMARK                         _______ _______ _______ _____ _____    ______ ____
ROOT
ATOM      1  C   UNL     1       2.070   5.818  19.832  0.00  0.00    +0.000 C 
ENDROOT
BRANCH   1   2
ATOM      2  C   UNL     1       2.842   5.196  18.730  0.00  0.00    +0.000 A 
ATOM      3  N   UNL     1       3.927   5.617  18.117  0.00  0.00    +0.000 NA
ATOM      4  C   UNL     1       4.114   4.656  17.145  0.00  0.00    +0.000 A 
ATOM      5  N   UNL     1       3.188   3.684  17.157  0.00  0.00    +0.000 NA
ATOM      6  O   UNL     1       2.346   4.039  18.209  0.00  0.00    +0.000 OA
BRANCH   4   7
ATOM      7  C   UNL     1       5.184   4.753  16.169  0.00  0.00    +0.000 A 
ATOM      8  C   UNL     1       5.179   3.973  15.007  0.00  0.00    +0.000 A 
ATOM      9  C   UNL     1       6.246   4.048  14.117  0.00  0.00    +0.000 A 
ATOM     10  C   UNL     1       7.289   4.909  14.411  0.00  0.00    +0.000 A 
ATOM     11  N   UNL     1       7.326   5.692  15.510  0.00  0.00    +0.000 NA
ATOM     12  C   UNL     1       6.272   5.598  16.361  0.00  0.00    +0.000 A 
ENDBRANCH   4   7
ENDBRANCH   1   2
BRANCH   1  13
ATOM     13  O   UNL     1       2.581   7.135  20.009  0.00  0.00    +0.000 OA
BRANCH  13  17
ATOM     14  C   UNL     1      -0.492   9.729  22.919  0.00  0.00    +0.000 C 
ATOM     15  C   UNL     1       0.131   9.468  21.575  0.00  0.00    +0.000 A 
ATOM     16  C   UNL     1       1.029   8.393  21.432  0.00  0.00    +0.000 A 
ATOM     17  C   UNL     1       1.683   8.147  20.218  0.00  0.00    +0.000 A 
ATOM     18  C   UNL     1       1.436   8.982  19.118  0.00  0.00    +0.000 A 
ATOM     19  C   UNL     1       2.128   8.805  17.793  0.00  0.00    +0.000 C 
ATOM     20  C   UNL     1       0.514  10.033  19.247  0.00  0.00    +0.000 A 
ATOM     21  C   UNL     1      -0.128  10.278  20.463  0.00  0.00    +0.000 A 
ATOM     22 BR   UNL     1      -1.332  11.745  20.540  0.00  0.00    +0.000 Br
ENDBRANCH  13  17
ENDBRANCH   1  13
TORSDOF 4
ENDMDL
MODEL 3
REMARK VINA RESULT:      -7.5      0.640      1.037
REMARK  Name = 
REMARK  6 active torsions:
REMARK  status: ('A' for Active; 'I' for Inactive)
REMARK    1  A    between atoms: C_1  and  C_2
REMARK    2  A    between atoms: C_4  and  O_5
REMARK    3  A    between atoms: O_5  and  C_6
REMARK    4  A    between atoms: C_6  and  C_7
REMARK    5  A    between atoms: C_9  and  C_10
REMARK    6  A    between atoms: C_18  and  C_19
REMARK                            x       y       z     vdW  Elec       q    Type
REMARK                         _______ _______ _______ _____ _____    ______ ____
ROOT
ATOM      1  C   UNL     1       6.169   6.098  16.373  0.00  0.00    +0.000 C 
ENDROOT
BRANCH   1   2
ATOM      2  C   UNL     1       7.001   6.964  17.243  0.00  0.00    +0.000 A 
ATOM      3  N   UNL     1       7.201   8.262  17.196  0.00  0.00    +0.000 NA
ATOM      4  C   UNL     1       8.121   8.460  18.205  0.00  0.00    +0.000 A 
ATOM      5  N   UNL     1       8.472   7.335  18.847  0.00  0.00    +0.000 NA
ATOM      6  O   UNL     1       7.728   6.342  18.213  0.00  0.00    +0.000 OA
BRANCH   4   7
ATOM      7  C   UNL     1       8.690   9.768  18.476  0.00  0.00    +0.000 A 
ATOM      8  C   UNL     1       8.432  10.859  17.639  0.00  0.00    +0.000 A 
ATOM      9  C   UNL     1       9.036  12.086  17.895  0.00  0.00    +0.000 A 
ATOM     10  C   UNL     1       9.878  12.191  18.988  0.00  0.00    +0.000 A 
ATOM     11  N   UNL     1      10.140  11.170  19.832  0.00  0.00    +0.000 NA
ATOM     12  C   UNL     1       9.537   9.984  19.558  0.00  0.00    +0.000 A 
ENDBRANCH   4   7
ENDBRANCH   1   2
BRANCH   1  13
ATOM     13  O   UNL     1       4.811   6.469  16.589  0.00  0.00    +0.000 OA
BRANCH  13  17
ATOM     14  C   UNL     1       3.599   1.891  18.077  0.00  0.00    +0.000 C 
ATOM     15  C   UNL     1       3.327   3.369  18.035  0.00  0.00    +0.000 A 
ATOM     16  C   UNL     1       4.183   4.204  17.291  0.00  0.00    +0.000 A 
ATOM     17  C   UNL     1       4.010   5.595  17.272  0.00  0.00    +0.000 A 
ATOM     18  C   UNL     1       2.959   6.170  18.002  0.00  0.00    +0.000 A 
ATOM     19  C   UNL     1       2.732   7.657  18.061  0.00  0.00    +0.000 C 
ATOM     20  C   UNL     1       2.082   5.338  18.716  0.00  0.00    +0.000 A 
ATOM     21  C   UNL     1       2.266   3.953  18.738  0.00  0.00    +0.000 A 
ATOM     22 BR   UNL     1       1.044   2.921  19.762  0.00  0.00    +0.000 Br
ENDBRANCH  13  17
ENDBRANCH   1  13
TORSDOF 4
ENDMDL
MODEL 4
REMARK VINA RESULT:      -7.4      4.504      5.884
REMARK  Name = 
REMARK  6 active torsions:
REMARK  status: ('A' for Active; 'I' for Inactive)
REMARK    1  A    between atoms: C_1  and  C_2
REMARK    2  A    between atoms: C_4  and  O_5
REMARK    3  A    between atoms: O_5  and  C_6
REMARK    4  A    between atoms: C_6  and  C_7
REMARK    5  A    between atoms: C_9  and  C_10
REMARK    6  A    between atoms: C_18  and  C_19
REMARK                            x       y       z     vdW  Elec       q    Type
REMARK                         _______ _______ _______ _____ _____    ______ ____
ROOT
ATOM      1  C   UNL     1       3.563   2.753  18.487  0.00  0.00    +0.000 C 
ENDROOT
BRANCH   1   2
ATOM      2  C   UNL     1       4.569   3.427  17.631  0.00  0.00    +0.000 A 
ATOM      3  N   UNL     1       4.672   3.464  16.321  0.00  0.00    +0.000 NA
ATOM      4  C   UNL     1       5.841   4.171  16.133  0.00  0.00    +0.000 A 
ATOM      5  N   UNL     1       6.433   4.556  17.275  0.00  0.00    +0.000 NA
ATOM      6  O   UNL     1       5.589   4.065  18.270  0.00  0.00    +0.000 OA
BRANCH   4   7
ATOM      7  C   UNL     1       6.392   4.403  14.810  0.00  0.00    +0.000 A 
ATOM      8  C   UNL     1       5.942   3.680  13.701  0.00  0.00    +0.000 A 
ATOM      9  C   UNL     1       6.528   3.885  12.455  0.00  0.00    +0.000 A 
ATOM     10  C   UNL     1       7.545   4.818  12.352  0.00  0.00    +0.000 A 
ATOM     11  N   UNL     1       7.997   5.551  13.391  0.00  0.00    +0.000 NA
ATOM     12  C   UNL     1       7.408   5.329  14.595  0.00  0.00    +0.000 A 
ENDBRANCH   4   7
ENDBRANCH   1   2
BRANCH   1  13
ATOM     13  O   UNL     1       2.321   3.418  18.276  0.00  0.00    +0.000 OA
BRANCH  13  17
ATOM     14  C   UNL     1       2.491   8.375  18.073  0.00  0.00    +0.000 C 
ATOM     15  C   UNL     1       2.227   7.103  18.832  0.00  0.00    +0.000 A 
ATOM     16  C   UNL     1       2.444   5.866  18.195  0.00  0.00    +0.000 A 
ATOM     17  C   UNL     1       2.154   4.655  18.837  0.00  0.00    +0.000 A 
ATOM     18  C   UNL     1       1.643   4.670  20.143  0.00  0.00    +0.000 A 
ATOM     19  C   UNL     1       1.270   3.414  20.883  0.00  0.00    +0.000 C 
ATOM     20  C   UNL     1       1.458   5.901  20.794  0.00  0.00    +0.000 A 
ATOM     21  C   UNL     1       1.741   7.104  20.145  0.00  0.00    +0.000 A 
ATOM     22 BR   UNL     1       1.425   8.714  21.103  0.00  0.00    +0.000 Br
ENDBRANCH  13  17
ENDBRANCH   1  13
TORSDOF 4
ENDMDL
MODEL 5
REMARK VINA RESULT:      -7.4      4.078      8.864
REMARK  Name = 
REMARK  6 active torsions:
REMARK  status: ('A' for Active; 'I' for Inactive)
REMARK    1  A    between atoms: C_1  and  C_2
REMARK    2  A    between atoms: C_4  and  O_5
REMARK    3  A    between atoms: O_5  and  C_6
REMARK    4  A    between atoms: C_6  and  C_7
REMARK    5  A    between atoms: C_9  and  C_10
REMARK    6  A    between atoms: C_18  and  C_19
REMARK                            x       y       z     vdW  Elec       q    Type
REMARK                         _______ _______ _______ _____ _____    ______ ____
ROOT
ATOM      1  C   UNL     1       8.402   9.577  17.699  0.00  0.00    +0.000 C 
ENDROOT
BRANCH   1   2
ATOM      2  C   UNL     1       7.889   8.197  17.872  0.00  0.00    +0.000 A 
ATOM      3  N   UNL     1       6.873   7.597  17.293  0.00  0.00    +0.000 NA
ATOM      4  C   UNL     1       6.854   6.368  17.920  0.00  0.00    +0.000 A 
ATOM      5  N   UNL     1       7.817   6.215  18.843  0.00  0.00    +0.000 NA
ATOM      6  O   UNL     1       8.505   7.426  18.811  0.00  0.00    +0.000 OA
BRANCH   4   7
ATOM      7  C   UNL     1       5.833   5.378  17.633  0.00  0.00    +0.000 A 
ATOM      8  C   UNL     1       5.738   4.775  16.374  0.00  0.00    +0.000 A 
ATOM      9  C   UNL     1       4.714   3.870  16.113  0.00  0.00    +0.000 A 
ATOM     10  C   UNL     1       3.813   3.585  17.124  0.00  0.00    +0.000 A 
ATOM     11  N   UNL     1       3.878   4.129  18.359  0.00  0.00    +0.000 NA
ATOM     12  C   UNL     1       4.887   5.009  18.585  0.00  0.00    +0.000 A 
ENDBRANCH   4   7
ENDBRANCH   1   2
BRANCH   1  13
ATOM     13  O   UNL     1       8.967   9.973  18.944  0.00  0.00    +0.000 OA
BRANCH  13  17
ATOM     14  C   UNL     1      11.869  13.324  16.711  0.00  0.00    +0.000 C 
ATOM     15  C   UNL     1      11.209  12.781  17.948  0.00  0.00    +0.000 A 
ATOM     16  C   UNL     1      10.437  11.607  17.855  0.00  0.00    +0.000 A 
ATOM     17  C   UNL     1       9.750  11.096  18.964  0.00  0.00    +0.000 A 
ATOM     18  C   UNL     1       9.837  11.760  20.196  0.00  0.00    +0.000 A 
ATOM     19  C   UNL     1       9.098  11.295  21.422  0.00  0.00    +0.000 C 
ATOM     20  C   UNL     1      10.634  12.911  20.302  0.00  0.00    +0.000 A 
ATOM     21  C   UNL     1      11.308  13.420  19.189  0.00  0.00    +0.000 A 
ATOM     22 BR   UNL     1      12.333  15.001  19.432  0.00  0.00    +0.000 Br
ENDBRANCH  13  17
ENDBRANCH   1  13
TORSDOF 4
ENDMDL
MODEL 6
REMARK VINA RESULT:      -7.4      3.748      6.205
REMARK  Name = 
REMARK  6 active torsions:
REMARK  status: ('A' for Active; 'I' for Inactive)
REMARK    1  A    between atoms: C_1  and  C_2
REMARK    2  A    between atoms: C_4  and  O_5
REMARK    3  A    between atoms: O_5  and  C_6
REMARK    4  A    between atoms: C_6  and  C_7
REMARK    5  A    between atoms: C_9  and  C_10
REMARK    6  A    between atoms: C_18  and  C_19
REMARK                            x       y       z     vdW  Elec       q    Type
REMARK                         _______ _______ _______ _____ _____    ______ ____
ROOT
ATOM      1  C   UNL     1       5.633   6.615  17.163  0.00  0.00    +0.000 C 
ENDROOT
BRANCH   1   2
ATOM      2  C   UNL     1       6.117   5.939  15.936  0.00  0.00    +0.000 A 
ATOM      3  N   UNL     1       5.459   5.223  15.052  0.00  0.00    +0.000 NA
ATOM      4  C   UNL     1       6.459   4.807  14.198  0.00  0.00    +0.000 A 
ATOM      5  N   UNL     1       7.681   5.248  14.538  0.00  0.00    +0.000 NA
ATOM      6  O   UNL     1       7.455   6.001  15.689  0.00  0.00    +0.000 OA
BRANCH   4   7
ATOM      7  C   UNL     1       6.193   3.917  13.083  0.00  0.00    +0.000 A 
ATOM      8  C   UNL     1       4.888   3.682  12.638  0.00  0.00    +0.000 A 
ATOM      9  C   UNL     1       4.660   2.781  11.601  0.00  0.00    +0.000 A 
ATOM     10  C   UNL     1       5.749   2.145  11.031  0.00  0.00    +0.000 A 
ATOM     11  N   UNL     1       7.026   2.356  11.416  0.00  0.00    +0.000 NA
ATOM     12  C   UNL     1       7.218   3.239  12.430  0.00  0.00    +0.000 A 
ENDBRANCH   4   7
ENDBRANCH   1   2
BRANCH   1  13
ATOM     13  O   UNL     1       4.220   6.437  17.209  0.00  0.00    +0.000 OA
BRANCH  13  17
ATOM     14  C   UNL     1       4.040   2.053  19.532  0.00  0.00    +0.000 C 
ATOM     15  C   UNL     1       3.542   3.461  19.351  0.00  0.00    +0.000 A 
ATOM     16  C   UNL     1       4.096   4.259  18.332  0.00  0.00    +0.000 A 
ATOM     17  C   UNL     1       3.712   5.596  18.163  0.00  0.00    +0.000 A 
ATOM     18  C   UNL     1       2.750   6.152  19.019  0.00  0.00    +0.000 A 
ATOM     19  C   UNL     1       2.315   7.590  18.925  0.00  0.00    +0.000 C 
ATOM     20  C   UNL     1       2.169   5.349  20.013  0.00  0.00    +0.000 A 
ATOM     21  C   UNL     1       2.564   4.020  20.182  0.00  0.00    +0.000 A 
ATOM     22 BR   UNL     1       1.739   3.030  21.577  0.00  0.00    +0.000 Br
ENDBRANCH  13  17
ENDBRANCH   1  13
TORSDOF 4
ENDMDL
MODEL 7
REMARK VINA RESULT:      -7.3      1.470      2.310
REMARK  Name = 
REMARK  6 active torsions:
REMARK  status: ('A' for Active; 'I' for Inactive)
REMARK    1  A    between atoms: C_1  and  C_2
REMARK    2  A    between atoms: C_4  and  O_5
REMARK    3  A    between atoms: O_5  and  C_6
REMARK    4  A    between atoms: C_6  and  C_7
REMARK    5  A    between atoms: C_9  and  C_10
REMARK    6  A    between atoms: C_18  and  C_19
REMARK                            x       y       z     vdW  Elec       q    Type
REMARK                         _______ _______ _______ _____ _____    ______ ____
ROOT
ATOM      1  C   UNL     1       7.551   5.968  18.304  0.00  0.00    +0.000 C 
ENDROOT
BRANCH   1   2
ATOM      2  C   UNL     1       7.916   7.398  18.159  0.00  0.00    +0.000 A 
ATOM      3  N   UNL     1       8.699   8.148  18.903  0.00  0.00    +0.000 NA
ATOM      4  C   UNL     1       8.578   9.388  18.311  0.00  0.00    +0.000 A 
ATOM      5  N   UNL     1       7.758   9.403  17.248  0.00  0.00    +0.000 NA
ATOM      6  O   UNL     1       7.321   8.084  17.144  0.00  0.00    +0.000 OA
BRANCH   4   7
ATOM      7  C   UNL     1       9.234  10.563  18.853  0.00  0.00    +0.000 A 
ATOM      8  C   UNL     1       9.576  10.643  20.207  0.00  0.00    +0.000 A 
ATOM      9  C   UNL     1      10.155  11.805  20.709  0.00  0.00    +0.000 A 
ATOM     10  C   UNL     1      10.384  12.855  19.837  0.00  0.00    +0.000 A 
ATOM     11  N   UNL     1      10.088  12.814  18.521  0.00  0.00    +0.000 NA
ATOM     12  C   UNL     1       9.523  11.668  18.059  0.00  0.00    +0.000 A 
ENDBRANCH   4   7
ENDBRANCH   1   2
BRANCH   1  13
ATOM     13  O   UNL     1       6.609   5.671  17.278  0.00  0.00    +0.000 OA
BRANCH  13  17
ATOM     14  C   UNL     1       2.715   5.188  20.319  0.00  0.00    +0.000 C 
ATOM     15  C   UNL     1       3.486   4.761  19.100  0.00  0.00    +0.000 A 
ATOM     16  C   UNL     1       4.705   5.399  18.800  0.00  0.00    +0.000 A 
ATOM     17  C   UNL     1       5.429   5.081  17.643  0.00  0.00    +0.000 A 
ATOM     18  C   UNL     1       4.936   4.103  16.767  0.00  0.00    +0.000 A 
ATOM     19  C   UNL     1       5.636   3.735  15.486  0.00  0.00    +0.000 C 
ATOM     20  C   UNL     1       3.739   3.440  17.081  0.00  0.00    +0.000 A 
ATOM     21  C   UNL     1       3.018   3.768  18.231  0.00  0.00    +0.000 A 
ATOM     22 BR   UNL     1       1.395   2.834  18.546  0.00  0.00    +0.000 Br
ENDBRANCH  13  17
ENDBRANCH   1  13
TORSDOF 4
ENDMDL
MODEL 8
REMARK VINA RESULT:      -7.3      3.967      6.400
REMARK  Name = 
REMARK  6 active torsions:
REMARK  status: ('A' for Active; 'I' for Inactive)
REMARK    1  A    between atoms: C_1  and  C_2
REMARK    2  A    between atoms: C_4  and  O_5
REMARK    3  A    between atoms: O_5  and  C_6
REMARK    4  A    between atoms: C_6  and  C_7
REMARK    5  A    between atoms: C_9  and  C_10
REMARK    6  A    between atoms: C_18  and  C_19
REMARK                            x       y       z     vdW  Elec       q    Type
REMARK                         _______ _______ _______ _____ _____    ______ ____
ROOT
ATOM      1  C   UNL     1       7.188   5.182  17.495  0.00  0.00    +0.000 C 
ENDROOT
BRANCH   1   2
ATOM      2  C   UNL     1       7.013   4.995  16.035  0.00  0.00    +0.000 A 
ATOM      3  N   UNL     1       6.297   4.109  15.377  0.00  0.00    +0.000 NA
ATOM      4  C   UNL     1       6.601   4.394  14.062  0.00  0.00    +0.000 A 
ATOM      5  N   UNL     1       7.464   5.412  13.913  0.00  0.00    +0.000 NA
ATOM      6  O   UNL     1       7.736   5.813  15.220  0.00  0.00    +0.000 OA
BRANCH   4   7
ATOM      7  C   UNL     1       6.074   3.603  12.966  0.00  0.00    +0.000 A 
ATOM      8  C   UNL     1       6.888   2.716  12.254  0.00  0.00    +0.000 A 
ATOM      9  C   UNL     1       6.367   2.012  11.172  0.00  0.00    +0.000 A 
ATOM     10  C   UNL     1       5.039   2.211  10.835  0.00  0.00    +0.000 A 
ATOM     11  N   UNL     1       4.213   3.043  11.506  0.00  0.00    +0.000 NA
ATOM     12  C   UNL     1       4.749   3.717  12.556  0.00  0.00    +0.000 A 
ENDBRANCH   4   7
ENDBRANCH   1   2
BRANCH   1  13
ATOM     13  O   UNL     1       6.105   5.990  17.946  0.00  0.00    +0.000 OA
BRANCH  13  17
ATOM     14  C   UNL     1       3.929   2.285  20.432  0.00  0.00    +0.000 C 
ATOM     15  C   UNL     1       3.840   3.557  19.635  0.00  0.00    +0.000 A 
ATOM     16  C   UNL     1       5.021   4.139  19.136  0.00  0.00    +0.000 A 
ATOM     17  C   UNL     1       4.998   5.356  18.443  0.00  0.00    +0.000 A 
ATOM     18  C   UNL     1       3.774   6.009  18.234  0.00  0.00    +0.000 A 
ATOM     19  C   UNL     1       3.672   7.337  17.533  0.00  0.00    +0.000 C 
ATOM     20  C   UNL     1       2.590   5.414  18.699  0.00  0.00    +0.000 A 
ATOM     21  C   UNL     1       2.622   4.205  19.397  0.00  0.00    +0.000 A 
ATOM     22 BR   UNL     1       0.968   3.503  20.013  0.00  0.00    +0.000 Br
ENDBRANCH  13  17
ENDBRANCH   1  13
TORSDOF 4
ENDMDL
MODEL 9
REMARK VINA RESULT:      -7.3      1.494      1.847
REMARK  Name = 
REMARK  6 active torsions:
REMARK  status: ('A' for Active; 'I' for Inactive)
REMARK    1  A    between atoms: C_1  and  C_2
REMARK    2  A    between atoms: C_4  and  O_5
REMARK    3  A    between atoms: O_5  and  C_6
REMARK    4  A    between atoms: C_6  and  C_7
REMARK    5  A    between atoms: C_9  and  C_10
REMARK    6  A    between atoms: C_18  and  C_19
REMARK                            x       y       z     vdW  Elec       q    Type
REMARK                         _______ _______ _______ _____ _____    ______ ____
ROOT
ATOM      1  C   UNL     1       7.206   6.154  17.973  0.00  0.00    +0.000 C 
ENDROOT
BRANCH   1   2
ATOM      2  C   UNL     1       7.732   7.539  18.013  0.00  0.00    +0.000 A 
ATOM      3  N   UNL     1       8.641   8.074  18.799  0.00  0.00    +0.000 NA
ATOM      4  C   UNL     1       8.636   9.396  18.407  0.00  0.00    +0.000 A 
ATOM      5  N   UNL     1       7.765   9.667  17.422  0.00  0.00    +0.000 NA
ATOM      6  O   UNL     1       7.167   8.436  17.158  0.00  0.00    +0.000 OA
BRANCH   4   7
ATOM      7  C   UNL     1       9.460  10.393  19.066  0.00  0.00    +0.000 A 
ATOM      8  C   UNL     1      10.542  10.989  18.410  0.00  0.00    +0.000 A 
ATOM      9  C   UNL     1      11.347  11.901  19.086  0.00  0.00    +0.000 A 
ATOM     10  C   UNL     1      11.041  12.199  20.403  0.00  0.00    +0.000 A 
ATOM     11  N   UNL     1       9.996  11.662  21.069  0.00  0.00    +0.000 NA
ATOM     12  C   UNL     1       9.229  10.775  20.384  0.00  0.00    +0.000 A 
ENDBRANCH   4   7
ENDBRANCH   1   2
BRANCH   1  13
ATOM     13  O   UNL     1       5.892   6.222  17.428  0.00  0.00    +0.000 OA
BRANCH  13  17
ATOM     14  C   UNL     1       4.191   2.291  19.939  0.00  0.00    +0.000 C 
ATOM     15  C   UNL     1       3.968   3.635  19.301  0.00  0.00    +0.000 A 
ATOM     16  C   UNL     1       5.035   4.263  18.631  0.00  0.00    +0.000 A 
ATOM     17  C   UNL     1       4.896   5.542  18.076  0.00  0.00    +0.000 A 
ATOM     18  C   UNL     1       3.667   6.211  18.182  0.00  0.00    +0.000 A 
ATOM     19  C   UNL     1       3.451   7.601  17.646  0.00  0.00    +0.000 C 
ATOM     20  C   UNL     1       2.590   5.573  18.818  0.00  0.00    +0.000 A 
ATOM     21  C   UNL     1       2.739   4.302  19.377  0.00  0.00    +0.000 A 
ATOM     22 BR   UNL     1       1.230   3.542  20.244  0.00  0.00    +0.000 Br
ENDBRANCH  13  17
ENDBRANCH   1  13
TORSDOF 4
ENDMDL
