MODEL 1
REMARK VINA RESULT:      -6.8      0.000      0.000
REMARK  Name = 
REMARK  7 active torsions:
REMARK  status: ('A' for Active; 'I' for Inactive)
REMARK    1  A    between atoms: C_1  and  N_2
REMARK    2  A    between atoms: N_2  and  C_3
REMARK    3  A    between atoms: N_2  and  C_6
REMARK    4  A    between atoms: C_3  and  C_4
REMARK    5  A    between atoms: C_4  and  O_5
REMARK    6  A    between atoms: N_10  and  C_11
REMARK    7  A    between atoms: C_11  and  C_12
REMARK                            x       y       z     vdW  Elec       q    Type
REMARK                         _______ _______ _______ _____ _____    ______ ____
ROOT
ATOM      1  C   UNL     1       0.524   9.664  19.189  0.00  0.00    +0.000 A 
ATOM      2  C   UNL     1       1.037   9.453  17.907  0.00  0.00    +0.000 A 
ATOM      3  C   UNL     1       2.048   8.520  17.669  0.00  0.00    +0.000 A 
ATOM      4  C   UNL     1       2.540   7.757  18.714  0.00  0.00    +0.000 A 
ATOM      5  N   UNL     1       3.472   6.771  18.409  0.00  0.00    +0.000 N 
ATOM      6  N   UNL     1       2.084   7.921  19.965  0.00  0.00    +0.000 NA
ATOM      7  C   UNL     1       1.120   8.861  20.168  0.00  0.00    +0.000 A 
ATOM      8  H   UNL     1       4.300   7.168  17.978  0.00  0.00    +0.000 HD
ENDROOT
BRANCH   1  10
ATOM      9  C   UNL     1      -0.402  11.392  20.694  0.00  0.00    +0.000 C 
ATOM     10  N   UNL     1      -0.459  10.612  19.460  0.00  0.00    +0.000 N 
BRANCH  10  11
ATOM     11  C   UNL     1      -1.725  10.664  18.704  0.00  0.00    +0.000 C 
BRANCH  11  12
ATOM     12  C   UNL     1      -2.090  12.112  18.341  0.00  0.00    +0.000 C 
BRANCH  12  13
ATOM     13  O   UNL     1      -1.211  12.659  17.361  0.00  0.00    +0.000 OA
ATOM     14  H   UNL     1      -0.761  11.886  16.965  0.00  0.00    +0.000 HD
ENDBRANCH  12  13
ENDBRANCH  11  12
ENDBRANCH  10  11
ENDBRANCH   1  10
BRANCH   5  15
ATOM     15  C   UNL     1       3.767   5.780  19.424  0.00  0.00    +0.000 C 
BRANCH  15  16
ATOM     16  C   UNL     1       2.861   4.599  19.158  0.00  0.00    +0.000 A 
ATOM     17  C   UNL     1       1.759   4.405  20.018  0.00  0.00    +0.000 A 
ATOM     18  C   UNL     1       0.856   3.368  19.798  0.00  0.00    +0.000 A 
ATOM     19  C   UNL     1       1.044   2.521  18.714  0.00  0.00    +0.000 A 
ATOM     20  F   UNL     1       0.173   1.527  18.500  0.00  0.00    +0.000 F 
ATOM     21  C   UNL     1       2.106   2.703  17.839  0.00  0.00    +0.000 A 
ATOM     22  C   UNL     1       3.010   3.745  18.054  0.00  0.00    +0.000 A 
ATOM     23 CL   UNL     1       4.281   3.953  16.903  0.00  0.00    +0.000 Cl
ENDBRANCH  15  16
ENDBRANCH   5  15
TORSDOF 6
ENDMDL
MODEL 2
REMARK VINA RESULT:      -6.7      7.436     10.010
REMARK  Name = 
REMARK  7 active torsions:
REMARK  status: ('A' for Active; 'I' for Inactive)
REMARK    1  A    between atoms: C_1  and  N_2
REMARK    2  A    between atoms: N_2  and  C_3
REMARK    3  A    between atoms: N_2  and  C_6
REMARK    4  A    between atoms: C_3  and  C_4
REMARK    5  A    between atoms: C_4  and  O_5
REMARK    6  A    between atoms: N_10  and  C_11
REMARK    7  A    between atoms: C_11  and  C_12
REMARK                            x       y       z     vdW  Elec       q    Type
REMARK                         _______ _______ _______ _____ _____    ______ ____
ROOT
ATOM      1  C   UNL     1       6.231   5.439  17.515  0.00  0.00    +0.000 A 
ATOM      2  C   UNL     1       7.177   5.444  18.543  0.00  0.00    +0.000 A 
ATOM      3  C   UNL     1       7.982   6.557  18.792  0.00  0.00    +0.000 A 
ATOM      4  C   UNL     1       7.824   7.703  18.030  0.00  0.00    +0.000 A 
ATOM      5  N   UNL     1       8.576   8.818  18.384  0.00  0.00    +0.000 N 
ATOM      6  N   UNL     1       6.933   7.752  17.030  0.00  0.00    +0.000 NA
ATOM      7  C   UNL     1       6.186   6.637  16.793  0.00  0.00    +0.000 A 
ATOM      8  H   UNL     1       9.570   8.623  18.338  0.00  0.00    +0.000 HD
ENDROOT
BRANCH   1  10
ATOM      9  C   UNL     1       5.752   3.498  16.062  0.00  0.00    +0.000 C 
ATOM     10  N   UNL     1       5.442   4.330  17.223  0.00  0.00    +0.000 N 
BRANCH  10  11
ATOM     11  C   UNL     1       4.125   4.118  17.854  0.00  0.00    +0.000 C 
BRANCH  11  12
ATOM     12  C   UNL     1       4.135   2.862  18.739  0.00  0.00    +0.000 C 
BRANCH  12  13
ATOM     13  O   UNL     1       5.261   2.827  19.611  0.00  0.00    +0.000 OA
ATOM     14  H   UNL     1       5.592   3.748  19.634  0.00  0.00    +0.000 HD
ENDBRANCH  12  13
ENDBRANCH  11  12
ENDBRANCH  10  11
ENDBRANCH   1  10
BRANCH   5  15
ATOM     15  C   UNL     1       8.211  10.093  17.800  0.00  0.00    +0.000 C 
BRANCH  15  16
ATOM     16  C   UNL     1       9.059  11.144  18.480  0.00  0.00    +0.000 A 
ATOM     17  C   UNL     1      10.114  10.708  19.309  0.00  0.00    +0.000 A 
ATOM     18  C   UNL     1      10.966  11.623  19.923  0.00  0.00    +0.000 A 
ATOM     19  C   UNL     1      10.773  12.981  19.708  0.00  0.00    +0.000 A 
ATOM     20  F   UNL     1      11.595  13.861  20.294  0.00  0.00    +0.000 F 
ATOM     21  C   UNL     1       9.758  13.437  18.879  0.00  0.00    +0.000 A 
ATOM     22  C   UNL     1       8.906  12.522  18.259  0.00  0.00    +0.000 A 
ATOM     23 CL   UNL     1       7.693  13.147  17.198  0.00  0.00    +0.000 Cl
ENDBRANCH  15  16
ENDBRANCH   5  15
TORSDOF 6
ENDMDL
MODEL 3
REMARK VINA RESULT:      -6.5      1.549      2.217
REMARK  Name = 
REMARK  7 active torsions:
REMARK  status: ('A' for Active; 'I' for Inactive)
REMARK    1  A    between atoms: C_1  and  N_2
REMARK    2  A    between atoms: N_2  and  C_3
REMARK    3  A    between atoms: N_2  and  C_6
REMARK    4  A    between atoms: C_3  and  C_4
REMARK    5  A    between atoms: C_4  and  O_5
REMARK    6  A    between atoms: N_10  and  C_11
REMARK    7  A    between atoms: C_11  and  C_12
REMARK                            x       y       z     vdW  Elec       q    Type
REMARK                         _______ _______ _______ _____ _____    ______ ____
ROOT
ATOM      1  C   UNL     1       0.578  10.819  19.575  0.00  0.00    +0.000 A 
ATOM      2  C   UNL     1       0.422  10.326  20.872  0.00  0.00    +0.000 A 
ATOM      3  C   UNL     1       0.870   9.053  21.230  0.00  0.00    +0.000 A 
ATOM      4  C   UNL     1       1.516   8.263  20.293  0.00  0.00    +0.000 A 
ATOM      5  N   UNL     1       2.034   7.047  20.724  0.00  0.00    +0.000 N 
ATOM      6  N   UNL     1       1.690   8.687  19.033  0.00  0.00    +0.000 NA
ATOM      7  C   UNL     1       1.213   9.921  18.709  0.00  0.00    +0.000 A 
ATOM      8  H   UNL     1       1.305   6.447  21.096  0.00  0.00    +0.000 HD
ENDROOT
BRANCH   1  10
ATOM      9  C   UNL     1      -1.029  12.171  18.272  0.00  0.00    +0.000 C 
ATOM     10  N   UNL     1       0.109  12.069  19.183  0.00  0.00    +0.000 N 
BRANCH  10  11
ATOM     11  C   UNL     1       0.889  13.303  19.405  0.00  0.00    +0.000 C 
BRANCH  11  12
ATOM     12  C   UNL     1       2.306  13.168  18.827  0.00  0.00    +0.000 C 
BRANCH  12  13
ATOM     13  O   UNL     1       2.305  13.121  17.404  0.00  0.00    +0.000 OA
ATOM     14  H   UNL     1       2.832  12.328  17.176  0.00  0.00    +0.000 HD
ENDBRANCH  12  13
ENDBRANCH  11  12
ENDBRANCH  10  11
ENDBRANCH   1  10
BRANCH   5  15
ATOM     15  C   UNL     1       2.958   6.356  19.848  0.00  0.00    +0.000 C 
BRANCH  15  16
ATOM     16  C   UNL     1       2.322   5.028  19.501  0.00  0.00    +0.000 A 
ATOM     17  C   UNL     1       1.329   4.525  20.367  0.00  0.00    +0.000 A 
ATOM     18  C   UNL     1       0.666   3.334  20.078  0.00  0.00    +0.000 A 
ATOM     19  C   UNL     1       0.988   2.641  18.919  0.00  0.00    +0.000 A 
ATOM     20  F   UNL     1       0.348   1.499  18.638  0.00  0.00    +0.000 F 
ATOM     21  C   UNL     1       1.945   3.126  18.038  0.00  0.00    +0.000 A 
ATOM     22  C   UNL     1       2.607   4.321  18.322  0.00  0.00    +0.000 A 
ATOM     23 CL   UNL     1       3.750   4.900  17.163  0.00  0.00    +0.000 Cl
ENDBRANCH  15  16
ENDBRANCH   5  15
TORSDOF 6
ENDMDL
MODEL 4
REMARK VINA RESULT:      -6.5      3.047      3.852
REMARK  Name = 
REMARK  7 active torsions:
REMARK  status: ('A' for Active; 'I' for Inactive)
REMARK    1  A    between atoms: C_1  and  N_2
REMARK    2  A    between atoms: N_2  and  C_3
REMARK    3  A    between atoms: N_2  and  C_6
REMARK    4  A    between atoms: C_3  and  C_4
REMARK    5  A    between atoms: C_4  and  O_5
REMARK    6  A    between atoms: N_10  and  C_11
REMARK    7  A    between atoms: C_11  and  C_12
REMARK                            x       y       z     vdW  Elec       q    Type
REMARK                         _______ _______ _______ _____ _____    ______ ____
ROOT
ATOM      1  C   UNL     1       0.246  10.183  19.970  0.00  0.00    +0.000 A 
ATOM      2  C   UNL     1       0.464  10.338  18.599  0.00  0.00    +0.000 A 
ATOM      3  C   UNL     1       1.321   9.491  17.894  0.00  0.00    +0.000 A 
ATOM      4  C   UNL     1       1.951   8.447  18.552  0.00  0.00    +0.000 A 
ATOM      5  N   UNL     1       2.712   7.570  17.787  0.00  0.00    +0.000 N 
ATOM      6  N   UNL     1       1.778   8.254  19.868  0.00  0.00    +0.000 NA
ATOM      7  C   UNL     1       0.960   9.118  20.532  0.00  0.00    +0.000 A 
ATOM      8  H   UNL     1       3.465   8.055  17.311  0.00  0.00    +0.000 HD
ENDROOT
BRANCH   1  10
ATOM      9  C   UNL     1      -1.634  11.785  20.032  0.00  0.00    +0.000 C 
ATOM     10  N   UNL     1      -0.574  11.035  20.703  0.00  0.00    +0.000 N 
BRANCH  10  11
ATOM     11  C   UNL     1      -0.241  11.452  22.079  0.00  0.00    +0.000 C 
BRANCH  11  12
ATOM     12  C   UNL     1      -1.198  10.810  23.095  0.00  0.00    +0.000 C 
BRANCH  12  13
ATOM     13  O   UNL     1      -0.765   9.514  23.498  0.00  0.00    +0.000 OA
ATOM     14  H   UNL     1       0.188   9.616  23.697  0.00  0.00    +0.000 HD
ENDBRANCH  12  13
ENDBRANCH  11  12
ENDBRANCH  10  11
ENDBRANCH   1  10
BRANCH   5  15
ATOM     15  C   UNL     1       3.124   6.322  18.397  0.00  0.00    +0.000 C 
BRANCH  15  16
ATOM     16  C   UNL     1       4.244   5.768  17.545  0.00  0.00    +0.000 A 
ATOM     17  C   UNL     1       5.412   6.545  17.401  0.00  0.00    +0.000 A 
ATOM     18  C   UNL     1       6.501   6.071  16.673  0.00  0.00    +0.000 A 
ATOM     19  C   UNL     1       6.432   4.814  16.088  0.00  0.00    +0.000 A 
ATOM     20  F   UNL     1       7.480   4.355  15.393  0.00  0.00    +0.000 F 
ATOM     21  C   UNL     1       5.303   4.018  16.233  0.00  0.00    +0.000 A 
ATOM     22  C   UNL     1       4.213   4.490  16.966  0.00  0.00    +0.000 A 
ATOM     23 CL   UNL     1       2.858   3.434  17.155  0.00  0.00    +0.000 Cl
ENDBRANCH  15  16
ENDBRANCH   5  15
TORSDOF 6
ENDMDL
MODEL 5
REMARK VINA RESULT:      -6.5      1.413      1.794
REMARK  Name = 
REMARK  7 active torsions:
REMARK  status: ('A' for Active; 'I' for Inactive)
REMARK    1  A    between atoms: C_1  and  N_2
REMARK    2  A    between atoms: N_2  and  C_3
REMARK    3  A    between atoms: N_2  and  C_6
REMARK    4  A    between atoms: C_3  and  C_4
REMARK    5  A    between atoms: C_4  and  O_5
REMARK    6  A    between atoms: N_10  and  C_11
REMARK    7  A    between atoms: C_11  and  C_12
REMARK                            x       y       z     vdW  Elec       q    Type
REMARK                         _______ _______ _______ _____ _____    ______ ____
ROOT
ATOM      1  C   UNL     1       0.383   9.949  19.600  0.00  0.00    +0.000 A 
ATOM      2  C   UNL     1       0.704   9.723  18.259  0.00  0.00    +0.000 A 
ATOM      3  C   UNL     1       1.654   8.772  17.884  0.00  0.00    +0.000 A 
ATOM      4  C   UNL     1       2.276   8.002  18.853  0.00  0.00    +0.000 A 
ATOM      5  N   UNL     1       3.137   6.998  18.423  0.00  0.00    +0.000 N 
ATOM      6  N   UNL     1       2.006   8.178  20.155  0.00  0.00    +0.000 NA
ATOM      7  C   UNL     1       1.098   9.138  20.488  0.00  0.00    +0.000 A 
ATOM      8  H   UNL     1       3.902   7.378  17.877  0.00  0.00    +0.000 HD
ENDROOT
BRANCH   1  10
ATOM      9  C   UNL     1      -1.715  11.188  19.187  0.00  0.00    +0.000 C 
ATOM     10  N   UNL     1      -0.533  10.916  20.002  0.00  0.00    +0.000 N 
BRANCH  10  11
ATOM     11  C   UNL     1      -0.222  11.896  21.061  0.00  0.00    +0.000 C 
BRANCH  11  12
ATOM     12  C   UNL     1      -1.163  11.724  22.263  0.00  0.00    +0.000 C 
BRANCH  12  13
ATOM     13  O   UNL     1      -0.979  10.472  22.916  0.00  0.00    +0.000 OA
ATOM     14  H   UNL     1      -0.671  10.699  23.817  0.00  0.00    +0.000 HD
ENDBRANCH  12  13
ENDBRANCH  11  12
ENDBRANCH  10  11
ENDBRANCH   1  10
BRANCH   5  15
ATOM     15  C   UNL     1       3.555   6.005  19.392  0.00  0.00    +0.000 C 
BRANCH  15  16
ATOM     16  C   UNL     1       2.729   4.765  19.132  0.00  0.00    +0.000 A 
ATOM     17  C   UNL     1       1.650   4.496  20.001  0.00  0.00    +0.000 A 
ATOM     18  C   UNL     1       0.817   3.401  19.787  0.00  0.00    +0.000 A 
ATOM     19  C   UNL     1       1.052   2.569  18.701  0.00  0.00    +0.000 A 
ATOM     20  F   UNL     1       0.249   1.519  18.492  0.00  0.00    +0.000 F 
ATOM     21  C   UNL     1       2.092   2.824  17.817  0.00  0.00    +0.000 A 
ATOM     22  C   UNL     1       2.926   3.924  18.026  0.00  0.00    +0.000 A 
ATOM     23 CL   UNL     1       4.170   4.218  16.865  0.00  0.00    +0.000 Cl
ENDBRANCH  15  16
ENDBRANCH   5  15
TORSDOF 6
ENDMDL
MODEL 6
REMARK VINA RESULT:      -6.5      3.497      4.715
REMARK  Name = 
REMARK  7 active torsions:
REMARK  status: ('A' for Active; 'I' for Inactive)
REMARK    1  A    between atoms: C_1  and  N_2
REMARK    2  A    between atoms: N_2  and  C_3
REMARK    3  A    between atoms: N_2  and  C_6
REMARK    4  A    between atoms: C_3  and  C_4
REMARK    5  A    between atoms: C_4  and  O_5
REMARK    6  A    between atoms: N_10  and  C_11
REMARK    7  A    between atoms: C_11  and  C_12
REMARK                            x       y       z     vdW  Elec       q    Type
REMARK                         _______ _______ _______ _____ _____    ______ ____
ROOT
ATOM      1  C   UNL     1       1.586   8.036  19.954  0.00  0.00    +0.000 A 
ATOM      2  C   UNL     1       1.591   6.867  20.720  0.00  0.00    +0.000 A 
ATOM      3  C   UNL     1       2.116   5.671  20.227  0.00  0.00    +0.000 A 
ATOM      4  C   UNL     1       2.678   5.638  18.962  0.00  0.00    +0.000 A 
ATOM      5  N   UNL     1       3.279   4.451  18.556  0.00  0.00    +0.000 N 
ATOM      6  N   UNL     1       2.698   6.729  18.184  0.00  0.00    +0.000 NA
ATOM      7  C   UNL     1       2.148   7.872  18.683  0.00  0.00    +0.000 A 
ATOM      8  H   UNL     1       2.616   3.684  18.556  0.00  0.00    +0.000 HD
ENDROOT
BRANCH   1  10
ATOM      9  C   UNL     1       0.617  10.253  19.452  0.00  0.00    +0.000 C 
ATOM     10  N   UNL     1       1.037   9.231  20.408  0.00  0.00    +0.000 N 
BRANCH  10  11
ATOM     11  C   UNL     1       1.128   9.647  21.821  0.00  0.00    +0.000 C 
BRANCH  11  12
ATOM     12  C   UNL     1      -0.253   9.620  22.493  0.00  0.00    +0.000 C 
BRANCH  12  13
ATOM     13  O   UNL     1      -0.454  10.735  23.357  0.00  0.00    +0.000 OA
ATOM     14  H   UNL     1      -1.004  11.359  22.841  0.00  0.00    +0.000 HD
ENDBRANCH  12  13
ENDBRANCH  11  12
ENDBRANCH  10  11
ENDBRANCH   1  10
BRANCH   5  15
ATOM     15  C   UNL     1       4.122   4.487  17.378  0.00  0.00    +0.000 C 
BRANCH  15  16
ATOM     16  C   UNL     1       5.343   5.304  17.739  0.00  0.00    +0.000 A 
ATOM     17  C   UNL     1       6.027   4.979  18.929  0.00  0.00    +0.000 A 
ATOM     18  C   UNL     1       7.189   5.657  19.294  0.00  0.00    +0.000 A 
ATOM     19  C   UNL     1       7.677   6.661  18.469  0.00  0.00    +0.000 A 
ATOM     20  F   UNL     1       8.795   7.310  18.816  0.00  0.00    +0.000 F 
ATOM     21  C   UNL     1       7.036   6.986  17.281  0.00  0.00    +0.000 A 
ATOM     22  C   UNL     1       5.875   6.304  16.911  0.00  0.00    +0.000 A 
ATOM     23 CL   UNL     1       5.151   6.717  15.397  0.00  0.00    +0.000 Cl
ENDBRANCH  15  16
ENDBRANCH   5  15
TORSDOF 6
ENDMDL
MODEL 7
REMARK VINA RESULT:      -6.5      1.218      1.587
REMARK  Name = 
REMARK  7 active torsions:
REMARK  status: ('A' for Active; 'I' for Inactive)
REMARK    1  A    between atoms: C_1  and  N_2
REMARK    2  A    between atoms: N_2  and  C_3
REMARK    3  A    between atoms: N_2  and  C_6
REMARK    4  A    between atoms: C_3  and  C_4
REMARK    5  A    between atoms: C_4  and  O_5
REMARK    6  A    between atoms: N_10  and  C_11
REMARK    7  A    between atoms: C_11  and  C_12
REMARK                            x       y       z     vdW  Elec       q    Type
REMARK                         _______ _______ _______ _____ _____    ______ ____
ROOT
ATOM      1  C   UNL     1       0.226   9.960  19.403  0.00  0.00    +0.000 A 
ATOM      2  C   UNL     1       0.621   9.735  18.082  0.00  0.00    +0.000 A 
ATOM      3  C   UNL     1       1.617   8.810  17.764  0.00  0.00    +0.000 A 
ATOM      4  C   UNL     1       2.212   8.067  18.771  0.00  0.00    +0.000 A 
ATOM      5  N   UNL     1       3.123   7.087  18.394  0.00  0.00    +0.000 N 
ATOM      6  N   UNL     1       1.871   8.244  20.055  0.00  0.00    +0.000 NA
ATOM      7  C   UNL     1       0.918   9.178  20.334  0.00  0.00    +0.000 A 
ATOM      8  H   UNL     1       3.904   7.486  17.884  0.00  0.00    +0.000 HD
ENDROOT
BRANCH   1  10
ATOM      9  C   UNL     1      -1.892  11.122  18.880  0.00  0.00    +0.000 C 
ATOM     10  N   UNL     1      -0.739  10.902  19.750  0.00  0.00    +0.000 N 
BRANCH  10  11
ATOM     11  C   UNL     1      -0.507  11.907  20.805  0.00  0.00    +0.000 C 
BRANCH  11  12
ATOM     12  C   UNL     1       0.666  12.829  20.438  0.00  0.00    +0.000 C 
BRANCH  12  13
ATOM     13  O   UNL     1       1.372  13.287  21.588  0.00  0.00    +0.000 OA
ATOM     14  H   UNL     1       0.714  13.268  22.312  0.00  0.00    +0.000 HD
ENDBRANCH  12  13
ENDBRANCH  11  12
ENDBRANCH  10  11
ENDBRANCH   1  10
BRANCH   5  15
ATOM     15  C   UNL     1       3.522   6.114  19.391  0.00  0.00    +0.000 C 
BRANCH  15  16
ATOM     16  C   UNL     1       2.706   4.866  19.134  0.00  0.00    +0.000 A 
ATOM     17  C   UNL     1       1.615   4.603  19.989  0.00  0.00    +0.000 A 
ATOM     18  C   UNL     1       0.791   3.499  19.777  0.00  0.00    +0.000 A 
ATOM     19  C   UNL     1       1.049   2.655  18.706  0.00  0.00    +0.000 A 
ATOM     20  F   UNL     1       0.255   1.597  18.498  0.00  0.00    +0.000 F 
ATOM     21  C   UNL     1       2.102   2.903  17.836  0.00  0.00    +0.000 A 
ATOM     22  C   UNL     1       2.926   4.011  18.043  0.00  0.00    +0.000 A 
ATOM     23 CL   UNL     1       4.188   4.297  16.899  0.00  0.00    +0.000 Cl
ENDBRANCH  15  16
ENDBRANCH   5  15
TORSDOF 6
ENDMDL
MODEL 8
REMARK VINA RESULT:      -6.4      4.619      8.001
REMARK  Name = 
REMARK  7 active torsions:
REMARK  status: ('A' for Active; 'I' for Inactive)
REMARK    1  A    between atoms: C_1  and  N_2
REMARK    2  A    between atoms: N_2  and  C_3
REMARK    3  A    between atoms: N_2  and  C_6
REMARK    4  A    between atoms: C_3  and  C_4
REMARK    5  A    between atoms: C_4  and  O_5
REMARK    6  A    between atoms: N_10  and  C_11
REMARK    7  A    between atoms: C_11  and  C_12
REMARK                            x       y       z     vdW  Elec       q    Type
REMARK                         _______ _______ _______ _____ _____    ______ ____
ROOT
ATOM      1  C   UNL     1       3.052   4.600  18.617  0.00  0.00    +0.000 A 
ATOM      2  C   UNL     1       2.602   4.471  19.934  0.00  0.00    +0.000 A 
ATOM      3  C   UNL     1       2.130   5.569  20.656  0.00  0.00    +0.000 A 
ATOM      4  C   UNL     1       2.069   6.814  20.052  0.00  0.00    +0.000 A 
ATOM      5  N   UNL     1       1.495   7.853  20.777  0.00  0.00    +0.000 N 
ATOM      6  N   UNL     1       2.489   6.993  18.792  0.00  0.00    +0.000 NA
ATOM      7  C   UNL     1       2.975   5.908  18.127  0.00  0.00    +0.000 A 
ATOM      8  H   UNL     1       1.997   8.019  21.643  0.00  0.00    +0.000 HD
ENDROOT
BRANCH   1  10
ATOM      9  C   UNL     1       4.510   3.769  16.803  0.00  0.00    +0.000 C 
ATOM     10  N   UNL     1       3.561   3.529  17.888  0.00  0.00    +0.000 N 
BRANCH  10  11
ATOM     11  C   UNL     1       2.966   2.180  17.958  0.00  0.00    +0.000 C 
BRANCH  11  12
ATOM     12  C   UNL     1       3.970   1.164  18.523  0.00  0.00    +0.000 C 
BRANCH  12  13
ATOM     13  O   UNL     1       4.797   1.730  19.536  0.00  0.00    +0.000 OA
ATOM     14  H   UNL     1       4.175   2.068  20.212  0.00  0.00    +0.000 HD
ENDBRANCH  12  13
ENDBRANCH  11  12
ENDBRANCH  10  11
ENDBRANCH   1  10
BRANCH   5  15
ATOM     15  C   UNL     1       1.154   9.067  20.065  0.00  0.00    +0.000 C 
BRANCH  15  16
ATOM     16  C   UNL     1       0.253   9.870  20.976  0.00  0.00    +0.000 A 
ATOM     17  C   UNL     1       0.020   9.377  22.277  0.00  0.00    +0.000 A 
ATOM     18  C   UNL     1      -0.757  10.093  23.185  0.00  0.00    +0.000 A 
ATOM     19  C   UNL     1      -1.302  11.310  22.800  0.00  0.00    +0.000 A 
ATOM     20  F   UNL     1      -2.046  12.002  23.673  0.00  0.00    +0.000 F 
ATOM     21  C   UNL     1      -1.071  11.830  21.534  0.00  0.00    +0.000 A 
ATOM     22  C   UNL     1      -0.288  11.117  20.624  0.00  0.00    +0.000 A 
ATOM     23 CL   UNL     1       0.008  11.838  19.083  0.00  0.00    +0.000 Cl
ENDBRANCH  15  16
ENDBRANCH   5  15
TORSDOF 6
ENDMDL
MODEL 9
REMARK VINA RESULT:      -6.4      4.615      7.903
REMARK  Name = 
REMARK  7 active torsions:
REMARK  status: ('A' for Active; 'I' for Inactive)
REMARK    1  A    between atoms: C_1  and  N_2
REMARK    2  A    between atoms: N_2  and  C_3
REMARK    3  A    between atoms: N_2  and  C_6
REMARK    4  A    between atoms: C_3  and  C_4
REMARK    5  A    between atoms: C_4  and  O_5
REMARK    6  A    between atoms: N_10  and  C_11
REMARK    7  A    between atoms: C_11  and  C_12
REMARK                            x       y       z     vdW  Elec       q    Type
REMARK                         _______ _______ _______ _____ _____    ______ ____
ROOT
ATOM      1  C   UNL     1       3.625   5.019  18.266  0.00  0.00    +0.000 A 
ATOM      2  C   UNL     1       3.006   4.705  19.479  0.00  0.00    +0.000 A 
ATOM      3  C   UNL     1       2.346   5.675  20.236  0.00  0.00    +0.000 A 
ATOM      4  C   UNL     1       2.267   6.976  19.768  0.00  0.00    +0.000 A 
ATOM      5  N   UNL     1       1.512   7.881  20.506  0.00  0.00    +0.000 N 
ATOM      6  N   UNL     1       2.845   7.332  18.611  0.00  0.00    +0.000 NA
ATOM      7  C   UNL     1       3.509   6.368  17.913  0.00  0.00    +0.000 A 
ATOM      8  H   UNL     1       1.871   7.976  21.450  0.00  0.00    +0.000 HD
ENDROOT
BRANCH   1  10
ATOM      9  C   UNL     1       4.016   2.657  17.653  0.00  0.00    +0.000 C 
ATOM     10  N   UNL     1       4.320   4.079  17.511  0.00  0.00    +0.000 N 
BRANCH  10  11
ATOM     11  C   UNL     1       5.560   4.419  16.787  0.00  0.00    +0.000 C 
BRANCH  11  12
ATOM     12  C   UNL     1       6.741   4.569  17.758  0.00  0.00    +0.000 C 
BRANCH  12  13
ATOM     13  O   UNL     1       7.971   4.140  17.182  0.00  0.00    +0.000 OA
ATOM     14  H   UNL     1       7.840   3.190  16.984  0.00  0.00    +0.000 HD
ENDBRANCH  12  13
ENDBRANCH  11  12
ENDBRANCH  10  11
ENDBRANCH   1  10
BRANCH   5  15
ATOM     15  C   UNL     1       1.175   9.146  19.885  0.00  0.00    +0.000 C 
BRANCH  15  16
ATOM     16  C   UNL     1       0.260   9.873  20.846  0.00  0.00    +0.000 A 
ATOM     17  C   UNL     1       0.147   9.371  22.159  0.00  0.00    +0.000 A 
ATOM     18  C   UNL     1      -0.637  10.023  23.108  0.00  0.00    +0.000 A 
ATOM     19  C   UNL     1      -1.309  11.185  22.753  0.00  0.00    +0.000 A 
ATOM     20  F   UNL     1      -2.059  11.815  23.666  0.00  0.00    +0.000 F 
ATOM     21  C   UNL     1      -1.196  11.714  21.474  0.00  0.00    +0.000 A 
ATOM     22  C   UNL     1      -0.407  11.065  20.523  0.00  0.00    +0.000 A 
ATOM     23 CL   UNL     1      -0.265  11.798  18.965  0.00  0.00    +0.000 Cl
ENDBRANCH  15  16
ENDBRANCH   5  15
TORSDOF 6
ENDMDL
