MODEL 1
REMARK VINA RESULT:      -7.8      0.000      0.000
REMARK  Name = 
REMARK  10 active torsions:
REMARK  status: ('A' for Active; 'I' for Inactive)
REMARK    1  A    between atoms: C_1  and  C_2
REMARK    2  A    between atoms: C_8  and  C_9
REMARK    3  A    between atoms: N_11  and  C_12
REMARK    4  A    between atoms: C_12  and  C_13
REMARK    5  A    between atoms: C_12  and  C_14
REMARK    6  A    between atoms: C_20  and  C_21
REMARK    7  A    between atoms: N_23  and  C_24
REMARK    8  A    between atoms: C_24  and  C_25
REMARK    9  A    between atoms: C_24  and  C_26
REMARK   10  A    between atoms: C_26  and  C_28
REMARK                            x       y       z     vdW  Elec       q    Type
REMARK                         _______ _______ _______ _____ _____    ______ ____
ROOT
ATOM      1  C   UNL     1       2.764   6.329  19.313  0.00  0.00    +0.000 C 
ATOM      2  O   UNL     1       3.685   6.479  20.128  0.00  0.00    +0.000 OA
ATOM      3  N   UNL     1       2.533   5.097  18.732  0.00  0.00    +0.000 N 
ATOM      4  C   UNL     1       1.542   4.765  17.726  0.00  0.00    +0.000 C 
ATOM      5  C   UNL     1       1.028   3.409  18.156  0.00  0.00    +0.000 C 
ATOM      6  C   UNL     1       2.243   2.725  18.771  0.00  0.00    +0.000 C 
ATOM      7  C   UNL     1       3.166   3.866  19.237  0.00  0.00    +0.000 C 
ENDROOT
BRANCH   7   8
ATOM      8  C   UNL     1       4.606   3.669  18.705  0.00  0.00    +0.000 C 
ATOM      9  O   UNL     1       5.485   3.054  19.313  0.00  0.00    +0.000 OA
ATOM     10  N   UNL     1       4.889   4.331  17.532  0.00  0.00    +0.000 N 
ATOM     11  H   UNL     1       4.220   5.040  17.226  0.00  0.00    +0.000 HD
BRANCH  10  12
ATOM     12  C   UNL     1       6.248   4.334  17.005  0.00  0.00    +0.000 C 
ATOM     13  C   UNL     1       6.242   4.020  15.517  0.00  0.00    +0.000 C 
BRANCH  12  14
ATOM     14  C   UNL     1       6.917   5.690  17.248  0.00  0.00    +0.000 C 
ATOM     15  O   UNL     1       6.917   6.574  16.382  0.00  0.00    +0.000 OA
BRANCH  14  16
ATOM     16  C   UNL     1       7.634   5.833  18.579  0.00  0.00    +0.000 C 
ATOM     17  F   UNL     1       8.506   4.816  18.832  0.00  0.00    +0.000 F 
ATOM     18  F   UNL     1       8.378   6.974  18.637  0.00  0.00    +0.000 F 
ATOM     19  F   UNL     1       6.781   5.875  19.638  0.00  0.00    +0.000 F 
ENDBRANCH  14  16
ENDBRANCH  12  14
ENDBRANCH  10  12
ENDBRANCH   7   8
BRANCH   1  20
ATOM     20  C   UNL     1       1.843   7.524  18.936  0.00  0.00    +0.000 C 
ATOM     21  C   UNL     1       2.396   8.359  17.785  0.00  0.00    +0.000 C 
BRANCH  20  24
ATOM     22  C   UNL     1       0.748   9.402  20.151  0.00  0.00    +0.000 C 
ATOM     23  O   UNL     1       0.108   9.744  19.156  0.00  0.00    +0.000 OA
ATOM     24  N   UNL     1       1.671   8.379  20.113  0.00  0.00    +0.000 N 
ATOM     25  H   UNL     1       2.050   8.048  20.996  0.00  0.00    +0.000 HD
BRANCH  22  33
ATOM     26  C   UNL     1      -0.012  13.942  20.916  0.00  0.00    +0.000 C 
ATOM     27  C   UNL     1       0.687  12.612  20.811  0.00  0.00    +0.000 C 
ATOM     28  O   UNL     1       1.805  12.526  20.307  0.00  0.00    +0.000 OA
ATOM     29  N   UNL     1       0.028  11.518  21.323  0.00  0.00    +0.000 N 
ATOM     30  C   UNL     1      -1.232  11.504  22.042  0.00  0.00    +0.000 C 
ATOM     31  C   UNL     1      -0.984  10.508  23.162  0.00  0.00    +0.000 C 
ATOM     32  C   UNL     1      -0.052   9.476  22.537  0.00  0.00    +0.000 C 
ATOM     33  C   UNL     1       0.728  10.233  21.453  0.00  0.00    +0.000 C 
ENDBRANCH  22  33
ENDBRANCH  20  24
ENDBRANCH   1  20
TORSDOF 7
ENDMDL
MODEL 2
REMARK VINA RESULT:      -7.4      0.927      1.048
REMARK  Name = 
REMARK  10 active torsions:
REMARK  status: ('A' for Active; 'I' for Inactive)
REMARK    1  A    between atoms: C_1  and  C_2
REMARK    2  A    between atoms: C_8  and  C_9
REMARK    3  A    between atoms: N_11  and  C_12
REMARK    4  A    between atoms: C_12  and  C_13
REMARK    5  A    between atoms: C_12  and  C_14
REMARK    6  A    between atoms: C_20  and  C_21
REMARK    7  A    between atoms: N_23  and  C_24
REMARK    8  A    between atoms: C_24  and  C_25
REMARK    9  A    between atoms: C_24  and  C_26
REMARK   10  A    between atoms: C_26  and  C_28
REMARK                            x       y       z     vdW  Elec       q    Type
REMARK                         _______ _______ _______ _____ _____    ______ ____
ROOT
ATOM      1  C   UNL     1       2.876   6.240  19.305  0.00  0.00    +0.000 C 
ATOM      2  O   UNL     1       3.822   6.366  20.094  0.00  0.00    +0.000 OA
ATOM      3  N   UNL     1       2.561   5.003  18.778  0.00  0.00    +0.000 N 
ATOM      4  C   UNL     1       1.530   4.692  17.805  0.00  0.00    +0.000 C 
ATOM      5  C   UNL     1       0.946   3.386  18.299  0.00  0.00    +0.000 C 
ATOM      6  C   UNL     1       2.133   2.656  18.916  0.00  0.00    +0.000 C 
ATOM      7  C   UNL     1       3.131   3.756  19.318  0.00  0.00    +0.000 C 
ENDROOT
BRANCH   7   8
ATOM      8  C   UNL     1       4.545   3.455  18.765  0.00  0.00    +0.000 C 
ATOM      9  O   UNL     1       5.314   2.626  19.260  0.00  0.00    +0.000 OA
ATOM     10  N   UNL     1       4.949   4.261  17.726  0.00  0.00    +0.000 N 
ATOM     11  H   UNL     1       4.393   5.100  17.547  0.00  0.00    +0.000 HD
BRANCH  10  12
ATOM     12  C   UNL     1       6.310   4.165  17.213  0.00  0.00    +0.000 C 
ATOM     13  C   UNL     1       6.345   4.512  15.733  0.00  0.00    +0.000 C 
BRANCH  12  14
ATOM     14  C   UNL     1       7.246   5.096  17.988  0.00  0.00    +0.000 C 
ATOM     15  O   UNL     1       7.971   4.672  18.897  0.00  0.00    +0.000 OA
BRANCH  14  16
ATOM     16  C   UNL     1       7.161   6.566  17.613  0.00  0.00    +0.000 C 
ATOM     17  F   UNL     1       7.831   7.380  18.478  0.00  0.00    +0.000 F 
ATOM     18  F   UNL     1       7.704   6.811  16.387  0.00  0.00    +0.000 F 
ATOM     19  F   UNL     1       5.883   7.028  17.568  0.00  0.00    +0.000 F 
ENDBRANCH  14  16
ENDBRANCH  12  14
ENDBRANCH  10  12
ENDBRANCH   7   8
BRANCH   1  20
ATOM     20  C   UNL     1       2.019   7.472  18.899  0.00  0.00    +0.000 C 
ATOM     21  C   UNL     1       2.656   8.299  17.786  0.00  0.00    +0.000 C 
BRANCH  20  24
ATOM     22  C   UNL     1       0.893   9.338  20.104  0.00  0.00    +0.000 C 
ATOM     23  O   UNL     1       0.268   9.681  19.100  0.00  0.00    +0.000 OA
ATOM     24  N   UNL     1       1.821   8.321  20.077  0.00  0.00    +0.000 N 
ATOM     25  H   UNL     1       2.187   7.987  20.964  0.00  0.00    +0.000 HD
BRANCH  22  33
ATOM     26  C   UNL     1      -0.057  13.839  20.892  0.00  0.00    +0.000 C 
ATOM     27  C   UNL     1       0.698  12.540  20.778  0.00  0.00    +0.000 C 
ATOM     28  O   UNL     1       1.815  12.504  20.266  0.00  0.00    +0.000 OA
ATOM     29  N   UNL     1       0.090  11.417  21.289  0.00  0.00    +0.000 N 
ATOM     30  C   UNL     1      -1.163  11.346  22.016  0.00  0.00    +0.000 C 
ATOM     31  C   UNL     1      -0.865  10.357  23.131  0.00  0.00    +0.000 C 
ATOM     32  C   UNL     1       0.106   9.368  22.496  0.00  0.00    +0.000 C 
ATOM     33  C   UNL     1       0.845  10.163  21.410  0.00  0.00    +0.000 C 
ENDBRANCH  22  33
ENDBRANCH  20  24
ENDBRANCH   1  20
TORSDOF 7
ENDMDL
MODEL 3
REMARK VINA RESULT:      -7.3      3.945      8.336
REMARK  Name = 
REMARK  10 active torsions:
REMARK  status: ('A' for Active; 'I' for Inactive)
REMARK    1  A    between atoms: C_1  and  C_2
REMARK    2  A    between atoms: C_8  and  C_9
REMARK    3  A    between atoms: N_11  and  C_12
REMARK    4  A    between atoms: C_12  and  C_13
REMARK    5  A    between atoms: C_12  and  C_14
REMARK    6  A    between atoms: C_20  and  C_21
REMARK    7  A    between atoms: N_23  and  C_24
REMARK    8  A    between atoms: C_24  and  C_25
REMARK    9  A    between atoms: C_24  and  C_26
REMARK   10  A    between atoms: C_26  and  C_28
REMARK                            x       y       z     vdW  Elec       q    Type
REMARK                         _______ _______ _______ _____ _____    ______ ____
ROOT
ATOM      1  C   UNL     1       1.734   9.004  18.423  0.00  0.00    +0.000 C 
ATOM      2  O   UNL     1       1.438   9.575  17.365  0.00  0.00    +0.000 OA
ATOM      3  N   UNL     1       1.106   9.345  19.606  0.00  0.00    +0.000 N 
ATOM      4  C   UNL     1       1.371   8.819  20.932  0.00  0.00    +0.000 C 
ATOM      5  C   UNL     1      -0.005   8.672  21.546  0.00  0.00    +0.000 C 
ATOM      6  C   UNL     1      -0.801   9.832  20.961  0.00  0.00    +0.000 C 
ATOM      7  C   UNL     1      -0.108  10.180  19.631  0.00  0.00    +0.000 C 
ENDROOT
BRANCH   7   8
ATOM      8  C   UNL     1       0.204  11.694  19.546  0.00  0.00    +0.000 C 
ATOM      9  O   UNL     1      -0.534  12.518  19.001  0.00  0.00    +0.000 OA
ATOM     10  N   UNL     1       1.438  12.063  20.031  0.00  0.00    +0.000 N 
ATOM     11  H   UNL     1       2.110  11.313  20.209  0.00  0.00    +0.000 HD
BRANCH  10  12
ATOM     12  C   UNL     1       1.901  13.437  19.880  0.00  0.00    +0.000 C 
ATOM     13  C   UNL     1       2.728  13.854  21.086  0.00  0.00    +0.000 C 
BRANCH  12  14
ATOM     14  C   UNL     1       2.730  13.590  18.602  0.00  0.00    +0.000 C 
ATOM     15  O   UNL     1       3.085  12.606  17.941  0.00  0.00    +0.000 OA
BRANCH  14  16
ATOM     16  C   UNL     1       3.140  15.011  18.257  0.00  0.00    +0.000 C 
ATOM     17  F   UNL     1       2.235  15.945  18.666  0.00  0.00    +0.000 F 
ATOM     18  F   UNL     1       4.316  15.360  18.851  0.00  0.00    +0.000 F 
ATOM     19  F   UNL     1       3.310  15.205  16.922  0.00  0.00    +0.000 F 
ENDBRANCH  14  16
ENDBRANCH  12  14
ENDBRANCH  10  12
ENDBRANCH   7   8
BRANCH   1  20
ATOM     20  C   UNL     1       2.813   7.884  18.440  0.00  0.00    +0.000 C 
ATOM     21  C   UNL     1       3.646   7.843  17.162  0.00  0.00    +0.000 C 
BRANCH  20  24
ATOM     22  C   UNL     1       2.726   5.563  19.339  0.00  0.00    +0.000 C 
ATOM     23  O   UNL     1       3.885   5.622  19.752  0.00  0.00    +0.000 OA
ATOM     24  N   UNL     1       2.150   6.590  18.624  0.00  0.00    +0.000 N 
ATOM     25  H   UNL     1       1.150   6.544  18.446  0.00  0.00    +0.000 HD
BRANCH  22  33
ATOM     26  C   UNL     1       3.893   1.142  18.404  0.00  0.00    +0.000 C 
ATOM     27  C   UNL     1       3.246   2.499  18.298  0.00  0.00    +0.000 C 
ATOM     28  O   UNL     1       3.165   3.074  17.215  0.00  0.00    +0.000 OA
ATOM     29  N   UNL     1       2.740   3.042  19.456  0.00  0.00    +0.000 N 
ATOM     30  C   UNL     1       2.669   2.420  20.764  0.00  0.00    +0.000 C 
ATOM     31  C   UNL     1       1.293   2.822  21.269  0.00  0.00    +0.000 C 
ATOM     32  C   UNL     1       1.083   4.217  20.692  0.00  0.00    +0.000 C 
ATOM     33  C   UNL     1       1.910   4.252  19.398  0.00  0.00    +0.000 C 
ENDBRANCH  22  33
ENDBRANCH  20  24
ENDBRANCH   1  20
TORSDOF 7
ENDMDL
MODEL 4
REMARK VINA RESULT:      -7.2      1.265      1.445
REMARK  Name = 
REMARK  10 active torsions:
REMARK  status: ('A' for Active; 'I' for Inactive)
REMARK    1  A    between atoms: C_1  and  C_2
REMARK    2  A    between atoms: C_8  and  C_9
REMARK    3  A    between atoms: N_11  and  C_12
REMARK    4  A    between atoms: C_12  and  C_13
REMARK    5  A    between atoms: C_12  and  C_14
REMARK    6  A    between atoms: C_20  and  C_21
REMARK    7  A    between atoms: N_23  and  C_24
REMARK    8  A    between atoms: C_24  and  C_25
REMARK    9  A    between atoms: C_24  and  C_26
REMARK   10  A    between atoms: C_26  and  C_28
REMARK                            x       y       z     vdW  Elec       q    Type
REMARK                         _______ _______ _______ _____ _____    ______ ____
ROOT
ATOM      1  C   UNL     1       2.963   6.366  19.463  0.00  0.00    +0.000 C 
ATOM      2  O   UNL     1       4.144   6.655  19.697  0.00  0.00    +0.000 OA
ATOM      3  N   UNL     1       2.527   5.058  19.553  0.00  0.00    +0.000 N 
ATOM      4  C   UNL     1       1.203   4.543  19.259  0.00  0.00    +0.000 C 
ATOM      5  C   UNL     1       0.959   3.522  20.350  0.00  0.00    +0.000 C 
ATOM      6  C   UNL     1       2.336   2.927  20.619  0.00  0.00    +0.000 C 
ATOM      7  C   UNL     1       3.344   4.006  20.184  0.00  0.00    +0.000 C 
ENDROOT
BRANCH   7   8
ATOM      8  C   UNL     1       4.409   3.418  19.226  0.00  0.00    +0.000 C 
ATOM      9  O   UNL     1       5.039   2.382  19.452  0.00  0.00    +0.000 OA
ATOM     10  N   UNL     1       4.698   4.196  18.128  0.00  0.00    +0.000 N 
ATOM     11  H   UNL     1       4.356   5.159  18.139  0.00  0.00    +0.000 HD
BRANCH  10  12
ATOM     12  C   UNL     1       5.779   3.816  17.227  0.00  0.00    +0.000 C 
ATOM     13  C   UNL     1       5.332   3.937  15.779  0.00  0.00    +0.000 C 
BRANCH  12  14
ATOM     14  C   UNL     1       7.013   4.690  17.466  0.00  0.00    +0.000 C 
ATOM     15  O   UNL     1       7.924   4.329  18.223  0.00  0.00    +0.000 OA
BRANCH  14  16
ATOM     16  C   UNL     1       6.997   6.043  16.776  0.00  0.00    +0.000 C 
ATOM     17  F   UNL     1       5.781   6.657  16.827  0.00  0.00    +0.000 F 
ATOM     18  F   UNL     1       7.871   6.918  17.350  0.00  0.00    +0.000 F 
ATOM     19  F   UNL     1       7.332   5.970  15.460  0.00  0.00    +0.000 F 
ENDBRANCH  14  16
ENDBRANCH  12  14
ENDBRANCH  10  12
ENDBRANCH   7   8
BRANCH   1  20
ATOM     20  C   UNL     1       1.943   7.473  19.071  0.00  0.00    +0.000 C 
ATOM     21  C   UNL     1       2.395   8.297  17.869  0.00  0.00    +0.000 C 
BRANCH  20  24
ATOM     22  C   UNL     1       0.763   9.328  20.240  0.00  0.00    +0.000 C 
ATOM     23  O   UNL     1       0.081   9.591  19.249  0.00  0.00    +0.000 OA
ATOM     24  N   UNL     1       1.745   8.362  20.218  0.00  0.00    +0.000 N 
ATOM     25  H   UNL     1       2.164   8.089  21.103  0.00  0.00    +0.000 HD
BRANCH  22  33
ATOM     26  C   UNL     1       0.053  13.904  20.816  0.00  0.00    +0.000 C 
ATOM     27  C   UNL     1       0.734  12.561  20.779  0.00  0.00    +0.000 C 
ATOM     28  O   UNL     1       1.864  12.440  20.309  0.00  0.00    +0.000 OA
ATOM     29  N   UNL     1       0.045  11.497  21.313  0.00  0.00    +0.000 N 
ATOM     30  C   UNL     1      -1.233  11.528  21.997  0.00  0.00    +0.000 C 
ATOM     31  C   UNL     1      -1.031  10.570  23.160  0.00  0.00    +0.000 C 
ATOM     32  C   UNL     1      -0.100   9.502  22.599  0.00  0.00    +0.000 C 
ATOM     33  C   UNL     1       0.721  10.208  21.509  0.00  0.00    +0.000 C 
ENDBRANCH  22  33
ENDBRANCH  20  24
ENDBRANCH   1  20
TORSDOF 7
ENDMDL
MODEL 5
REMARK VINA RESULT:      -7.2      3.598      8.491
REMARK  Name = 
REMARK  10 active torsions:
REMARK  status: ('A' for Active; 'I' for Inactive)
REMARK    1  A    between atoms: C_1  and  C_2
REMARK    2  A    between atoms: C_8  and  C_9
REMARK    3  A    between atoms: N_11  and  C_12
REMARK    4  A    between atoms: C_12  and  C_13
REMARK    5  A    between atoms: C_12  and  C_14
REMARK    6  A    between atoms: C_20  and  C_21
REMARK    7  A    between atoms: N_23  and  C_24
REMARK    8  A    between atoms: C_24  and  C_25
REMARK    9  A    between atoms: C_24  and  C_26
REMARK   10  A    between atoms: C_26  and  C_28
REMARK                            x       y       z     vdW  Elec       q    Type
REMARK                         _______ _______ _______ _____ _____    ______ ____
ROOT
ATOM      1  C   UNL     1       1.235   9.184  19.049  0.00  0.00    +0.000 C 
ATOM      2  O   UNL     1       0.625   9.617  18.061  0.00  0.00    +0.000 OA
ATOM      3  N   UNL     1       0.915   9.622  20.320  0.00  0.00    +0.000 N 
ATOM      4  C   UNL     1       1.561   9.262  21.568  0.00  0.00    +0.000 C 
ATOM      5  C   UNL     1       0.412   9.113  22.542  0.00  0.00    +0.000 C 
ATOM      6  C   UNL     1      -0.601  10.157  22.088  0.00  0.00    +0.000 C 
ATOM      7  C   UNL     1      -0.313  10.390  20.594  0.00  0.00    +0.000 C 
ENDROOT
BRANCH   7   8
ATOM      8  C   UNL     1      -0.157  11.899  20.286  0.00  0.00    +0.000 C 
ATOM      9  O   UNL     1      -0.836  12.503  19.451  0.00  0.00    +0.000 OA
ATOM     10  N   UNL     1       0.882  12.523  20.937  0.00  0.00    +0.000 N 
ATOM     11  H   UNL     1       1.572  11.921  21.392  0.00  0.00    +0.000 HD
BRANCH  10  12
ATOM     12  C   UNL     1       1.214  13.907  20.625  0.00  0.00    +0.000 C 
ATOM     13  C   UNL     1       1.096  14.775  21.867  0.00  0.00    +0.000 C 
BRANCH  12  14
ATOM     14  C   UNL     1       2.630  14.007  20.052  0.00  0.00    +0.000 C 
ATOM     15  O   UNL     1       3.623  14.062  20.789  0.00  0.00    +0.000 OA
BRANCH  14  16
ATOM     16  C   UNL     1       2.716  14.108  18.539  0.00  0.00    +0.000 C 
ATOM     17  F   UNL     1       1.794  13.336  17.896  0.00  0.00    +0.000 F 
ATOM     18  F   UNL     1       2.495  15.380  18.100  0.00  0.00    +0.000 F 
ATOM     19  F   UNL     1       3.930  13.737  18.050  0.00  0.00    +0.000 F 
ENDBRANCH  14  16
ENDBRANCH  12  14
ENDBRANCH  10  12
ENDBRANCH   7   8
BRANCH   1  20
ATOM     20  C   UNL     1       2.366   8.132  18.878  0.00  0.00    +0.000 C 
ATOM     21  C   UNL     1       3.089   8.249  17.539  0.00  0.00    +0.000 C 
BRANCH  20  24
ATOM     22  C   UNL     1       2.528   5.703  19.407  0.00  0.00    +0.000 C 
ATOM     23  O   UNL     1       3.747   5.765  19.569  0.00  0.00    +0.000 OA
ATOM     24  N   UNL     1       1.788   6.791  18.997  0.00  0.00    +0.000 N 
ATOM     25  H   UNL     1       0.775   6.716  19.030  0.00  0.00    +0.000 HD
BRANCH  22  33
ATOM     26  C   UNL     1       3.799   1.413  18.081  0.00  0.00    +0.000 C 
ATOM     27  C   UNL     1       3.091   2.742  18.119  0.00  0.00    +0.000 C 
ATOM     28  O   UNL     1       2.901   3.384  17.087  0.00  0.00    +0.000 OA
ATOM     29  N   UNL     1       2.654   3.183  19.346  0.00  0.00    +0.000 N 
ATOM     30  C   UNL     1       2.711   2.473  20.610  0.00  0.00    +0.000 C 
ATOM     31  C   UNL     1       1.364   2.777  21.243  0.00  0.00    +0.000 C 
ATOM     32  C   UNL     1       1.052   4.196  20.782  0.00  0.00    +0.000 C 
ATOM     33  C   UNL     1       1.773   4.355  19.435  0.00  0.00    +0.000 C 
ENDBRANCH  22  33
ENDBRANCH  20  24
ENDBRANCH   1  20
TORSDOF 7
ENDMDL
MODEL 6
REMARK VINA RESULT:      -7.1      4.240      8.824
REMARK  Name = 
REMARK  10 active torsions:
REMARK  status: ('A' for Active; 'I' for Inactive)
REMARK    1  A    between atoms: C_1  and  C_2
REMARK    2  A    between atoms: C_8  and  C_9
REMARK    3  A    between atoms: N_11  and  C_12
REMARK    4  A    between atoms: C_12  and  C_13
REMARK    5  A    between atoms: C_12  and  C_14
REMARK    6  A    between atoms: C_20  and  C_21
REMARK    7  A    between atoms: N_23  and  C_24
REMARK    8  A    between atoms: C_24  and  C_25
REMARK    9  A    between atoms: C_24  and  C_26
REMARK   10  A    between atoms: C_26  and  C_28
REMARK                            x       y       z     vdW  Elec       q    Type
REMARK                         _______ _______ _______ _____ _____    ______ ____
ROOT
ATOM      1  C   UNL     1       2.017   6.707  20.214  0.00  0.00    +0.000 C 
ATOM      2  O   UNL     1       1.794   7.036  21.387  0.00  0.00    +0.000 OA
ATOM      3  N   UNL     1       1.926   7.634  19.194  0.00  0.00    +0.000 N 
ATOM      4  C   UNL     1       2.099   7.404  17.772  0.00  0.00    +0.000 C 
ATOM      5  C   UNL     1       2.866   8.620  17.298  0.00  0.00    +0.000 C 
ATOM      6  C   UNL     1       2.348   9.754  18.175  0.00  0.00    +0.000 C 
ATOM      7  C   UNL     1       1.835   9.080  19.461  0.00  0.00    +0.000 C 
ENDROOT
BRANCH   7   8
ATOM      8  C   UNL     1       0.395   9.540  19.793  0.00  0.00    +0.000 C 
ATOM      9  O   UNL     1      -0.225   9.184  20.798  0.00  0.00    +0.000 OA
ATOM     10  N   UNL     1      -0.212  10.304  18.822  0.00  0.00    +0.000 N 
ATOM     11  H   UNL     1       0.238  10.331  17.905  0.00  0.00    +0.000 HD
BRANCH  10  12
ATOM     12  C   UNL     1      -1.613  10.680  18.959  0.00  0.00    +0.000 C 
ATOM     13  C   UNL     1      -1.750  11.903  19.852  0.00  0.00    +0.000 C 
BRANCH  12  14
ATOM     14  C   UNL     1      -2.232  10.965  17.588  0.00  0.00    +0.000 C 
ATOM     15  O   UNL     1      -1.904  11.958  16.926  0.00  0.00    +0.000 OA
BRANCH  14  16
ATOM     16  C   UNL     1      -3.313   9.994  17.146  0.00  0.00    +0.000 C 
ATOM     17  F   UNL     1      -3.490   8.957  18.014  0.00  0.00    +0.000 F 
ATOM     18  F   UNL     1      -4.531  10.599  17.048  0.00  0.00    +0.000 F 
ATOM     19  F   UNL     1      -3.061   9.436  15.932  0.00  0.00    +0.000 F 
ENDBRANCH  14  16
ENDBRANCH  12  14
ENDBRANCH  10  12
ENDBRANCH   7   8
BRANCH   1  20
ATOM     20  C   UNL     1       2.415   5.244  19.869  0.00  0.00    +0.000 C 
ATOM     21  C   UNL     1       2.157   4.271  21.015  0.00  0.00    +0.000 C 
BRANCH  20  24
ATOM     22  C   UNL     1       4.315   4.497  18.441  0.00  0.00    +0.000 C 
ATOM     23  O   UNL     1       3.596   3.741  17.786  0.00  0.00    +0.000 OA
ATOM     24  N   UNL     1       3.838   5.210  19.520  0.00  0.00    +0.000 N 
ATOM     25  H   UNL     1       4.438   5.926  19.919  0.00  0.00    +0.000 HD
BRANCH  22  33
ATOM     26  C   UNL     1       6.930   4.960  14.603  0.00  0.00    +0.000 C 
ATOM     27  C   UNL     1       6.282   4.358  15.823  0.00  0.00    +0.000 C 
ATOM     28  O   UNL     1       5.815   3.221  15.792  0.00  0.00    +0.000 OA
ATOM     29  N   UNL     1       6.262   5.126  16.964  0.00  0.00    +0.000 N 
ATOM     30  C   UNL     1       6.877   6.425  17.163  0.00  0.00    +0.000 C 
ATOM     31  C   UNL     1       7.469   6.321  18.559  0.00  0.00    +0.000 C 
ATOM     32  C   UNL     1       6.484   5.433  19.311  0.00  0.00    +0.000 C 
ATOM     33  C   UNL     1       5.846   4.534  18.242  0.00  0.00    +0.000 C 
ENDBRANCH  22  33
ENDBRANCH  20  24
ENDBRANCH   1  20
TORSDOF 7
ENDMDL
MODEL 7
REMARK VINA RESULT:      -7.1      3.241      5.324
REMARK  Name = 
REMARK  10 active torsions:
REMARK  status: ('A' for Active; 'I' for Inactive)
REMARK    1  A    between atoms: C_1  and  C_2
REMARK    2  A    between atoms: C_8  and  C_9
REMARK    3  A    between atoms: N_11  and  C_12
REMARK    4  A    between atoms: C_12  and  C_13
REMARK    5  A    between atoms: C_12  and  C_14
REMARK    6  A    between atoms: C_20  and  C_21
REMARK    7  A    between atoms: N_23  and  C_24
REMARK    8  A    between atoms: C_24  and  C_25
REMARK    9  A    between atoms: C_24  and  C_26
REMARK   10  A    between atoms: C_26  and  C_28
REMARK                            x       y       z     vdW  Elec       q    Type
REMARK                         _______ _______ _______ _____ _____    ______ ____
ROOT
ATOM      1  C   UNL     1       0.658  11.239  19.141  0.00  0.00    +0.000 C 
ATOM      2  O   UNL     1       1.742  11.519  18.613  0.00  0.00    +0.000 OA
ATOM      3  N   UNL     1       0.468  10.015  19.751  0.00  0.00    +0.000 N 
ATOM      4  C   UNL     1      -0.747   9.509  20.362  0.00  0.00    +0.000 C 
ATOM      5  C   UNL     1      -0.259   8.795  21.604  0.00  0.00    +0.000 C 
ATOM      6  C   UNL     1       1.091   8.217  21.198  0.00  0.00    +0.000 C 
ATOM      7  C   UNL     1       1.592   9.109  20.048  0.00  0.00    +0.000 C 
ENDROOT
BRANCH   7   8
ATOM      8  C   UNL     1       2.014   8.256  18.826  0.00  0.00    +0.000 C 
ATOM      9  O   UNL     1       1.666   8.497  17.668  0.00  0.00    +0.000 OA
ATOM     10  N   UNL     1       2.730   7.120  19.127  0.00  0.00    +0.000 N 
ATOM     11  H   UNL     1       2.746   6.828  20.107  0.00  0.00    +0.000 HD
BRANCH  10  12
ATOM     12  C   UNL     1       3.064   6.167  18.076  0.00  0.00    +0.000 C 
ATOM     13  C   UNL     1       4.498   6.371  17.611  0.00  0.00    +0.000 C 
BRANCH  12  14
ATOM     14  C   UNL     1       2.876   4.731  18.570  0.00  0.00    +0.000 C 
ATOM     15  O   UNL     1       3.559   4.271  19.494  0.00  0.00    +0.000 OA
BRANCH  14  16
ATOM     16  C   UNL     1       1.858   3.905  17.802  0.00  0.00    +0.000 C 
ATOM     17  F   UNL     1       0.922   4.665  17.165  0.00  0.00    +0.000 F 
ATOM     18  F   UNL     1       2.444   3.155  16.826  0.00  0.00    +0.000 F 
ATOM     19  F   UNL     1       1.171   3.039  18.594  0.00  0.00    +0.000 F 
ENDBRANCH  14  16
ENDBRANCH  12  14
ENDBRANCH  10  12
ENDBRANCH   7   8
BRANCH   1  20
ATOM     20  C   UNL     1      -0.510  12.266  19.135  0.00  0.00    +0.000 C 
ATOM     21  C   UNL     1      -0.191  13.523  18.332  0.00  0.00    +0.000 C 
BRANCH  20  24
ATOM     22  C   UNL     1      -2.111  12.760  20.978  0.00  0.00    +0.000 C 
ATOM     23  O   UNL     1      -3.083  12.689  20.225  0.00  0.00    +0.000 OA
ATOM     24  N   UNL     1      -0.818  12.641  20.517  0.00  0.00    +0.000 N 
ATOM     25  H   UNL     1      -0.074  12.557  21.205  0.00  0.00    +0.000 HD
BRANCH  22  33
ATOM     26  C   UNL     1      -4.036  16.559  22.886  0.00  0.00    +0.000 C 
ATOM     27  C   UNL     1      -3.007  15.554  22.439  0.00  0.00    +0.000 C 
ATOM     28  O   UNL     1      -1.953  15.920  21.922  0.00  0.00    +0.000 OA
ATOM     29  N   UNL     1      -3.293  14.227  22.658  0.00  0.00    +0.000 N 
ATOM     30  C   UNL     1      -4.438  13.675  23.357  0.00  0.00    +0.000 C 
ATOM     31  C   UNL     1      -3.835  12.551  24.183  0.00  0.00    +0.000 C 
ATOM     32  C   UNL     1      -2.707  12.016  23.308  0.00  0.00    +0.000 C 
ATOM     33  C   UNL     1      -2.256  13.207  22.449  0.00  0.00    +0.000 C 
ENDBRANCH  22  33
ENDBRANCH  20  24
ENDBRANCH   1  20
TORSDOF 7
ENDMDL
MODEL 8
REMARK VINA RESULT:      -7.0      3.031      5.123
REMARK  Name = 
REMARK  10 active torsions:
REMARK  status: ('A' for Active; 'I' for Inactive)
REMARK    1  A    between atoms: C_1  and  C_2
REMARK    2  A    between atoms: C_8  and  C_9
REMARK    3  A    between atoms: N_11  and  C_12
REMARK    4  A    between atoms: C_12  and  C_13
REMARK    5  A    between atoms: C_12  and  C_14
REMARK    6  A    between atoms: C_20  and  C_21
REMARK    7  A    between atoms: N_23  and  C_24
REMARK    8  A    between atoms: C_24  and  C_25
REMARK    9  A    between atoms: C_24  and  C_26
REMARK   10  A    between atoms: C_26  and  C_28
REMARK                            x       y       z     vdW  Elec       q    Type
REMARK                         _______ _______ _______ _____ _____    ______ ____
ROOT
ATOM      1  C   UNL     1       0.834  11.193  19.352  0.00  0.00    +0.000 C 
ATOM      2  O   UNL     1       1.926  11.478  18.842  0.00  0.00    +0.000 OA
ATOM      3  N   UNL     1       0.596   9.923  19.841  0.00  0.00    +0.000 N 
ATOM      4  C   UNL     1      -0.635   9.411  20.412  0.00  0.00    +0.000 C 
ATOM      5  C   UNL     1      -0.169   8.558  21.573  0.00  0.00    +0.000 C 
ATOM      6  C   UNL     1       1.151   7.967  21.096  0.00  0.00    +0.000 C 
ATOM      7  C   UNL     1       1.682   8.946  20.033  0.00  0.00    +0.000 C 
ENDROOT
BRANCH   7   8
ATOM      8  C   UNL     1       2.057   8.201  18.728  0.00  0.00    +0.000 C 
ATOM      9  O   UNL     1       1.581   8.471  17.623  0.00  0.00    +0.000 OA
ATOM     10  N   UNL     1       2.894   7.121  18.893  0.00  0.00    +0.000 N 
ATOM     11  H   UNL     1       3.028   6.780  19.847  0.00  0.00    +0.000 HD
BRANCH  10  12
ATOM     12  C   UNL     1       3.207   6.260  17.760  0.00  0.00    +0.000 C 
ATOM     13  C   UNL     1       4.582   6.594  17.203  0.00  0.00    +0.000 C 
BRANCH  12  14
ATOM     14  C   UNL     1       3.156   4.787  18.171  0.00  0.00    +0.000 C 
ATOM     15  O   UNL     1       4.188   4.146  18.409  0.00  0.00    +0.000 OA
BRANCH  14  16
ATOM     16  C   UNL     1       1.771   4.163  18.189  0.00  0.00    +0.000 C 
ATOM     17  F   UNL     1       1.117   4.342  19.372  0.00  0.00    +0.000 F 
ATOM     18  F   UNL     1       0.957   4.703  17.238  0.00  0.00    +0.000 F 
ATOM     19  F   UNL     1       1.790   2.822  17.964  0.00  0.00    +0.000 F 
ENDBRANCH  14  16
ENDBRANCH  12  14
ENDBRANCH  10  12
ENDBRANCH   7   8
BRANCH   1  20
ATOM     20  C   UNL     1      -0.289  12.264  19.461  0.00  0.00    +0.000 C 
ATOM     21  C   UNL     1       0.033  13.542  18.692  0.00  0.00    +0.000 C 
BRANCH  20  24
ATOM     22  C   UNL     1      -1.751  12.678  21.434  0.00  0.00    +0.000 C 
ATOM     23  O   UNL     1      -2.776  12.618  20.754  0.00  0.00    +0.000 OA
ATOM     24  N   UNL     1      -0.495  12.591  20.874  0.00  0.00    +0.000 N 
ATOM     25  H   UNL     1       0.299  12.495  21.501  0.00  0.00    +0.000 HD
BRANCH  22  33
ATOM     26  C   UNL     1      -0.870  16.725  23.585  0.00  0.00    +0.000 C 
ATOM     27  C   UNL     1      -0.739  15.296  23.128  0.00  0.00    +0.000 C 
ATOM     28  O   UNL     1       0.349  14.846  22.773  0.00  0.00    +0.000 OA
ATOM     29  N   UNL     1      -1.878  14.525  23.149  0.00  0.00    +0.000 N 
ATOM     30  C   UNL     1      -3.186  14.900  23.651  0.00  0.00    +0.000 C 
ATOM     31  C   UNL     1      -3.647  13.654  24.391  0.00  0.00    +0.000 C 
ATOM     32  C   UNL     1      -3.058  12.506  23.579  0.00  0.00    +0.000 C 
ATOM     33  C   UNL     1      -1.790  13.076  22.926  0.00  0.00    +0.000 C 
ENDBRANCH  22  33
ENDBRANCH  20  24
ENDBRANCH   1  20
TORSDOF 7
ENDMDL
MODEL 9
REMARK VINA RESULT:      -7.0      3.213      5.622
REMARK  Name = 
REMARK  10 active torsions:
REMARK  status: ('A' for Active; 'I' for Inactive)
REMARK    1  A    between atoms: C_1  and  C_2
REMARK    2  A    between atoms: C_8  and  C_9
REMARK    3  A    between atoms: N_11  and  C_12
REMARK    4  A    between atoms: C_12  and  C_13
REMARK    5  A    between atoms: C_12  and  C_14
REMARK    6  A    between atoms: C_20  and  C_21
REMARK    7  A    between atoms: N_23  and  C_24
REMARK    8  A    between atoms: C_24  and  C_25
REMARK    9  A    between atoms: C_24  and  C_26
REMARK   10  A    between atoms: C_26  and  C_28
REMARK                            x       y       z     vdW  Elec       q    Type
REMARK                         _______ _______ _______ _____ _____    ______ ____
ROOT
ATOM      1  C   UNL     1       0.934  11.166  19.255  0.00  0.00    +0.000 C 
ATOM      2  O   UNL     1       2.025  11.397  18.716  0.00  0.00    +0.000 OA
ATOM      3  N   UNL     1       0.667   9.925  19.801  0.00  0.00    +0.000 N 
ATOM      4  C   UNL     1      -0.568   9.474  20.413  0.00  0.00    +0.000 C 
ATOM      5  C   UNL     1      -0.109   8.658  21.601  0.00  0.00    +0.000 C 
ATOM      6  C   UNL     1       1.186   8.008  21.130  0.00  0.00    +0.000 C 
ATOM      7  C   UNL     1       1.728   8.925  20.019  0.00  0.00    +0.000 C 
ENDROOT
BRANCH   7   8
ATOM      8  C   UNL     1       2.060   8.115  18.742  0.00  0.00    +0.000 C 
ATOM      9  O   UNL     1       1.568   8.347  17.634  0.00  0.00    +0.000 OA
ATOM     10  N   UNL     1       2.875   7.024  18.939  0.00  0.00    +0.000 N 
ATOM     11  H   UNL     1       3.021   6.723  19.904  0.00  0.00    +0.000 HD
BRANCH  10  12
ATOM     12  C   UNL     1       3.146   6.107  17.839  0.00  0.00    +0.000 C 
ATOM     13  C   UNL     1       4.537   6.350  17.275  0.00  0.00    +0.000 C 
BRANCH  12  14
ATOM     14  C   UNL     1       3.019   4.654  18.304  0.00  0.00    +0.000 C 
ATOM     15  O   UNL     1       4.003   4.012  18.693  0.00  0.00    +0.000 OA
BRANCH  14  16
ATOM     16  C   UNL     1       1.631   4.049  18.181  0.00  0.00    +0.000 C 
ATOM     17  F   UNL     1       0.891   4.604  17.179  0.00  0.00    +0.000 F 
ATOM     18  F   UNL     1       1.680   2.716  17.903  0.00  0.00    +0.000 F 
ATOM     19  F   UNL     1       0.893   4.180  19.316  0.00  0.00    +0.000 F 
ENDBRANCH  14  16
ENDBRANCH  12  14
ENDBRANCH  10  12
ENDBRANCH   7   8
BRANCH   1  20
ATOM     20  C   UNL     1      -0.156  12.273  19.335  0.00  0.00    +0.000 C 
ATOM     21  C   UNL     1      -1.017  12.350  18.078  0.00  0.00    +0.000 C 
BRANCH  20  24
ATOM     22  C   UNL     1       0.889  13.994  20.801  0.00  0.00    +0.000 C 
ATOM     23  O   UNL     1       0.594  13.377  21.826  0.00  0.00    +0.000 OA
ATOM     24  N   UNL     1       0.499  13.566  19.551  0.00  0.00    +0.000 N 
ATOM     25  H   UNL     1       0.900  14.032  18.742  0.00  0.00    +0.000 HD
BRANCH  22  33
ATOM     26  C   UNL     1       5.314  15.377  21.339  0.00  0.00    +0.000 C 
ATOM     27  C   UNL     1       3.853  15.132  21.615  0.00  0.00    +0.000 C 
ATOM     28  O   UNL     1       3.480  14.724  22.713  0.00  0.00    +0.000 OA
ATOM     29  N   UNL     1       2.970  15.407  20.597  0.00  0.00    +0.000 N 
ATOM     30  C   UNL     1       3.268  15.998  19.306  0.00  0.00    +0.000 C 
ATOM     31  C   UNL     1       2.119  16.969  19.092  0.00  0.00    +0.000 C 
ATOM     32  C   UNL     1       0.928  16.280  19.747  0.00  0.00    +0.000 C 
ATOM     33  C   UNL     1       1.524  15.401  20.856  0.00  0.00    +0.000 C 
ENDBRANCH  22  33
ENDBRANCH  20  24
ENDBRANCH   1  20
TORSDOF 7
ENDMDL
