MODEL 1
REMARK VINA RESULT:      -8.4      0.000      0.000
REMARK  Name = 
REMARK  6 active torsions:
REMARK  status: ('A' for Active; 'I' for Inactive)
REMARK    1  A    between atoms: C_4  and  O_5
REMARK    2  A    between atoms: O_5  and  C_6
REMARK    3  A    between atoms: C_6  and  C_7
REMARK    4  A    between atoms: C_11  and  O_12
REMARK    5  A    between atoms: O_12  and  C_13
REMARK    6  A    between atoms: C_13  and  C_14
REMARK                            x       y       z     vdW  Elec       q    Type
REMARK                         _______ _______ _______ _____ _____    ______ ____
ROOT
ATOM      1  O   UNL     1       0.980   7.442  21.441  0.00  0.00    +0.000 OA
ATOM      2  C   UNL     1       1.381   8.018  20.440  0.00  0.00    +0.000 A 
ATOM      3  C   UNL     1       2.209   7.295  19.457  0.00  0.00    +0.000 A 
ATOM      4  C   UNL     1       2.532   5.937  19.619  0.00  0.00    +0.000 A 
ATOM      5  C   UNL     1       3.276   5.285  18.635  0.00  0.00    +0.000 A 
ATOM      6  C   UNL     1       3.745   5.982  17.519  0.00  0.00    +0.000 A 
ATOM      7  C   UNL     1       3.460   7.346  17.392  0.00  0.00    +0.000 A 
ATOM      8  C   UNL     1       2.675   7.999  18.351  0.00  0.00    +0.000 A 
ATOM      9  O   UNL     1       2.404   9.326  18.126  0.00  0.00    +0.000 OA
ATOM     10  C   UNL     1       1.615  10.002  19.028  0.00  0.00    +0.000 A 
ATOM     11  C   UNL     1       1.370  11.341  18.726  0.00  0.00    +0.000 A 
ATOM     12  C   UNL     1       0.588  12.121  19.581  0.00  0.00    +0.000 A 
ATOM     13  C   UNL     1       0.027  11.582  20.751  0.00  0.00    +0.000 A 
ATOM     14  C   UNL     1      -0.755  12.395  21.590  0.00  0.00    +0.000 A 
ATOM     15  C   UNL     1      -1.326  11.895  22.760  0.00  0.00    +0.000 A 
ATOM     16  C   UNL     1      -1.118  10.572  23.106  0.00  0.00    +0.000 A 
ATOM     17  C   UNL     1      -0.344   9.758  22.281  0.00  0.00    +0.000 A 
ATOM     18  C   UNL     1       0.258  10.223  21.079  0.00  0.00    +0.000 A 
ATOM     19  C   UNL     1       1.068   9.442  20.187  0.00  0.00    +0.000 A 
ENDROOT
BRANCH   4  20
ATOM     20  O   UNL     1       2.001   5.251  20.675  0.00  0.00    +0.000 OA
BRANCH  20  21
ATOM     21  C   UNL     1       1.143   4.140  20.416  0.00  0.00    +0.000 C 
BRANCH  21  22
ATOM     22  C   UNL     1       1.444   3.033  21.376  0.00  0.00    +0.000 C 
ATOM     23  C   UNL     1       2.756   2.296  21.362  0.00  0.00    +0.000 C 
ATOM     24  O   UNL     1       2.485   3.330  22.318  0.00  0.00    +0.000 OA
ENDBRANCH  21  22
ENDBRANCH  20  21
ENDBRANCH   4  20
BRANCH   6  25
ATOM     25  O   UNL     1       4.493   5.427  16.512  0.00  0.00    +0.000 OA
BRANCH  25  26
ATOM     26  C   UNL     1       5.506   4.501  16.927  0.00  0.00    +0.000 C 
BRANCH  26  27
ATOM     27  C   UNL     1       6.824   5.204  16.980  0.00  0.00    +0.000 C 
ATOM     28  C   UNL     1       7.700   5.127  18.201  0.00  0.00    +0.000 C 
ATOM     29  O   UNL     1       7.957   4.324  17.041  0.00  0.00    +0.000 OA
ENDBRANCH  26  27
ENDBRANCH  25  26
ENDBRANCH   6  25
TORSDOF 6
ENDMDL
MODEL 2
REMARK VINA RESULT:      -8.3      1.740      2.289
REMARK  Name = 
REMARK  6 active torsions:
REMARK  status: ('A' for Active; 'I' for Inactive)
REMARK    1  A    between atoms: C_4  and  O_5
REMARK    2  A    between atoms: O_5  and  C_6
REMARK    3  A    between atoms: C_6  and  C_7
REMARK    4  A    between atoms: C_11  and  O_12
REMARK    5  A    between atoms: O_12  and  C_13
REMARK    6  A    between atoms: C_13  and  C_14
REMARK                            x       y       z     vdW  Elec       q    Type
REMARK                         _______ _______ _______ _____ _____    ______ ____
ROOT
ATOM      1  O   UNL     1       1.940   6.139  20.963  0.00  0.00    +0.000 OA
ATOM      2  C   UNL     1       2.292   6.655  19.912  0.00  0.00    +0.000 A 
ATOM      3  C   UNL     1       3.159   5.911  18.981  0.00  0.00    +0.000 A 
ATOM      4  C   UNL     1       3.576   4.595  19.250  0.00  0.00    +0.000 A 
ATOM      5  C   UNL     1       4.355   3.916  18.313  0.00  0.00    +0.000 A 
ATOM      6  C   UNL     1       4.765   4.547  17.137  0.00  0.00    +0.000 A 
ATOM      7  C   UNL     1       4.386   5.873  16.901  0.00  0.00    +0.000 A 
ATOM      8  C   UNL     1       3.566   6.550  17.814  0.00  0.00    +0.000 A 
ATOM      9  O   UNL     1       3.201   7.831  17.484  0.00  0.00    +0.000 OA
ATOM     10  C   UNL     1       2.376   8.525  18.337  0.00  0.00    +0.000 A 
ATOM     11  C   UNL     1       2.036   9.814  17.929  0.00  0.00    +0.000 A 
ATOM     12  C   UNL     1       1.209  10.607  18.727  0.00  0.00    +0.000 A 
ATOM     13  C   UNL     1       0.697  10.132  19.946  0.00  0.00    +0.000 A 
ATOM     14  C   UNL     1      -0.132  10.957  20.726  0.00  0.00    +0.000 A 
ATOM     15  C   UNL     1      -0.656  10.519  21.942  0.00  0.00    +0.000 A 
ATOM     16  C   UNL     1      -0.355   9.247  22.393  0.00  0.00    +0.000 A 
ATOM     17  C   UNL     1       0.467   8.421  21.628  0.00  0.00    +0.000 A 
ATOM     18  C   UNL     1       1.024   8.824  20.382  0.00  0.00    +0.000 A 
ATOM     19  C   UNL     1       1.879   8.028  19.547  0.00  0.00    +0.000 A 
ENDROOT
BRANCH   4  20
ATOM     20  O   UNL     1       3.104   3.966  20.367  0.00  0.00    +0.000 OA
BRANCH  20  21
ATOM     21  C   UNL     1       2.424   2.718  20.221  0.00  0.00    +0.000 C 
BRANCH  21  22
ATOM     22  C   UNL     1       1.003   2.959  19.821  0.00  0.00    +0.000 C 
ATOM     23  C   UNL     1       0.610   3.237  18.394  0.00  0.00    +0.000 C 
ATOM     24  O   UNL     1       0.440   1.939  18.982  0.00  0.00    +0.000 OA
ENDBRANCH  21  22
ENDBRANCH  20  21
ENDBRANCH   4  20
BRANCH   6  25
ATOM     25  O   UNL     1       5.541   3.962  16.168  0.00  0.00    +0.000 OA
BRANCH  25  26
ATOM     26  C   UNL     1       5.674   4.701  14.947  0.00  0.00    +0.000 C 
BRANCH  26  27
ATOM     27  C   UNL     1       7.008   4.413  14.340  0.00  0.00    +0.000 C 
ATOM     28  C   UNL     1       7.388   4.965  12.992  0.00  0.00    +0.000 C 
ATOM     29  O   UNL     1       7.856   5.565  14.208  0.00  0.00    +0.000 OA
ENDBRANCH  26  27
ENDBRANCH  25  26
ENDBRANCH   6  25
TORSDOF 6
ENDMDL
MODEL 3
REMARK VINA RESULT:      -8.2      1.872      2.560
REMARK  Name = 
REMARK  6 active torsions:
REMARK  status: ('A' for Active; 'I' for Inactive)
REMARK    1  A    between atoms: C_4  and  O_5
REMARK    2  A    between atoms: O_5  and  C_6
REMARK    3  A    between atoms: C_6  and  C_7
REMARK    4  A    between atoms: C_11  and  O_12
REMARK    5  A    between atoms: O_12  and  C_13
REMARK    6  A    between atoms: C_13  and  C_14
REMARK                            x       y       z     vdW  Elec       q    Type
REMARK                         _______ _______ _______ _____ _____    ______ ____
ROOT
ATOM      1  O   UNL     1       2.238   6.035  20.684  0.00  0.00    +0.000 OA
ATOM      2  C   UNL     1       2.566   6.603  19.652  0.00  0.00    +0.000 A 
ATOM      3  C   UNL     1       3.478   5.939  18.704  0.00  0.00    +0.000 A 
ATOM      4  C   UNL     1       3.967   4.641  18.935  0.00  0.00    +0.000 A 
ATOM      5  C   UNL     1       4.788   4.037  17.982  0.00  0.00    +0.000 A 
ATOM      6  C   UNL     1       5.168   4.727  16.829  0.00  0.00    +0.000 A 
ATOM      7  C   UNL     1       4.716   6.037  16.633  0.00  0.00    +0.000 A 
ATOM      8  C   UNL     1       3.855   6.637  17.561  0.00  0.00    +0.000 A 
ATOM      9  O   UNL     1       3.420   7.905  17.269  0.00  0.00    +0.000 OA
ATOM     10  C   UNL     1       2.553   8.525  18.138  0.00  0.00    +0.000 A 
ATOM     11  C   UNL     1       2.143   9.805  17.768  0.00  0.00    +0.000 A 
ATOM     12  C   UNL     1       1.269  10.525  18.586  0.00  0.00    +0.000 A 
ATOM     13  C   UNL     1       0.778   9.983  19.786  0.00  0.00    +0.000 A 
ATOM     14  C   UNL     1      -0.100  10.735  20.586  0.00  0.00    +0.000 A 
ATOM     15  C   UNL     1      -0.605  10.229  21.783  0.00  0.00    +0.000 A 
ATOM     16  C   UNL     1      -0.235   8.962  22.196  0.00  0.00    +0.000 A 
ATOM     17  C   UNL     1       0.636   8.208  21.410  0.00  0.00    +0.000 A 
ATOM     18  C   UNL     1       1.176   8.682  20.182  0.00  0.00    +0.000 A 
ATOM     19  C   UNL     1       2.078   7.962  19.328  0.00  0.00    +0.000 A 
ENDROOT
BRANCH   4  20
ATOM     20  O   UNL     1       3.525   3.950  20.027  0.00  0.00    +0.000 OA
BRANCH  20  21
ATOM     21  C   UNL     1       3.315   2.542  19.916  0.00  0.00    +0.000 C 
BRANCH  21  22
ATOM     22  C   UNL     1       1.905   2.210  20.289  0.00  0.00    +0.000 C 
ATOM     23  C   UNL     1       1.297   2.651  21.595  0.00  0.00    +0.000 C 
ATOM     24  O   UNL     1       1.028   3.343  20.368  0.00  0.00    +0.000 OA
ENDBRANCH  21  22
ENDBRANCH  20  21
ENDBRANCH   4  20
BRANCH   6  25
ATOM     25  O   UNL     1       5.980   4.218  15.848  0.00  0.00    +0.000 OA
BRANCH  25  26
ATOM     26  C   UNL     1       5.625   4.566  14.503  0.00  0.00    +0.000 C 
BRANCH  26  27
ATOM     27  C   UNL     1       6.279   3.610  13.558  0.00  0.00    +0.000 C 
ATOM     28  C   UNL     1       5.690   3.329  12.202  0.00  0.00    +0.000 C 
ATOM     29  O   UNL     1       6.799   4.223  12.368  0.00  0.00    +0.000 OA
ENDBRANCH  26  27
ENDBRANCH  25  26
ENDBRANCH   6  25
TORSDOF 6
ENDMDL
MODEL 4
REMARK VINA RESULT:      -8.1      1.221      1.462
REMARK  Name = 
REMARK  6 active torsions:
REMARK  status: ('A' for Active; 'I' for Inactive)
REMARK    1  A    between atoms: C_4  and  O_5
REMARK    2  A    between atoms: O_5  and  C_6
REMARK    3  A    between atoms: C_6  and  C_7
REMARK    4  A    between atoms: C_11  and  O_12
REMARK    5  A    between atoms: O_12  and  C_13
REMARK    6  A    between atoms: C_13  and  C_14
REMARK                            x       y       z     vdW  Elec       q    Type
REMARK                         _______ _______ _______ _____ _____    ______ ____
ROOT
ATOM      1  O   UNL     1       1.379   7.215  21.522  0.00  0.00    +0.000 OA
ATOM      2  C   UNL     1       1.616   7.757  20.452  0.00  0.00    +0.000 A 
ATOM      3  C   UNL     1       2.431   7.063  19.440  0.00  0.00    +0.000 A 
ATOM      4  C   UNL     1       2.926   5.764  19.653  0.00  0.00    +0.000 A 
ATOM      5  C   UNL     1       3.651   5.131  18.642  0.00  0.00    +0.000 A 
ATOM      6  C   UNL     1       3.930   5.792  17.445  0.00  0.00    +0.000 A 
ATOM      7  C   UNL     1       3.474   7.102  17.262  0.00  0.00    +0.000 A 
ATOM      8  C   UNL     1       2.708   7.732  18.252  0.00  0.00    +0.000 A 
ATOM      9  O   UNL     1       2.261   8.999  17.973  0.00  0.00    +0.000 OA
ATOM     10  C   UNL     1       1.483   9.647  18.904  0.00  0.00    +0.000 A 
ATOM     11  C   UNL     1       1.053  10.924  18.545  0.00  0.00    +0.000 A 
ATOM     12  C   UNL     1       0.265  11.671  19.423  0.00  0.00    +0.000 A 
ATOM     13  C   UNL     1      -0.119  11.160  20.674  0.00  0.00    +0.000 A 
ATOM     14  C   UNL     1      -0.913  11.939  21.534  0.00  0.00    +0.000 A 
ATOM     15  C   UNL     1      -1.311  11.464  22.784  0.00  0.00    +0.000 A 
ATOM     16  C   UNL     1      -0.917  10.203  23.189  0.00  0.00    +0.000 A 
ATOM     17  C   UNL     1      -0.129   9.422  22.344  0.00  0.00    +0.000 A 
ATOM     18  C   UNL     1       0.301   9.863  21.061  0.00  0.00    +0.000 A 
ATOM     19  C   UNL     1       1.114   9.115  20.144  0.00  0.00    +0.000 A 
ENDROOT
BRANCH   4  20
ATOM     20  O   UNL     1       2.579   5.102  20.796  0.00  0.00    +0.000 OA
BRANCH  20  21
ATOM     21  C   UNL     1       2.098   3.761  20.700  0.00  0.00    +0.000 C 
BRANCH  21  22
ATOM     22  C   UNL     1       1.003   3.689  19.683  0.00  0.00    +0.000 C 
ATOM     23  C   UNL     1       1.036   2.709  18.540  0.00  0.00    +0.000 C 
ATOM     24  O   UNL     1       0.244   2.471  19.713  0.00  0.00    +0.000 OA
ENDBRANCH  21  22
ENDBRANCH  20  21
ENDBRANCH   4  20
BRANCH   6  25
ATOM     25  O   UNL     1       4.644   5.252  16.405  0.00  0.00    +0.000 OA
BRANCH  25  26
ATOM     26  C   UNL     1       5.851   5.942  16.055  0.00  0.00    +0.000 C 
BRANCH  26  27
ATOM     27  C   UNL     1       6.848   4.957  15.537  0.00  0.00    +0.000 C 
ATOM     28  C   UNL     1       6.913   4.610  14.074  0.00  0.00    +0.000 C 
ATOM     29  O   UNL     1       7.841   5.527  14.670  0.00  0.00    +0.000 OA
ENDBRANCH  26  27
ENDBRANCH  25  26
ENDBRANCH   6  25
TORSDOF 6
ENDMDL
MODEL 5
REMARK VINA RESULT:      -8.0      1.371      1.606
REMARK  Name = 
REMARK  6 active torsions:
REMARK  status: ('A' for Active; 'I' for Inactive)
REMARK    1  A    between atoms: C_4  and  O_5
REMARK    2  A    between atoms: O_5  and  C_6
REMARK    3  A    between atoms: C_6  and  C_7
REMARK    4  A    between atoms: C_11  and  O_12
REMARK    5  A    between atoms: O_12  and  C_13
REMARK    6  A    between atoms: C_13  and  C_14
REMARK                            x       y       z     vdW  Elec       q    Type
REMARK                         _______ _______ _______ _____ _____    ______ ____
ROOT
ATOM      1  O   UNL     1       1.721   6.916  21.098  0.00  0.00    +0.000 OA
ATOM      2  C   UNL     1       1.931   7.582  20.095  0.00  0.00    +0.000 A 
ATOM      3  C   UNL     1       2.782   7.044  19.019  0.00  0.00    +0.000 A 
ATOM      4  C   UNL     1       3.345   5.757  19.094  0.00  0.00    +0.000 A 
ATOM      5  C   UNL     1       4.102   5.274  18.027  0.00  0.00    +0.000 A 
ATOM      6  C   UNL     1       4.348   6.074  16.910  0.00  0.00    +0.000 A 
ATOM      7  C   UNL     1       3.825   7.371  16.865  0.00  0.00    +0.000 A 
ATOM      8  C   UNL     1       3.026   7.850  17.911  0.00  0.00    +0.000 A 
ATOM      9  O   UNL     1       2.514   9.116  17.767  0.00  0.00    +0.000 OA
ATOM     10  C   UNL     1       1.702   9.618  18.758  0.00  0.00    +0.000 A 
ATOM     11  C   UNL     1       1.207  10.902  18.535  0.00  0.00    +0.000 A 
ATOM     12  C   UNL     1       0.380  11.509  19.483  0.00  0.00    +0.000 A 
ATOM     13  C   UNL     1       0.021  10.847  20.669  0.00  0.00    +0.000 A 
ATOM     14  C   UNL     1      -0.813  11.487  21.603  0.00  0.00    +0.000 A 
ATOM     15  C   UNL     1      -1.187  10.860  22.791  0.00  0.00    +0.000 A 
ATOM     16  C   UNL     1      -0.729   9.584  23.061  0.00  0.00    +0.000 A 
ATOM     17  C   UNL     1       0.099   8.941  22.142  0.00  0.00    +0.000 A 
ATOM     18  C   UNL     1       0.508   9.540  20.917  0.00  0.00    +0.000 A 
ATOM     19  C   UNL     1       1.360   8.938  19.931  0.00  0.00    +0.000 A 
ENDROOT
BRANCH   4  20
ATOM     20  O   UNL     1       3.031   4.959  20.158  0.00  0.00    +0.000 OA
BRANCH  20  21
ATOM     21  C   UNL     1       3.282   3.556  20.066  0.00  0.00    +0.000 C 
BRANCH  21  22
ATOM     22  C   UNL     1       2.006   2.800  20.265  0.00  0.00    +0.000 C 
ATOM     23  C   UNL     1       1.356   2.668  21.617  0.00  0.00    +0.000 C 
ATOM     24  O   UNL     1       0.886   3.613  20.645  0.00  0.00    +0.000 OA
ENDBRANCH  21  22
ENDBRANCH  20  21
ENDBRANCH   4  20
BRANCH   6  25
ATOM     25  O   UNL     1       5.091   5.687  15.823  0.00  0.00    +0.000 OA
BRANCH  25  26
ATOM     26  C   UNL     1       5.288   4.275  15.674  0.00  0.00    +0.000 C 
BRANCH  26  27
ATOM     27  C   UNL     1       6.501   4.033  14.837  0.00  0.00    +0.000 C 
ATOM     28  C   UNL     1       6.401   3.889  13.342  0.00  0.00    +0.000 C 
ATOM     29  O   UNL     1       6.830   5.115  13.951  0.00  0.00    +0.000 OA
ENDBRANCH  26  27
ENDBRANCH  25  26
ENDBRANCH   6  25
TORSDOF 6
ENDMDL
MODEL 6
REMARK VINA RESULT:      -7.8      0.949      1.044
REMARK  Name = 
REMARK  6 active torsions:
REMARK  status: ('A' for Active; 'I' for Inactive)
REMARK    1  A    between atoms: C_4  and  O_5
REMARK    2  A    between atoms: O_5  and  C_6
REMARK    3  A    between atoms: C_6  and  C_7
REMARK    4  A    between atoms: C_11  and  O_12
REMARK    5  A    between atoms: O_12  and  C_13
REMARK    6  A    between atoms: C_13  and  C_14
REMARK                            x       y       z     vdW  Elec       q    Type
REMARK                         _______ _______ _______ _____ _____    ______ ____
ROOT
ATOM      1  O   UNL     1       1.006   7.427  21.293  0.00  0.00    +0.000 OA
ATOM      2  C   UNL     1       1.478   7.891  20.265  0.00  0.00    +0.000 A 
ATOM      3  C   UNL     1       2.267   7.033  19.364  0.00  0.00    +0.000 A 
ATOM      4  C   UNL     1       2.474   5.668  19.635  0.00  0.00    +0.000 A 
ATOM      5  C   UNL     1       3.187   4.887  18.725  0.00  0.00    +0.000 A 
ATOM      6  C   UNL     1       3.738   5.458  17.576  0.00  0.00    +0.000 A 
ATOM      7  C   UNL     1       3.569   6.827  17.341  0.00  0.00    +0.000 A 
ATOM      8  C   UNL     1       2.817   7.611  18.224  0.00  0.00    +0.000 A 
ATOM      9  O   UNL     1       2.660   8.935  17.895  0.00  0.00    +0.000 OA
ATOM     10  C   UNL     1       1.908   9.738  18.719  0.00  0.00    +0.000 A 
ATOM     11  C   UNL     1       1.781  11.065  18.312  0.00  0.00    +0.000 A 
ATOM     12  C   UNL     1       1.044  11.967  19.083  0.00  0.00    +0.000 A 
ATOM     13  C   UNL     1       0.412  11.566  20.272  0.00  0.00    +0.000 A 
ATOM     14  C   UNL     1      -0.321  12.500  21.025  0.00  0.00    +0.000 A 
ATOM     15  C   UNL     1      -0.959  12.136  22.210  0.00  0.00    +0.000 A 
ATOM     16  C   UNL     1      -0.870  10.831  22.659  0.00  0.00    +0.000 A 
ATOM     17  C   UNL     1      -0.144   9.898  21.920  0.00  0.00    +0.000 A 
ATOM     18  C   UNL     1       0.524  10.221  20.706  0.00  0.00    +0.000 A 
ATOM     19  C   UNL     1       1.289   9.313  19.899  0.00  0.00    +0.000 A 
ENDROOT
BRANCH   4  20
ATOM     20  O   UNL     1       1.863   5.109  20.721  0.00  0.00    +0.000 OA
BRANCH  20  21
ATOM     21  C   UNL     1       1.012   3.979  20.530  0.00  0.00    +0.000 C 
BRANCH  21  22
ATOM     22  C   UNL     1       1.447   2.860  21.422  0.00  0.00    +0.000 C 
ATOM     23  C   UNL     1       2.849   2.311  21.392  0.00  0.00    +0.000 C 
ATOM     24  O   UNL     1       2.423   3.231  22.407  0.00  0.00    +0.000 OA
ENDBRANCH  21  22
ENDBRANCH  20  21
ENDBRANCH   4  20
BRANCH   6  25
ATOM     25  O   UNL     1       4.463   4.770  16.636  0.00  0.00    +0.000 OA
BRANCH  25  26
ATOM     26  C   UNL     1       5.312   5.567  15.800  0.00  0.00    +0.000 C 
BRANCH  26  27
ATOM     27  C   UNL     1       6.215   4.670  15.017  0.00  0.00    +0.000 C 
ATOM     28  C   UNL     1       7.324   5.229  14.166  0.00  0.00    +0.000 C 
ATOM     29  O   UNL     1       7.580   4.674  15.464  0.00  0.00    +0.000 OA
ENDBRANCH  26  27
ENDBRANCH  25  26
ENDBRANCH   6  25
TORSDOF 6
ENDMDL
MODEL 7
REMARK VINA RESULT:      -7.8      1.031      1.037
REMARK  Name = 
REMARK  6 active torsions:
REMARK  status: ('A' for Active; 'I' for Inactive)
REMARK    1  A    between atoms: C_4  and  O_5
REMARK    2  A    between atoms: O_5  and  C_6
REMARK    3  A    between atoms: C_6  and  C_7
REMARK    4  A    between atoms: C_11  and  O_12
REMARK    5  A    between atoms: O_12  and  C_13
REMARK    6  A    between atoms: C_13  and  C_14
REMARK                            x       y       z     vdW  Elec       q    Type
REMARK                         _______ _______ _______ _____ _____    ______ ____
ROOT
ATOM      1  O   UNL     1       0.812   8.111  21.566  0.00  0.00    +0.000 OA
ATOM      2  C   UNL     1       1.129   8.679  20.530  0.00  0.00    +0.000 A 
ATOM      3  C   UNL     1       1.977   7.989  19.543  0.00  0.00    +0.000 A 
ATOM      4  C   UNL     1       2.416   6.667  19.740  0.00  0.00    +0.000 A 
ATOM      5  C   UNL     1       3.176   6.042  18.751  0.00  0.00    +0.000 A 
ATOM      6  C   UNL     1       3.547   6.731  17.595  0.00  0.00    +0.000 A 
ATOM      7  C   UNL     1       3.146   8.061  17.431  0.00  0.00    +0.000 A 
ATOM      8  C   UNL     1       2.345   8.686  18.396  0.00  0.00    +0.000 A 
ATOM      9  O   UNL     1       1.957   9.976  18.136  0.00  0.00    +0.000 OA
ATOM     10  C   UNL     1       1.149  10.621  19.043  0.00  0.00    +0.000 A 
ATOM     11  C   UNL     1       0.784  11.923  18.703  0.00  0.00    +0.000 A 
ATOM     12  C   UNL     1      -0.029  12.668  19.560  0.00  0.00    +0.000 A 
ATOM     13  C   UNL     1      -0.502  12.132  20.769  0.00  0.00    +0.000 A 
ATOM     14  C   UNL     1      -1.318  12.910  21.609  0.00  0.00    +0.000 A 
ATOM     15  C   UNL     1      -1.804  12.410  22.816  0.00  0.00    +0.000 A 
ATOM     16  C   UNL     1      -1.476  11.123  23.200  0.00  0.00    +0.000 A 
ATOM     17  C   UNL     1      -0.667  10.343  22.375  0.00  0.00    +0.000 A 
ATOM     18  C   UNL     1      -0.149  10.809  21.135  0.00  0.00    +0.000 A 
ATOM     19  C   UNL     1       0.691  10.063  20.241  0.00  0.00    +0.000 A 
ENDROOT
BRANCH   4  20
ATOM     20  O   UNL     1       1.981   5.982  20.838  0.00  0.00    +0.000 OA
BRANCH  20  21
ATOM     21  C   UNL     1       1.449   4.668  20.667  0.00  0.00    +0.000 C 
BRANCH  21  22
ATOM     22  C   UNL     1       2.116   3.724  21.617  0.00  0.00    +0.000 C 
ATOM     23  C   UNL     1       1.812   2.249  21.624  0.00  0.00    +0.000 C 
ATOM     24  O   UNL     1       2.990   2.771  20.993  0.00  0.00    +0.000 OA
ENDBRANCH  21  22
ENDBRANCH  20  21
ENDBRANCH   4  20
BRANCH   6  25
ATOM     25  O   UNL     1       4.301   6.200  16.580  0.00  0.00    +0.000 OA
BRANCH  25  26
ATOM     26  C   UNL     1       5.616   5.759  16.946  0.00  0.00    +0.000 C 
BRANCH  26  27
ATOM     27  C   UNL     1       6.466   6.949  17.254  0.00  0.00    +0.000 C 
ATOM     28  C   UNL     1       7.709   6.823  18.093  0.00  0.00    +0.000 C 
ATOM     29  O   UNL     1       7.774   6.906  16.663  0.00  0.00    +0.000 OA
ENDBRANCH  26  27
ENDBRANCH  25  26
ENDBRANCH   6  25
TORSDOF 6
ENDMDL
MODEL 8
REMARK VINA RESULT:      -7.5      2.172      2.747
REMARK  Name = 
REMARK  6 active torsions:
REMARK  status: ('A' for Active; 'I' for Inactive)
REMARK    1  A    between atoms: C_4  and  O_5
REMARK    2  A    between atoms: O_5  and  C_6
REMARK    3  A    between atoms: C_6  and  C_7
REMARK    4  A    between atoms: C_11  and  O_12
REMARK    5  A    between atoms: O_12  and  C_13
REMARK    6  A    between atoms: C_13  and  C_14
REMARK                            x       y       z     vdW  Elec       q    Type
REMARK                         _______ _______ _______ _____ _____    ______ ____
ROOT
ATOM      1  O   UNL     1       2.364   6.294  20.429  0.00  0.00    +0.000 OA
ATOM      2  C   UNL     1       2.586   6.984  19.444  0.00  0.00    +0.000 A 
ATOM      3  C   UNL     1       3.515   6.506  18.405  0.00  0.00    +0.000 A 
ATOM      4  C   UNL     1       4.139   5.249  18.492  0.00  0.00    +0.000 A 
ATOM      5  C   UNL     1       4.971   4.822  17.457  0.00  0.00    +0.000 A 
ATOM      6  C   UNL     1       5.228   5.650  16.362  0.00  0.00    +0.000 A 
ATOM      7  C   UNL     1       4.641   6.919  16.309  0.00  0.00    +0.000 A 
ATOM      8  C   UNL     1       3.768   7.340  17.320  0.00  0.00    +0.000 A 
ATOM      9  O   UNL     1       3.198   8.579  17.167  0.00  0.00    +0.000 OA
ATOM     10  C   UNL     1       2.314   9.025  18.123  0.00  0.00    +0.000 A 
ATOM     11  C   UNL     1       1.764  10.284  17.891  0.00  0.00    +0.000 A 
ATOM     12  C   UNL     1       0.861  10.833  18.805  0.00  0.00    +0.000 A 
ATOM     13  C   UNL     1       0.482  10.137  19.965  0.00  0.00    +0.000 A 
ATOM     14  C   UNL     1      -0.429  10.719  20.864  0.00  0.00    +0.000 A 
ATOM     15  C   UNL     1      -0.826  10.056  22.026  0.00  0.00    +0.000 A 
ATOM     16  C   UNL     1      -0.315   8.802  22.302  0.00  0.00    +0.000 A 
ATOM     17  C   UNL     1       0.589   8.216  21.417  0.00  0.00    +0.000 A 
ATOM     18  C   UNL     1       1.024   8.853  20.220  0.00  0.00    +0.000 A 
ATOM     19  C   UNL     1       1.953   8.310  19.269  0.00  0.00    +0.000 A 
ENDROOT
BRANCH   4  20
ATOM     20  O   UNL     1       3.818   4.421  19.529  0.00  0.00    +0.000 OA
BRANCH  20  21
ATOM     21  C   UNL     1       4.321   3.084  19.527  0.00  0.00    +0.000 C 
BRANCH  21  22
ATOM     22  C   UNL     1       3.205   2.124  19.258  0.00  0.00    +0.000 C 
ATOM     23  C   UNL     1       2.651   1.910  17.874  0.00  0.00    +0.000 C 
ATOM     24  O   UNL     1       3.578   0.988  18.464  0.00  0.00    +0.000 OA
ENDBRANCH  21  22
ENDBRANCH  20  21
ENDBRANCH   4  20
BRANCH   6  25
ATOM     25  O   UNL     1       6.041   5.318  15.308  0.00  0.00    +0.000 OA
BRANCH  25  26
ATOM     26  C   UNL     1       5.797   4.036  14.714  0.00  0.00    +0.000 C 
BRANCH  26  27
ATOM     27  C   UNL     1       6.074   4.113  13.248  0.00  0.00    +0.000 C 
ATOM     28  C   UNL     1       6.170   2.868  12.406  0.00  0.00    +0.000 C 
ATOM     29  O   UNL     1       4.985   3.676  12.420  0.00  0.00    +0.000 OA
ENDBRANCH  26  27
ENDBRANCH  25  26
ENDBRANCH   6  25
TORSDOF 6
ENDMDL
MODEL 9
REMARK VINA RESULT:      -7.5      1.544      4.508
REMARK  Name = 
REMARK  6 active torsions:
REMARK  status: ('A' for Active; 'I' for Inactive)
REMARK    1  A    between atoms: C_4  and  O_5
REMARK    2  A    between atoms: O_5  and  C_6
REMARK    3  A    between atoms: C_6  and  C_7
REMARK    4  A    between atoms: C_11  and  O_12
REMARK    5  A    between atoms: O_12  and  C_13
REMARK    6  A    between atoms: C_13  and  C_14
REMARK                            x       y       z     vdW  Elec       q    Type
REMARK                         _______ _______ _______ _____ _____    ______ ____
ROOT
ATOM      1  O   UNL     1       2.528   9.236  17.773  0.00  0.00    +0.000 OA
ATOM      2  C   UNL     1       2.138   8.653  18.775  0.00  0.00    +0.000 A 
ATOM      3  C   UNL     1       2.539   7.256  19.018  0.00  0.00    +0.000 A 
ATOM      4  C   UNL     1       3.393   6.568  18.138  0.00  0.00    +0.000 A 
ATOM      5  C   UNL     1       3.783   5.263  18.438  0.00  0.00    +0.000 A 
ATOM      6  C   UNL     1       3.293   4.618  19.575  0.00  0.00    +0.000 A 
ATOM      7  C   UNL     1       2.405   5.294  20.419  0.00  0.00    +0.000 A 
ATOM      8  C   UNL     1       2.042   6.620  20.151  0.00  0.00    +0.000 A 
ATOM      9  O   UNL     1       1.203   7.225  21.054  0.00  0.00    +0.000 OA
ATOM     10  C   UNL     1       0.841   8.535  20.846  0.00  0.00    +0.000 A 
ATOM     11  C   UNL     1       0.000   9.087  21.812  0.00  0.00    +0.000 A 
ATOM     12  C   UNL     1      -0.434  10.409  21.691  0.00  0.00    +0.000 A 
ATOM     13  C   UNL     1      -0.035  11.212  20.610  0.00  0.00    +0.000 A 
ATOM     14  C   UNL     1      -0.491  12.539  20.518  0.00  0.00    +0.000 A 
ATOM     15  C   UNL     1      -0.117  13.364  19.458  0.00  0.00    +0.000 A 
ATOM     16  C   UNL     1       0.719  12.870  18.474  0.00  0.00    +0.000 A 
ATOM     17  C   UNL     1       1.177  11.555  18.555  0.00  0.00    +0.000 A 
ATOM     18  C   UNL     1       0.822  10.677  19.617  0.00  0.00    +0.000 A 
ATOM     19  C   UNL     1       1.253   9.315  19.760  0.00  0.00    +0.000 A 
ENDROOT
BRANCH   4  20
ATOM     20  O   UNL     1       3.925   7.238  17.072  0.00  0.00    +0.000 OA
BRANCH  20  21
ATOM     21  C   UNL     1       5.077   6.699  16.423  0.00  0.00    +0.000 C 
BRANCH  21  22
ATOM     22  C   UNL     1       6.316   7.166  17.120  0.00  0.00    +0.000 C 
ATOM     23  C   UNL     1       7.299   6.205  17.732  0.00  0.00    +0.000 C 
ATOM     24  O   UNL     1       7.539   6.815  16.457  0.00  0.00    +0.000 OA
ENDBRANCH  21  22
ENDBRANCH  20  21
ENDBRANCH   4  20
BRANCH   6  25
ATOM     25  O   UNL     1       3.611   3.334  19.941  0.00  0.00    +0.000 OA
BRANCH  25  26
ATOM     26  C   UNL     1       2.548   2.573  20.528  0.00  0.00    +0.000 C 
BRANCH  26  27
ATOM     27  C   UNL     1       1.887   1.752  19.469  0.00  0.00    +0.000 C 
ATOM     28  C   UNL     1       0.671   2.254  18.738  0.00  0.00    +0.000 C 
ATOM     29  O   UNL     1       1.978   2.312  18.149  0.00  0.00    +0.000 OA
ENDBRANCH  26  27
ENDBRANCH  25  26
ENDBRANCH   6  25
TORSDOF 6
ENDMDL
