MODEL 1
REMARK VINA RESULT:      -8.8      0.000      0.000
REMARK  Name = 
REMARK  9 active torsions:
REMARK  status: ('A' for Active; 'I' for Inactive)
REMARK    1  A    between atoms: C_1  and  C_2
REMARK    2  A    between atoms: C_2  and  C_3
REMARK    3  A    between atoms: C_3  and  O_4
REMARK    4  A    between atoms: O_4  and  C_5
REMARK    5  A    between atoms: C_5  and  C_6
REMARK    6  A    between atoms: C_9  and  C_10
REMARK    7  A    between atoms: C_13  and  O_14
REMARK    8  A    between atoms: O_14  and  C_15
REMARK    9  A    between atoms: C_27  and  N_28
REMARK                            x       y       z     vdW  Elec       q    Type
REMARK                         _______ _______ _______ _____ _____    ______ ____
ROOT
ATOM      1  C   UNL     1       2.067   7.541  19.878  0.00  0.00    +0.000 A 
ATOM      2  C   UNL     1       2.518   6.229  20.065  0.00  0.00    +0.000 A 
ATOM      3  C   UNL     1       3.288   5.587  19.091  0.00  0.00    +0.000 A 
ATOM      4  C   UNL     1       3.610   6.216  17.877  0.00  0.00    +0.000 A 
ATOM      5  C   UNL     1       3.124   7.522  17.687  0.00  0.00    +0.000 A 
ATOM      6  C   UNL     1       2.368   8.178  18.671  0.00  0.00    +0.000 A 
ENDROOT
BRANCH   4   7
ATOM      7  C   UNL     1       4.427   5.525  16.850  0.00  0.00    +0.000 A 
ATOM      8  C   UNL     1       5.135   6.244  15.871  0.00  0.00    +0.000 A 
ATOM      9  C   UNL     1       5.897   5.592  14.895  0.00  0.00    +0.000 A 
ATOM     10  C   UNL     1       6.001   4.202  14.884  0.00  0.00    +0.000 A 
ATOM     11  C   UNL     1       5.280   3.467  15.818  0.00  0.00    +0.000 A 
ATOM     12  C   UNL     1       4.515   4.122  16.795  0.00  0.00    +0.000 A 
BRANCH  10  13
ATOM     13  O   UNL     1       6.760   3.691  13.879  0.00  0.00    +0.000 OA
BRANCH  13  14
ATOM     14  C   UNL     1       6.209   3.591  12.572  0.00  0.00    +0.000 C 
ATOM     15  F   UNL     1       4.872   3.762  12.511  0.00  0.00    +0.000 F 
ATOM     16  F   UNL     1       6.798   4.507  11.772  0.00  0.00    +0.000 F 
ATOM     17  F   UNL     1       6.492   2.364  12.079  0.00  0.00    +0.000 F 
ENDBRANCH  13  14
ENDBRANCH  10  13
ENDBRANCH   4   7
BRANCH   1  18
ATOM     18  C   UNL     1       1.246   8.235  20.936  0.00  0.00    +0.000 C 
BRANCH  18  19
ATOM     19  O   UNL     1       1.012   9.571  20.500  0.00  0.00    +0.000 OA
BRANCH  19  20
ATOM     20  C   UNL     1      -0.367   9.913  20.406  0.00  0.00    +0.000 C 
BRANCH  20  22
ATOM     21  C   UNL     1       0.709  11.731  19.047  0.00  0.00    +0.000 C 
ATOM     22  C   UNL     1      -0.565  10.874  19.205  0.00  0.00    +0.000 C 
ATOM     23  C   UNL     1      -0.764  10.091  17.877  0.00  0.00    +0.000 C 
ATOM     24  C   UNL     1      -2.193   9.930  17.392  0.00  0.00    +0.000 C 
ATOM     25  N   UNL     1      -3.110  10.844  18.005  0.00  0.00    +0.000 N 
ATOM     26  C   UNL     1      -4.419  11.040  17.677  0.00  0.00    +0.000 A 
ATOM     27  C   UNL     1      -4.844  12.030  18.548  0.00  0.00    +0.000 A 
ATOM     28  N   UNL     1      -3.819  12.420  19.388  0.00  0.00    +0.000 NA
ATOM     29  C   UNL     1      -2.790  11.690  19.024  0.00  0.00    +0.000 A 
ATOM     30  O   UNL     1      -1.585  11.810  19.561  0.00  0.00    +0.000 OA
BRANCH  27  31
ATOM     31  N   UNL     1      -6.157  12.629  18.621  0.00  0.00    +0.000 N 
ATOM     32  O   UNL     1      -6.860  12.305  19.590  0.00  0.00    +0.000 OA
ATOM     33  O   UNL     1      -6.486  13.418  17.727  0.00  0.00    +0.000 OA
ENDBRANCH  27  31
ENDBRANCH  20  22
ENDBRANCH  19  20
ENDBRANCH  18  19
ENDBRANCH   1  18
TORSDOF 8
ENDMDL
MODEL 2
REMARK VINA RESULT:      -8.8      7.406     12.061
REMARK  Name = 
REMARK  9 active torsions:
REMARK  status: ('A' for Active; 'I' for Inactive)
REMARK    1  A    between atoms: C_1  and  C_2
REMARK    2  A    between atoms: C_2  and  C_3
REMARK    3  A    between atoms: C_3  and  O_4
REMARK    4  A    between atoms: O_4  and  C_5
REMARK    5  A    between atoms: C_5  and  C_6
REMARK    6  A    between atoms: C_9  and  C_10
REMARK    7  A    between atoms: C_13  and  O_14
REMARK    8  A    between atoms: O_14  and  C_15
REMARK    9  A    between atoms: C_27  and  N_28
REMARK                            x       y       z     vdW  Elec       q    Type
REMARK                         _______ _______ _______ _____ _____    ______ ____
ROOT
ATOM      1  C   UNL     1       1.546   8.215  20.308  0.00  0.00    +0.000 A 
ATOM      2  C   UNL     1       1.187   9.324  19.533  0.00  0.00    +0.000 A 
ATOM      3  C   UNL     1       0.531  10.418  20.103  0.00  0.00    +0.000 A 
ATOM      4  C   UNL     1       0.175  10.435  21.462  0.00  0.00    +0.000 A 
ATOM      5  C   UNL     1       0.512   9.301  22.224  0.00  0.00    +0.000 A 
ATOM      6  C   UNL     1       1.189   8.209  21.660  0.00  0.00    +0.000 A 
ENDROOT
BRANCH   4   7
ATOM      7  C   UNL     1      -0.522  11.601  22.057  0.00  0.00    +0.000 A 
ATOM      8  C   UNL     1      -1.609  11.438  22.933  0.00  0.00    +0.000 A 
ATOM      9  C   UNL     1      -2.273  12.538  23.486  0.00  0.00    +0.000 A 
ATOM     10  C   UNL     1      -1.853  13.837  23.206  0.00  0.00    +0.000 A 
ATOM     11  C   UNL     1      -0.804  14.027  22.313  0.00  0.00    +0.000 A 
ATOM     12  C   UNL     1      -0.141  12.922  21.758  0.00  0.00    +0.000 A 
BRANCH  10  13
ATOM     13  O   UNL     1      -2.588  14.817  23.795  0.00  0.00    +0.000 OA
BRANCH  13  14
ATOM     14  C   UNL     1      -2.335  15.155  25.153  0.00  0.00    +0.000 C 
ATOM     15  F   UNL     1      -3.019  14.419  26.052  0.00  0.00    +0.000 F 
ATOM     16  F   UNL     1      -1.013  15.024  25.403  0.00  0.00    +0.000 F 
ATOM     17  F   UNL     1      -2.667  16.453  25.342  0.00  0.00    +0.000 F 
ENDBRANCH  13  14
ENDBRANCH  10  13
ENDBRANCH   4   7
BRANCH   1  18
ATOM     18  C   UNL     1       2.264   7.039  19.692  0.00  0.00    +0.000 C 
BRANCH  18  19
ATOM     19  O   UNL     1       2.130   5.932  20.579  0.00  0.00    +0.000 OA
BRANCH  19  20
ATOM     20  C   UNL     1       1.198   4.951  20.137  0.00  0.00    +0.000 C 
BRANCH  20  22
ATOM     21  C   UNL     1       1.550   2.583  20.901  0.00  0.00    +0.000 C 
ATOM     22  C   UNL     1       1.960   3.631  19.844  0.00  0.00    +0.000 C 
ATOM     23  C   UNL     1       1.585   3.055  18.450  0.00  0.00    +0.000 C 
ATOM     24  C   UNL     1       2.558   3.329  17.318  0.00  0.00    +0.000 C 
ATOM     25  N   UNL     1       3.856   3.735  17.768  0.00  0.00    +0.000 N 
ATOM     26  C   UNL     1       4.973   3.910  17.005  0.00  0.00    +0.000 A 
ATOM     27  C   UNL     1       5.951   4.282  17.914  0.00  0.00    +0.000 A 
ATOM     28  N   UNL     1       5.437   4.335  19.195  0.00  0.00    +0.000 NA
ATOM     29  C   UNL     1       4.177   3.991  19.067  0.00  0.00    +0.000 A 
ATOM     30  O   UNL     1       3.348   3.867  20.093  0.00  0.00    +0.000 OA
BRANCH  27  31
ATOM     31  N   UNL     1       7.338   4.578  17.637  0.00  0.00    +0.000 N 
ATOM     32  O   UNL     1       8.084   4.703  18.620  0.00  0.00    +0.000 OA
ATOM     33  O   UNL     1       7.685   4.679  16.453  0.00  0.00    +0.000 OA
ENDBRANCH  27  31
ENDBRANCH  20  22
ENDBRANCH  19  20
ENDBRANCH  18  19
ENDBRANCH   1  18
TORSDOF 8
ENDMDL
MODEL 3
REMARK VINA RESULT:      -8.8      0.283      1.327
REMARK  Name = 
REMARK  9 active torsions:
REMARK  status: ('A' for Active; 'I' for Inactive)
REMARK    1  A    between atoms: C_1  and  C_2
REMARK    2  A    between atoms: C_2  and  C_3
REMARK    3  A    between atoms: C_3  and  O_4
REMARK    4  A    between atoms: O_4  and  C_5
REMARK    5  A    between atoms: C_5  and  C_6
REMARK    6  A    between atoms: C_9  and  C_10
REMARK    7  A    between atoms: C_13  and  O_14
REMARK    8  A    between atoms: O_14  and  C_15
REMARK    9  A    between atoms: C_27  and  N_28
REMARK                            x       y       z     vdW  Elec       q    Type
REMARK                         _______ _______ _______ _____ _____    ______ ____
ROOT
ATOM      1  C   UNL     1       1.868   7.522  19.991  0.00  0.00    +0.000 A 
ATOM      2  C   UNL     1       2.244   8.190  18.820  0.00  0.00    +0.000 A 
ATOM      3  C   UNL     1       3.010   7.551  17.841  0.00  0.00    +0.000 A 
ATOM      4  C   UNL     1       3.460   6.230  18.006  0.00  0.00    +0.000 A 
ATOM      5  C   UNL     1       3.103   5.580  19.202  0.00  0.00    +0.000 A 
ATOM      6  C   UNL     1       2.317   6.211  20.178  0.00  0.00    +0.000 A 
ENDROOT
BRANCH   4   7
ATOM      7  C   UNL     1       4.272   5.561  16.962  0.00  0.00    +0.000 A 
ATOM      8  C   UNL     1       4.330   4.160  16.862  0.00  0.00    +0.000 A 
ATOM      9  C   UNL     1       5.105   3.529  15.884  0.00  0.00    +0.000 A 
ATOM     10  C   UNL     1       5.824   4.277  14.953  0.00  0.00    +0.000 A 
ATOM     11  C   UNL     1       5.813   5.664  15.053  0.00  0.00    +0.000 A 
ATOM     12  C   UNL     1       5.037   6.295  16.037  0.00  0.00    +0.000 A 
BRANCH  10  13
ATOM     13  O   UNL     1       6.545   3.546  14.063  0.00  0.00    +0.000 OA
BRANCH  13  14
ATOM     14  C   UNL     1       6.170   3.554  12.691  0.00  0.00    +0.000 C 
ATOM     15  F   UNL     1       4.874   3.851  12.464  0.00  0.00    +0.000 F 
ATOM     16  F   UNL     1       6.941   4.443  12.026  0.00  0.00    +0.000 F 
ATOM     17  F   UNL     1       6.410   2.327  12.173  0.00  0.00    +0.000 F 
ENDBRANCH  13  14
ENDBRANCH  10  13
ENDBRANCH   4   7
BRANCH   1  18
ATOM     18  C   UNL     1       1.032   8.211  21.041  0.00  0.00    +0.000 C 
BRANCH  18  19
ATOM     19  O   UNL     1       0.939   9.589  20.691  0.00  0.00    +0.000 OA
BRANCH  19  20
ATOM     20  C   UNL     1      -0.393  10.091  20.684  0.00  0.00    +0.000 C 
BRANCH  20  22
ATOM     21  C   UNL     1       0.642  12.044  19.490  0.00  0.00    +0.000 C 
ATOM     22  C   UNL     1      -0.555  11.068  19.490  0.00  0.00    +0.000 C 
ATOM     23  C   UNL     1      -0.537  10.314  18.132  0.00  0.00    +0.000 C 
ATOM     24  C   UNL     1      -1.886  10.038  17.492  0.00  0.00    +0.000 C 
ATOM     25  N   UNL     1      -2.945  10.842  18.024  0.00  0.00    +0.000 N 
ATOM     26  C   UNL     1      -4.225  10.927  17.560  0.00  0.00    +0.000 A 
ATOM     27  C   UNL     1      -4.832  11.845  18.403  0.00  0.00    +0.000 A 
ATOM     28  N   UNL     1      -3.942  12.301  19.356  0.00  0.00    +0.000 NA
ATOM     29  C   UNL     1      -2.816  11.681  19.089  0.00  0.00    +0.000 A 
ATOM     30  O   UNL     1      -1.691  11.895  19.755  0.00  0.00    +0.000 OA
BRANCH  27  31
ATOM     31  N   UNL     1      -6.196  12.317  18.348  0.00  0.00    +0.000 N 
ATOM     32  O   UNL     1      -6.551  12.860  17.290  0.00  0.00    +0.000 OA
ATOM     33  O   UNL     1      -6.911  12.146  19.343  0.00  0.00    +0.000 OA
ENDBRANCH  27  31
ENDBRANCH  20  22
ENDBRANCH  19  20
ENDBRANCH  18  19
ENDBRANCH   1  18
TORSDOF 8
ENDMDL
MODEL 4
REMARK VINA RESULT:      -8.5      2.947      4.465
REMARK  Name = 
REMARK  9 active torsions:
REMARK  status: ('A' for Active; 'I' for Inactive)
REMARK    1  A    between atoms: C_1  and  C_2
REMARK    2  A    between atoms: C_2  and  C_3
REMARK    3  A    between atoms: C_3  and  O_4
REMARK    4  A    between atoms: O_4  and  C_5
REMARK    5  A    between atoms: C_5  and  C_6
REMARK    6  A    between atoms: C_9  and  C_10
REMARK    7  A    between atoms: C_13  and  O_14
REMARK    8  A    between atoms: O_14  and  C_15
REMARK    9  A    between atoms: C_27  and  N_28
REMARK                            x       y       z     vdW  Elec       q    Type
REMARK                         _______ _______ _______ _____ _____    ______ ____
ROOT
ATOM      1  C   UNL     1       1.820   7.949  19.962  0.00  0.00    +0.000 A 
ATOM      2  C   UNL     1       2.231   6.638  20.229  0.00  0.00    +0.000 A 
ATOM      3  C   UNL     1       3.002   5.923  19.308  0.00  0.00    +0.000 A 
ATOM      4  C   UNL     1       3.363   6.475  18.068  0.00  0.00    +0.000 A 
ATOM      5  C   UNL     1       2.916   7.781  17.797  0.00  0.00    +0.000 A 
ATOM      6  C   UNL     1       2.160   8.510  18.727  0.00  0.00    +0.000 A 
ENDROOT
BRANCH   4   7
ATOM      7  C   UNL     1       4.179   5.708  17.097  0.00  0.00    +0.000 A 
ATOM      8  C   UNL     1       4.987   6.353  16.144  0.00  0.00    +0.000 A 
ATOM      9  C   UNL     1       5.749   5.629  15.221  0.00  0.00    +0.000 A 
ATOM     10  C   UNL     1       5.753   4.236  15.239  0.00  0.00    +0.000 A 
ATOM     11  C   UNL     1       4.934   3.573  16.146  0.00  0.00    +0.000 A 
ATOM     12  C   UNL     1       4.168   4.301  17.069  0.00  0.00    +0.000 A 
BRANCH  10  13
ATOM     13  O   UNL     1       6.524   3.652  14.284  0.00  0.00    +0.000 OA
BRANCH  13  14
ATOM     14  C   UNL     1       6.071   3.639  12.935  0.00  0.00    +0.000 C 
ATOM     15  F   UNL     1       6.749   4.460  12.108  0.00  0.00    +0.000 F 
ATOM     16  F   UNL     1       6.150   2.379  12.454  0.00  0.00    +0.000 F 
ATOM     17  F   UNL     1       4.771   4.012  12.915  0.00  0.00    +0.000 F 
ENDBRANCH  13  14
ENDBRANCH  10  13
ENDBRANCH   4   7
BRANCH   1  18
ATOM     18  C   UNL     1       0.998   8.722  20.963  0.00  0.00    +0.000 C 
BRANCH  18  19
ATOM     19  O   UNL     1      -0.085   9.328  20.264  0.00  0.00    +0.000 OA
BRANCH  19  20
ATOM     20  C   UNL     1      -0.205  10.729  20.491  0.00  0.00    +0.000 C 
BRANCH  20  22
ATOM     21  C   UNL     1      -1.036  10.470  18.134  0.00  0.00    +0.000 C 
ATOM     22  C   UNL     1      -0.364  11.446  19.124  0.00  0.00    +0.000 C 
ATOM     23  C   UNL     1      -1.282  12.694  19.240  0.00  0.00    +0.000 C 
ATOM     24  C   UNL     1      -0.588  14.040  19.345  0.00  0.00    +0.000 C 
ATOM     25  N   UNL     1       0.784  14.007  18.933  0.00  0.00    +0.000 N 
ATOM     26  C   UNL     1       1.621  15.073  18.778  0.00  0.00    +0.000 A 
ATOM     27  C   UNL     1       2.813  14.509  18.352  0.00  0.00    +0.000 A 
ATOM     28  N   UNL     1       2.702  13.136  18.256  0.00  0.00    +0.000 NA
ATOM     29  C   UNL     1       1.464  12.874  18.605  0.00  0.00    +0.000 A 
ATOM     30  O   UNL     1       0.945  11.655  18.588  0.00  0.00    +0.000 OA
BRANCH  27  31
ATOM     31  N   UNL     1       4.040  15.199  18.023  0.00  0.00    +0.000 N 
ATOM     32  O   UNL     1       3.973  16.434  17.930  0.00  0.00    +0.000 OA
ATOM     33  O   UNL     1       5.063  14.520  17.865  0.00  0.00    +0.000 OA
ENDBRANCH  27  31
ENDBRANCH  20  22
ENDBRANCH  19  20
ENDBRANCH  18  19
ENDBRANCH   1  18
TORSDOF 8
ENDMDL
MODEL 5
REMARK VINA RESULT:      -8.5      2.837      4.379
REMARK  Name = 
REMARK  9 active torsions:
REMARK  status: ('A' for Active; 'I' for Inactive)
REMARK    1  A    between atoms: C_1  and  C_2
REMARK    2  A    between atoms: C_2  and  C_3
REMARK    3  A    between atoms: C_3  and  O_4
REMARK    4  A    between atoms: O_4  and  C_5
REMARK    5  A    between atoms: C_5  and  C_6
REMARK    6  A    between atoms: C_9  and  C_10
REMARK    7  A    between atoms: C_13  and  O_14
REMARK    8  A    between atoms: O_14  and  C_15
REMARK    9  A    between atoms: C_27  and  N_28
REMARK                            x       y       z     vdW  Elec       q    Type
REMARK                         _______ _______ _______ _____ _____    ______ ____
ROOT
ATOM      1  C   UNL     1       1.698   8.021  20.058  0.00  0.00    +0.000 A 
ATOM      2  C   UNL     1       2.187   6.739  20.334  0.00  0.00    +0.000 A 
ATOM      3  C   UNL     1       2.970   6.051  19.402  0.00  0.00    +0.000 A 
ATOM      4  C   UNL     1       3.267   6.601  18.144  0.00  0.00    +0.000 A 
ATOM      5  C   UNL     1       2.743   7.876  17.866  0.00  0.00    +0.000 A 
ATOM      6  C   UNL     1       1.974   8.579  18.806  0.00  0.00    +0.000 A 
ENDROOT
BRANCH   4   7
ATOM      7  C   UNL     1       4.098   5.863  17.163  0.00  0.00    +0.000 A 
ATOM      8  C   UNL     1       4.170   4.459  17.170  0.00  0.00    +0.000 A 
ATOM      9  C   UNL     1       4.962   3.763  16.251  0.00  0.00    +0.000 A 
ATOM     10  C   UNL     1       5.686   4.446  15.275  0.00  0.00    +0.000 A 
ATOM     11  C   UNL     1       5.662   5.836  15.270  0.00  0.00    +0.000 A 
ATOM     12  C   UNL     1       4.868   6.532  16.194  0.00  0.00    +0.000 A 
BRANCH  10  13
ATOM     13  O   UNL     1       6.424   3.657  14.451  0.00  0.00    +0.000 OA
BRANCH  13  14
ATOM     14  C   UNL     1       6.174   3.687  13.051  0.00  0.00    +0.000 C 
ATOM     15  F   UNL     1       4.881   3.869  12.714  0.00  0.00    +0.000 F 
ATOM     16  F   UNL     1       6.910   4.673  12.491  0.00  0.00    +0.000 F 
ATOM     17  F   UNL     1       6.579   2.511  12.517  0.00  0.00    +0.000 F 
ENDBRANCH  13  14
ENDBRANCH  10  13
ENDBRANCH   4   7
BRANCH   1  18
ATOM     18  C   UNL     1       0.862   8.766  21.069  0.00  0.00    +0.000 C 
BRANCH  18  19
ATOM     19  O   UNL     1      -0.216   9.385  20.375  0.00  0.00    +0.000 OA
BRANCH  19  20
ATOM     20  C   UNL     1      -0.421  10.749  20.727  0.00  0.00    +0.000 C 
BRANCH  20  22
ATOM     21  C   UNL     1      -1.675  10.691  18.552  0.00  0.00    +0.000 C 
ATOM     22  C   UNL     1      -0.758  11.554  19.445  0.00  0.00    +0.000 C 
ATOM     23  C   UNL     1      -1.531  12.859  19.779  0.00  0.00    +0.000 C 
ATOM     24  C   UNL     1      -0.717  14.140  19.815  0.00  0.00    +0.000 C 
ATOM     25  N   UNL     1       0.551  14.028  19.160  0.00  0.00    +0.000 N 
ATOM     26  C   UNL     1       1.436  15.034  18.902  0.00  0.00    +0.000 A 
ATOM     27  C   UNL     1       2.481  14.407  18.242  0.00  0.00    +0.000 A 
ATOM     28  N   UNL     1       2.238  13.054  18.109  0.00  0.00    +0.000 NA
ATOM     29  C   UNL     1       1.064  12.866  18.665  0.00  0.00    +0.000 A 
ATOM     30  O   UNL     1       0.449  11.694  18.690  0.00  0.00    +0.000 OA
BRANCH  27  31
ATOM     31  N   UNL     1       3.685  15.019  17.727  0.00  0.00    +0.000 N 
ATOM     32  O   UNL     1       3.532  15.916  16.885  0.00  0.00    +0.000 OA
ATOM     33  O   UNL     1       4.772  14.615  18.159  0.00  0.00    +0.000 OA
ENDBRANCH  27  31
ENDBRANCH  20  22
ENDBRANCH  19  20
ENDBRANCH  18  19
ENDBRANCH   1  18
TORSDOF 8
ENDMDL
MODEL 6
REMARK VINA RESULT:      -8.5      7.059     11.843
REMARK  Name = 
REMARK  9 active torsions:
REMARK  status: ('A' for Active; 'I' for Inactive)
REMARK    1  A    between atoms: C_1  and  C_2
REMARK    2  A    between atoms: C_2  and  C_3
REMARK    3  A    between atoms: C_3  and  O_4
REMARK    4  A    between atoms: O_4  and  C_5
REMARK    5  A    between atoms: C_5  and  C_6
REMARK    6  A    between atoms: C_9  and  C_10
REMARK    7  A    between atoms: C_13  and  O_14
REMARK    8  A    between atoms: O_14  and  C_15
REMARK    9  A    between atoms: C_27  and  N_28
REMARK                            x       y       z     vdW  Elec       q    Type
REMARK                         _______ _______ _______ _____ _____    ______ ____
ROOT
ATOM      1  C   UNL     1       1.585   8.086  20.025  0.00  0.00    +0.000 A 
ATOM      2  C   UNL     1       1.118   8.163  21.342  0.00  0.00    +0.000 A 
ATOM      3  C   UNL     1       0.327   9.236  21.763  0.00  0.00    +0.000 A 
ATOM      4  C   UNL     1       0.001  10.293  20.896  0.00  0.00    +0.000 A 
ATOM      5  C   UNL     1       0.504  10.220  19.584  0.00  0.00    +0.000 A 
ATOM      6  C   UNL     1       1.280   9.134  19.152  0.00  0.00    +0.000 A 
ENDROOT
BRANCH   4   7
ATOM      7  C   UNL     1      -0.838  11.427  21.353  0.00  0.00    +0.000 A 
ATOM      8  C   UNL     1      -1.494  12.270  20.439  0.00  0.00    +0.000 A 
ATOM      9  C   UNL     1      -2.276  13.346  20.870  0.00  0.00    +0.000 A 
ATOM     10  C   UNL     1      -2.453  13.599  22.230  0.00  0.00    +0.000 A 
ATOM     11  C   UNL     1      -1.784  12.803  23.153  0.00  0.00    +0.000 A 
ATOM     12  C   UNL     1      -0.998  11.725  22.719  0.00  0.00    +0.000 A 
BRANCH  10  13
ATOM     13  O   UNL     1      -3.225  14.679  22.517  0.00  0.00    +0.000 OA
BRANCH  13  14
ATOM     14  C   UNL     1      -4.453  14.492  23.209  0.00  0.00    +0.000 C 
ATOM     15  F   UNL     1      -4.335  14.397  24.549  0.00  0.00    +0.000 F 
ATOM     16  F   UNL     1      -5.285  15.518  22.920  0.00  0.00    +0.000 F 
ATOM     17  F   UNL     1      -5.029  13.352  22.763  0.00  0.00    +0.000 F 
ENDBRANCH  13  14
ENDBRANCH  10  13
ENDBRANCH   4   7
BRANCH   1  18
ATOM     18  C   UNL     1       2.429   6.921  19.570  0.00  0.00    +0.000 C 
BRANCH  18  19
ATOM     19  O   UNL     1       2.304   5.885  20.539  0.00  0.00    +0.000 OA
BRANCH  19  20
ATOM     20  C   UNL     1       1.315   4.912  20.218  0.00  0.00    +0.000 C 
BRANCH  20  22
ATOM     21  C   UNL     1       1.525   2.450  20.670  0.00  0.00    +0.000 C 
ATOM     22  C   UNL     1       2.023   3.605  19.775  0.00  0.00    +0.000 C 
ATOM     23  C   UNL     1       1.673   3.238  18.306  0.00  0.00    +0.000 C 
ATOM     24  C   UNL     1       2.699   3.608  17.251  0.00  0.00    +0.000 C 
ATOM     25  N   UNL     1       3.998   3.882  17.790  0.00  0.00    +0.000 N 
ATOM     26  C   UNL     1       5.149   4.098  17.091  0.00  0.00    +0.000 A 
ATOM     27  C   UNL     1       6.110   4.295  18.070  0.00  0.00    +0.000 A 
ATOM     28  N   UNL     1       5.552   4.205  19.331  0.00  0.00    +0.000 NA
ATOM     29  C   UNL     1       4.283   3.947  19.120  0.00  0.00    +0.000 A 
ATOM     30  O   UNL     1       3.411   3.733  20.095  0.00  0.00    +0.000 OA
BRANCH  27  31
ATOM     31  N   UNL     1       7.518   4.551  17.877  0.00  0.00    +0.000 N 
ATOM     32  O   UNL     1       8.129   5.041  18.840  0.00  0.00    +0.000 OA
ATOM     33  O   UNL     1       8.016   4.264  16.781  0.00  0.00    +0.000 OA
ENDBRANCH  27  31
ENDBRANCH  20  22
ENDBRANCH  19  20
ENDBRANCH  18  19
ENDBRANCH   1  18
TORSDOF 8
ENDMDL
MODEL 7
REMARK VINA RESULT:      -8.5      7.082     11.950
REMARK  Name = 
REMARK  9 active torsions:
REMARK  status: ('A' for Active; 'I' for Inactive)
REMARK    1  A    between atoms: C_1  and  C_2
REMARK    2  A    between atoms: C_2  and  C_3
REMARK    3  A    between atoms: C_3  and  O_4
REMARK    4  A    between atoms: O_4  and  C_5
REMARK    5  A    between atoms: C_5  and  C_6
REMARK    6  A    between atoms: C_9  and  C_10
REMARK    7  A    between atoms: C_13  and  O_14
REMARK    8  A    between atoms: O_14  and  C_15
REMARK    9  A    between atoms: C_27  and  N_28
REMARK                            x       y       z     vdW  Elec       q    Type
REMARK                         _______ _______ _______ _____ _____    ______ ____
ROOT
ATOM      1  C   UNL     1       1.359   8.276  20.394  0.00  0.00    +0.000 A 
ATOM      2  C   UNL     1       0.795   8.341  21.674  0.00  0.00    +0.000 A 
ATOM      3  C   UNL     1      -0.021   9.412  22.047  0.00  0.00    +0.000 A 
ATOM      4  C   UNL     1      -0.279  10.479  21.171  0.00  0.00    +0.000 A 
ATOM      5  C   UNL     1       0.319  10.419  19.899  0.00  0.00    +0.000 A 
ATOM      6  C   UNL     1       1.122   9.336  19.513  0.00  0.00    +0.000 A 
ENDROOT
BRANCH   4   7
ATOM      7  C   UNL     1      -1.146  11.612  21.577  0.00  0.00    +0.000 A 
ATOM      8  C   UNL     1      -1.238  12.022  22.919  0.00  0.00    +0.000 A 
ATOM      9  C   UNL     1      -2.064  13.083  23.304  0.00  0.00    +0.000 A 
ATOM     10  C   UNL     1      -2.803  13.789  22.356  0.00  0.00    +0.000 A 
ATOM     11  C   UNL     1      -2.758  13.381  21.028  0.00  0.00    +0.000 A 
ATOM     12  C   UNL     1      -1.931  12.314  20.644  0.00  0.00    +0.000 A 
BRANCH  10  13
ATOM     13  O   UNL     1      -3.574  14.789  22.858  0.00  0.00    +0.000 OA
BRANCH  13  14
ATOM     14  C   UNL     1      -4.961  14.558  23.073  0.00  0.00    +0.000 C 
ATOM     15  F   UNL     1      -5.298  13.260  23.220  0.00  0.00    +0.000 F 
ATOM     16  F   UNL     1      -5.357  15.235  24.173  0.00  0.00    +0.000 F 
ATOM     17  F   UNL     1      -5.647  15.046  22.014  0.00  0.00    +0.000 F 
ENDBRANCH  13  14
ENDBRANCH  10  13
ENDBRANCH   4   7
BRANCH   1  18
ATOM     18  C   UNL     1       2.230   7.113  19.990  0.00  0.00    +0.000 C 
BRANCH  18  19
ATOM     19  O   UNL     1       1.483   5.917  20.187  0.00  0.00    +0.000 OA
BRANCH  19  20
ATOM     20  C   UNL     1       2.143   4.954  21.002  0.00  0.00    +0.000 C 
BRANCH  20  22
ATOM     21  C   UNL     1       2.226   2.445  20.891  0.00  0.00    +0.000 C 
ATOM     22  C   UNL     1       2.548   3.744  20.120  0.00  0.00    +0.000 C 
ATOM     23  C   UNL     1       1.736   3.708  18.795  0.00  0.00    +0.000 C 
ATOM     24  C   UNL     1       2.430   4.253  17.560  0.00  0.00    +0.000 C 
ATOM     25  N   UNL     1       3.851   4.358  17.704  0.00  0.00    +0.000 N 
ATOM     26  C   UNL     1       4.755   4.673  16.732  0.00  0.00    +0.000 A 
ATOM     27  C   UNL     1       5.980   4.622  17.377  0.00  0.00    +0.000 A 
ATOM     28  N   UNL     1       5.822   4.290  18.708  0.00  0.00    +0.000 NA
ATOM     29  C   UNL     1       4.528   4.130  18.864  0.00  0.00    +0.000 A 
ATOM     30  O   UNL     1       3.973   3.748  20.004  0.00  0.00    +0.000 OA
BRANCH  27  31
ATOM     31  N   UNL     1       7.284   4.860  16.802  0.00  0.00    +0.000 N 
ATOM     32  O   UNL     1       8.213   4.155  17.225  0.00  0.00    +0.000 OA
ATOM     33  O   UNL     1       7.385   5.735  15.932  0.00  0.00    +0.000 OA
ENDBRANCH  27  31
ENDBRANCH  20  22
ENDBRANCH  19  20
ENDBRANCH  18  19
ENDBRANCH   1  18
TORSDOF 8
ENDMDL
MODEL 8
REMARK VINA RESULT:      -8.5      0.428      1.140
REMARK  Name = 
REMARK  9 active torsions:
REMARK  status: ('A' for Active; 'I' for Inactive)
REMARK    1  A    between atoms: C_1  and  C_2
REMARK    2  A    between atoms: C_2  and  C_3
REMARK    3  A    between atoms: C_3  and  O_4
REMARK    4  A    between atoms: O_4  and  C_5
REMARK    5  A    between atoms: C_5  and  C_6
REMARK    6  A    between atoms: C_9  and  C_10
REMARK    7  A    between atoms: C_13  and  O_14
REMARK    8  A    between atoms: O_14  and  C_15
REMARK    9  A    between atoms: C_27  and  N_28
REMARK                            x       y       z     vdW  Elec       q    Type
REMARK                         _______ _______ _______ _____ _____    ______ ____
ROOT
ATOM      1  C   UNL     1       2.060   7.448  19.826  0.00  0.00    +0.000 A 
ATOM      2  C   UNL     1       2.503   8.128  18.685  0.00  0.00    +0.000 A 
ATOM      3  C   UNL     1       3.265   7.477  17.711  0.00  0.00    +0.000 A 
ATOM      4  C   UNL     1       3.644   6.132  17.852  0.00  0.00    +0.000 A 
ATOM      5  C   UNL     1       3.221   5.469  19.018  0.00  0.00    +0.000 A 
ATOM      6  C   UNL     1       2.438   6.112  19.989  0.00  0.00    +0.000 A 
ENDROOT
BRANCH   4   7
ATOM      7  C   UNL     1       4.454   5.451  16.813  0.00  0.00    +0.000 A 
ATOM      8  C   UNL     1       5.085   6.172  15.785  0.00  0.00    +0.000 A 
ATOM      9  C   UNL     1       5.840   5.529  14.798  0.00  0.00    +0.000 A 
ATOM     10  C   UNL     1       6.013   4.146  14.823  0.00  0.00    +0.000 A 
ATOM     11  C   UNL     1       5.368   3.406  15.807  0.00  0.00    +0.000 A 
ATOM     12  C   UNL     1       4.610   4.053  16.795  0.00  0.00    +0.000 A 
BRANCH  10  13
ATOM     13  O   UNL     1       6.756   3.642  13.803  0.00  0.00    +0.000 OA
BRANCH  13  14
ATOM     14  C   UNL     1       6.168   3.503  12.516  0.00  0.00    +0.000 C 
ATOM     15  F   UNL     1       6.319   2.284  11.958  0.00  0.00    +0.000 F 
ATOM     16  F   UNL     1       4.848   3.779  12.600  0.00  0.00    +0.000 F 
ATOM     17  F   UNL     1       6.732   4.411  11.686  0.00  0.00    +0.000 F 
ENDBRANCH  13  14
ENDBRANCH  10  13
ENDBRANCH   4   7
BRANCH   1  18
ATOM     18  C   UNL     1       1.228   8.150  20.871  0.00  0.00    +0.000 C 
BRANCH  18  19
ATOM     19  O   UNL     1       0.894   9.441  20.370  0.00  0.00    +0.000 OA
BRANCH  19  20
ATOM     20  C   UNL     1      -0.504   9.642  20.186  0.00  0.00    +0.000 C 
BRANCH  20  22
ATOM     21  C   UNL     1       0.627  11.455  18.864  0.00  0.00    +0.000 C 
ATOM     22  C   UNL     1      -0.715  10.729  19.099  0.00  0.00    +0.000 C 
ATOM     23  C   UNL     1      -1.145  10.102  17.744  0.00  0.00    +0.000 C 
ATOM     24  C   UNL     1      -2.627  10.142  17.418  0.00  0.00    +0.000 C 
ATOM     25  N   UNL     1      -3.359  11.086  18.208  0.00  0.00    +0.000 N 
ATOM     26  C   UNL     1      -4.664  11.452  18.052  0.00  0.00    +0.000 A 
ATOM     27  C   UNL     1      -4.874  12.395  19.046  0.00  0.00    +0.000 A 
ATOM     28  N   UNL     1      -3.726  12.591  19.788  0.00  0.00    +0.000 NA
ATOM     29  C   UNL     1      -2.835  11.793  19.248  0.00  0.00    +0.000 A 
ATOM     30  O   UNL     1      -1.574  11.731  19.648  0.00  0.00    +0.000 OA
BRANCH  27  31
ATOM     31  N   UNL     1      -6.092  13.122  19.321  0.00  0.00    +0.000 N 
ATOM     32  O   UNL     1      -6.282  13.458  20.500  0.00  0.00    +0.000 OA
ATOM     33  O   UNL     1      -6.852  13.361  18.374  0.00  0.00    +0.000 OA
ENDBRANCH  27  31
ENDBRANCH  20  22
ENDBRANCH  19  20
ENDBRANCH  18  19
ENDBRANCH   1  18
TORSDOF 8
ENDMDL
MODEL 9
REMARK VINA RESULT:      -8.4      2.945      4.560
REMARK  Name = 
REMARK  9 active torsions:
REMARK  status: ('A' for Active; 'I' for Inactive)
REMARK    1  A    between atoms: C_1  and  C_2
REMARK    2  A    between atoms: C_2  and  C_3
REMARK    3  A    between atoms: C_3  and  O_4
REMARK    4  A    between atoms: O_4  and  C_5
REMARK    5  A    between atoms: C_5  and  C_6
REMARK    6  A    between atoms: C_9  and  C_10
REMARK    7  A    between atoms: C_13  and  O_14
REMARK    8  A    between atoms: O_14  and  C_15
REMARK    9  A    between atoms: C_27  and  N_28
REMARK                            x       y       z     vdW  Elec       q    Type
REMARK                         _______ _______ _______ _____ _____    ______ ____
ROOT
ATOM      1  C   UNL     1       1.791   7.720  20.131  0.00  0.00    +0.000 A 
ATOM      2  C   UNL     1       1.990   8.277  18.863  0.00  0.00    +0.000 A 
ATOM      3  C   UNL     1       2.746   7.611  17.894  0.00  0.00    +0.000 A 
ATOM      4  C   UNL     1       3.363   6.378  18.164  0.00  0.00    +0.000 A 
ATOM      5  C   UNL     1       3.183   5.843  19.453  0.00  0.00    +0.000 A 
ATOM      6  C   UNL     1       2.407   6.499  20.421  0.00  0.00    +0.000 A 
ENDROOT
BRANCH   4   7
ATOM      7  C   UNL     1       4.164   5.680  17.130  0.00  0.00    +0.000 A 
ATOM      8  C   UNL     1       4.227   4.277  17.073  0.00  0.00    +0.000 A 
ATOM      9  C   UNL     1       4.991   3.619  16.104  0.00  0.00    +0.000 A 
ATOM     10  C   UNL     1       5.694   4.341  15.141  0.00  0.00    +0.000 A 
ATOM     11  C   UNL     1       5.679   5.729  15.198  0.00  0.00    +0.000 A 
ATOM     12  C   UNL     1       4.913   6.388  16.172  0.00  0.00    +0.000 A 
BRANCH  10  13
ATOM     13  O   UNL     1       6.407   3.585  14.264  0.00  0.00    +0.000 OA
BRANCH  13  14
ATOM     14  C   UNL     1       6.033   3.575  12.891  0.00  0.00    +0.000 C 
ATOM     15  F   UNL     1       6.052   2.356  12.313  0.00  0.00    +0.000 F 
ATOM     16  F   UNL     1       4.792   4.094  12.766  0.00  0.00    +0.000 F 
ATOM     17  F   UNL     1       6.888   4.370  12.208  0.00  0.00    +0.000 F 
ENDBRANCH  13  14
ENDBRANCH  10  13
ENDBRANCH   4   7
BRANCH   1  18
ATOM     18  C   UNL     1       0.965   8.435  21.171  0.00  0.00    +0.000 C 
BRANCH  18  19
ATOM     19  O   UNL     1       0.055   9.295  20.491  0.00  0.00    +0.000 OA
BRANCH  19  20
ATOM     20  C   UNL     1       0.213  10.672  20.816  0.00  0.00    +0.000 C 
BRANCH  20  22
ATOM     21  C   UNL     1      -1.216  10.653  18.750  0.00  0.00    +0.000 C 
ATOM     22  C   UNL     1      -0.297  11.529  19.627  0.00  0.00    +0.000 C 
ATOM     23  C   UNL     1      -1.141  12.738  20.119  0.00  0.00    +0.000 C 
ATOM     24  C   UNL     1      -0.432  14.079  20.183  0.00  0.00    +0.000 C 
ATOM     25  N   UNL     1       0.780  14.120  19.421  0.00  0.00    +0.000 N 
ATOM     26  C   UNL     1       1.555  15.214  19.168  0.00  0.00    +0.000 A 
ATOM     27  C   UNL     1       2.586  14.725  18.382  0.00  0.00    +0.000 A 
ATOM     28  N   UNL     1       2.442  13.368  18.169  0.00  0.00    +0.000 NA
ATOM     29  C   UNL     1       1.339  13.043  18.802  0.00  0.00    +0.000 A 
ATOM     30  O   UNL     1       0.824  11.823  18.790  0.00  0.00    +0.000 OA
BRANCH  27  31
ATOM     31  N   UNL     1       3.687  15.472  17.818  0.00  0.00    +0.000 N 
ATOM     32  O   UNL     1       3.440  16.630  17.451  0.00  0.00    +0.000 OA
ATOM     33  O   UNL     1       4.790  14.914  17.745  0.00  0.00    +0.000 OA
ENDBRANCH  27  31
ENDBRANCH  20  22
ENDBRANCH  19  20
ENDBRANCH  18  19
ENDBRANCH   1  18
TORSDOF 8
ENDMDL
