MODEL 1
REMARK VINA RESULT:      -7.8      0.000      0.000
REMARK  Name = 
REMARK  6 active torsions:
REMARK  status: ('A' for Active; 'I' for Inactive)
REMARK    1  A    between atoms: C_1  and  C_2
REMARK    2  A    between atoms: N_4  and  C_5
REMARK    3  A    between atoms: C_11  and  C_12
REMARK    4  A    between atoms: C_13  and  C_14
REMARK    5  A    between atoms: C_21  and  C_23
REMARK    6  A    between atoms: C_27  and  C_28
REMARK                            x       y       z     vdW  Elec       q    Type
REMARK                         _______ _______ _______ _____ _____    ______ ____
ROOT
ATOM      1  C   UNL     1      -1.671  12.878  21.062  0.00  0.00    +0.000 C 
ATOM      2  C   UNL     1      -1.424  12.420  22.532  0.00  0.00    +0.000 C 
ATOM      3  O   UNL     1      -0.408  11.822  22.887  0.00  0.00    +0.000 OA
ATOM      4  N   UNL     1      -2.330  12.799  23.499  0.00  0.00    +0.000 N 
ATOM      5  C   UNL     1      -3.728  13.011  23.174  0.00  0.00    +0.000 C 
ATOM      6  C   UNL     1      -3.927  13.603  21.779  0.00  0.00    +0.000 C 
ATOM      7  N   UNL     1      -3.125  12.860  20.799  0.00  0.00    +0.000 N 
ATOM      8  C   UNL     1      -3.760  12.273  19.708  0.00  0.00    +0.000 C 
ATOM      9  O   UNL     1      -4.950  12.461  19.458  0.00  0.00    +0.000 OA
ATOM     10  H   UNL     1      -2.106  12.449  24.425  0.00  0.00    +0.000 HD
ENDROOT
BRANCH   1  17
ATOM     11  C   UNL     1      -1.449  15.754  22.808  0.00  0.00    +0.000 C 
ATOM     12  C   UNL     1      -0.961  15.415  21.447  0.00  0.00    +0.000 A 
ATOM     13  N   UNL     1      -0.325  16.382  20.782  0.00  0.00    +0.000 NA
ATOM     14  N   UNL     1      -0.218  15.933  19.516  0.00  0.00    +0.000 N 
ATOM     15  C   UNL     1      -0.557  14.591  19.423  0.00  0.00    +0.000 A 
ATOM     16  C   UNL     1      -0.351  13.762  18.202  0.00  0.00    +0.000 C 
ATOM     17  C   UNL     1      -1.059  14.213  20.673  0.00  0.00    +0.000 A 
BRANCH  14  18
ATOM     18  C   UNL     1       0.214  16.839  18.514  0.00  0.00    +0.000 A 
ATOM     19  C   UNL     1       1.585  16.914  18.221  0.00  0.00    +0.000 A 
ATOM     20  C   UNL     1       2.027  17.713  17.170  0.00  0.00    +0.000 A 
ATOM     21  C   UNL     1       1.112  18.464  16.432  0.00  0.00    +0.000 A 
ATOM     22  C   UNL     1      -0.242  18.450  16.772  0.00  0.00    +0.000 A 
ATOM     23  C   UNL     1      -0.688  17.652  17.821  0.00  0.00    +0.000 A 
ENDBRANCH  14  18
ENDBRANCH   1  17
BRANCH   8  24
ATOM     24  C   UNL     1      -3.000  11.418  18.756  0.00  0.00    +0.000 A 
ATOM     25  C   UNL     1      -3.605  11.041  17.552  0.00  0.00    +0.000 A 
ATOM     26  C   UNL     1      -2.905  10.262  16.628  0.00  0.00    +0.000 A 
ATOM     27  C   UNL     1      -1.596   9.860  16.903  0.00  0.00    +0.000 A 
ATOM     28  C   UNL     1      -0.990  10.202  18.120  0.00  0.00    +0.000 A 
ATOM     29  C   UNL     1      -1.721  10.945  19.060  0.00  0.00    +0.000 A 
BRANCH  28  30
ATOM     30  C   UNL     1       0.437   9.826  18.432  0.00  0.00    +0.000 C 
ATOM     31  F   UNL     1       1.309  10.866  18.352  0.00  0.00    +0.000 F 
ATOM     32  F   UNL     1       0.566   9.323  19.691  0.00  0.00    +0.000 F 
ATOM     33  F   UNL     1       0.913   8.865  17.594  0.00  0.00    +0.000 F 
ENDBRANCH  28  30
ENDBRANCH   8  24
TORSDOF 4
ENDMDL
MODEL 2
REMARK VINA RESULT:      -7.6      3.294      5.992
REMARK  Name = 
REMARK  6 active torsions:
REMARK  status: ('A' for Active; 'I' for Inactive)
REMARK    1  A    between atoms: C_1  and  C_2
REMARK    2  A    between atoms: N_4  and  C_5
REMARK    3  A    between atoms: C_11  and  C_12
REMARK    4  A    between atoms: C_13  and  C_14
REMARK    5  A    between atoms: C_21  and  C_23
REMARK    6  A    between atoms: C_27  and  C_28
REMARK                            x       y       z     vdW  Elec       q    Type
REMARK                         _______ _______ _______ _____ _____    ______ ____
ROOT
ATOM      1  C   UNL     1      -0.352  11.756  19.532  0.00  0.00    +0.000 C 
ATOM      2  C   UNL     1       0.128  13.240  19.501  0.00  0.00    +0.000 C 
ATOM      3  O   UNL     1       0.572  13.781  18.489  0.00  0.00    +0.000 OA
ATOM      4  N   UNL     1      -0.058  14.013  20.627  0.00  0.00    +0.000 N 
ATOM      5  C   UNL     1      -0.059  13.419  21.952  0.00  0.00    +0.000 C 
ATOM      6  C   UNL     1      -0.675  12.021  21.972  0.00  0.00    +0.000 C 
ATOM      7  N   UNL     1      -0.115  11.210  20.884  0.00  0.00    +0.000 N 
ATOM      8  C   UNL     1       0.515  10.006  21.190  0.00  0.00    +0.000 C 
ATOM      9  O   UNL     1       0.508   9.528  22.323  0.00  0.00    +0.000 OA
ATOM     10  H   UNL     1       0.294  14.960  20.532  0.00  0.00    +0.000 HD
ENDROOT
BRANCH   1  17
ATOM     11  C   UNL     1      -1.567   9.641  17.205  0.00  0.00    +0.000 C 
ATOM     12  C   UNL     1      -2.272  10.590  18.104  0.00  0.00    +0.000 A 
ATOM     13  N   UNL     1      -3.602  10.635  18.002  0.00  0.00    +0.000 NA
ATOM     14  N   UNL     1      -3.978  11.721  18.703  0.00  0.00    +0.000 N 
ATOM     15  C   UNL     1      -2.927  12.227  19.456  0.00  0.00    +0.000 A 
ATOM     16  C   UNL     1      -3.077  13.297  20.482  0.00  0.00    +0.000 C 
ATOM     17  C   UNL     1      -1.784  11.514  19.084  0.00  0.00    +0.000 A 
BRANCH  14  18
ATOM     18  C   UNL     1      -5.320  12.164  18.593  0.00  0.00    +0.000 A 
ATOM     19  C   UNL     1      -6.137  12.125  19.734  0.00  0.00    +0.000 A 
ATOM     20  C   UNL     1      -7.425  12.653  19.684  0.00  0.00    +0.000 A 
ATOM     21  C   UNL     1      -7.913  13.189  18.491  0.00  0.00    +0.000 A 
ATOM     22  C   UNL     1      -7.129  13.157  17.337  0.00  0.00    +0.000 A 
ATOM     23  C   UNL     1      -5.843  12.632  17.383  0.00  0.00    +0.000 A 
ENDBRANCH  14  18
ENDBRANCH   1  17
BRANCH   8  24
ATOM     24  C   UNL     1       1.194   9.213  20.130  0.00  0.00    +0.000 A 
ATOM     25  C   UNL     1       1.413   9.801  18.879  0.00  0.00    +0.000 A 
ATOM     26  C   UNL     1       2.072   9.090  17.873  0.00  0.00    +0.000 A 
ATOM     27  C   UNL     1       2.518   7.790  18.117  0.00  0.00    +0.000 A 
ATOM     28  C   UNL     1       2.275   7.175  19.353  0.00  0.00    +0.000 A 
ATOM     29  C   UNL     1       1.570   7.884  20.339  0.00  0.00    +0.000 A 
BRANCH  28  30
ATOM     30  C   UNL     1       2.782   5.790  19.668  0.00  0.00    +0.000 C 
ATOM     31  F   UNL     1       2.321   5.290  20.845  0.00  0.00    +0.000 F 
ATOM     32  F   UNL     1       2.426   4.889  18.711  0.00  0.00    +0.000 F 
ATOM     33  F   UNL     1       4.141   5.741  19.740  0.00  0.00    +0.000 F 
ENDBRANCH  28  30
ENDBRANCH   8  24
TORSDOF 4
ENDMDL
MODEL 3
REMARK VINA RESULT:      -7.6      3.798      6.586
REMARK  Name = 
REMARK  6 active torsions:
REMARK  status: ('A' for Active; 'I' for Inactive)
REMARK    1  A    between atoms: C_1  and  C_2
REMARK    2  A    between atoms: N_4  and  C_5
REMARK    3  A    between atoms: C_11  and  C_12
REMARK    4  A    between atoms: C_13  and  C_14
REMARK    5  A    between atoms: C_21  and  C_23
REMARK    6  A    between atoms: C_27  and  C_28
REMARK                            x       y       z     vdW  Elec       q    Type
REMARK                         _______ _______ _______ _____ _____    ______ ____
ROOT
ATOM      1  C   UNL     1      -1.108  11.292  20.822  0.00  0.00    +0.000 C 
ATOM      2  C   UNL     1      -1.309  11.931  22.230  0.00  0.00    +0.000 C 
ATOM      3  O   UNL     1      -2.156  11.537  23.032  0.00  0.00    +0.000 OA
ATOM      4  N   UNL     1      -0.425  12.906  22.641  0.00  0.00    +0.000 N 
ATOM      5  C   UNL     1       0.223  13.782  21.682  0.00  0.00    +0.000 C 
ATOM      6  C   UNL     1       0.542  13.080  20.363  0.00  0.00    +0.000 C 
ATOM      7  N   UNL     1      -0.634  12.338  19.892  0.00  0.00    +0.000 N 
ATOM      8  C   UNL     1      -1.154  12.619  18.630  0.00  0.00    +0.000 C 
ATOM      9  O   UNL     1      -0.590  13.372  17.838  0.00  0.00    +0.000 OA
ATOM     10  H   UNL     1      -0.633  13.280  23.561  0.00  0.00    +0.000 HD
ENDROOT
BRANCH   1  17
ATOM     11  C   UNL     1       0.167   9.436  23.330  0.00  0.00    +0.000 C 
ATOM     12  C   UNL     1       0.297   9.284  21.858  0.00  0.00    +0.000 A 
ATOM     13  N   UNL     1       1.028   8.253  21.426  0.00  0.00    +0.000 NA
ATOM     14  N   UNL     1       1.212   8.474  20.110  0.00  0.00    +0.000 N 
ATOM     15  C   UNL     1       0.401   9.501  19.650  0.00  0.00    +0.000 A 
ATOM     16  C   UNL     1       0.231   9.847  18.210  0.00  0.00    +0.000 C 
ATOM     17  C   UNL     1      -0.213  10.066  20.772  0.00  0.00    +0.000 A 
BRANCH  14  18
ATOM     18  C   UNL     1       2.146   7.664  19.415  0.00  0.00    +0.000 A 
ATOM     19  C   UNL     1       2.439   6.389  19.923  0.00  0.00    +0.000 A 
ATOM     20  C   UNL     1       3.268   5.530  19.206  0.00  0.00    +0.000 A 
ATOM     21  C   UNL     1       3.834   5.951  18.001  0.00  0.00    +0.000 A 
ATOM     22  C   UNL     1       3.605   7.247  17.535  0.00  0.00    +0.000 A 
ATOM     23  C   UNL     1       2.777   8.107  18.248  0.00  0.00    +0.000 A 
ENDBRANCH  14  18
ENDBRANCH   1  17
BRANCH   8  24
ATOM     24  C   UNL     1      -2.409  11.971  18.164  0.00  0.00    +0.000 A 
ATOM     25  C   UNL     1      -2.404  11.281  16.947  0.00  0.00    +0.000 A 
ATOM     26  C   UNL     1      -3.561  10.640  16.497  0.00  0.00    +0.000 A 
ATOM     27  C   UNL     1      -4.726  10.683  17.267  0.00  0.00    +0.000 A 
ATOM     28  C   UNL     1      -4.755  11.399  18.472  0.00  0.00    +0.000 A 
ATOM     29  C   UNL     1      -3.599  12.078  18.888  0.00  0.00    +0.000 A 
BRANCH  28  30
ATOM     30  C   UNL     1      -5.980  11.428  19.351  0.00  0.00    +0.000 C 
ATOM     31  F   UNL     1      -5.738  11.864  20.616  0.00  0.00    +0.000 F 
ATOM     32  F   UNL     1      -6.946  12.247  18.849  0.00  0.00    +0.000 F 
ATOM     33  F   UNL     1      -6.557  10.202  19.475  0.00  0.00    +0.000 F 
ENDBRANCH  28  30
ENDBRANCH   8  24
TORSDOF 4
ENDMDL
MODEL 4
REMARK VINA RESULT:      -7.6      3.422      6.375
REMARK  Name = 
REMARK  6 active torsions:
REMARK  status: ('A' for Active; 'I' for Inactive)
REMARK    1  A    between atoms: C_1  and  C_2
REMARK    2  A    between atoms: N_4  and  C_5
REMARK    3  A    between atoms: C_11  and  C_12
REMARK    4  A    between atoms: C_13  and  C_14
REMARK    5  A    between atoms: C_21  and  C_23
REMARK    6  A    between atoms: C_27  and  C_28
REMARK                            x       y       z     vdW  Elec       q    Type
REMARK                         _______ _______ _______ _____ _____    ______ ____
ROOT
ATOM      1  C   UNL     1      -1.054  11.297  20.831  0.00  0.00    +0.000 C 
ATOM      2  C   UNL     1      -1.311  11.887  22.252  0.00  0.00    +0.000 C 
ATOM      3  O   UNL     1      -2.185  11.464  23.007  0.00  0.00    +0.000 OA
ATOM      4  N   UNL     1      -0.446  12.850  22.727  0.00  0.00    +0.000 N 
ATOM      5  C   UNL     1       0.233  13.760  21.824  0.00  0.00    +0.000 C 
ATOM      6  C   UNL     1       0.604  13.103  20.495  0.00  0.00    +0.000 C 
ATOM      7  N   UNL     1      -0.550  12.374  19.955  0.00  0.00    +0.000 N 
ATOM      8  C   UNL     1      -1.023  12.697  18.685  0.00  0.00    +0.000 C 
ATOM      9  O   UNL     1      -0.433  13.478  17.941  0.00  0.00    +0.000 OA
ATOM     10  H   UNL     1      -0.690  13.192  23.652  0.00  0.00    +0.000 HD
ENDROOT
BRANCH   1  17
ATOM     11  C   UNL     1       0.258   9.453  23.328  0.00  0.00    +0.000 C 
ATOM     12  C   UNL     1       0.373   9.298  21.856  0.00  0.00    +0.000 A 
ATOM     13  N   UNL     1       1.105   8.271  21.417  0.00  0.00    +0.000 NA
ATOM     14  N   UNL     1       1.274   8.490  20.099  0.00  0.00    +0.000 N 
ATOM     15  C   UNL     1       0.451   9.512  19.646  0.00  0.00    +0.000 A 
ATOM     16  C   UNL     1       0.264   9.854  18.207  0.00  0.00    +0.000 C 
ATOM     17  C   UNL     1      -0.154  10.075  20.773  0.00  0.00    +0.000 A 
BRANCH  14  18
ATOM     18  C   UNL     1       2.204   7.684  19.395  0.00  0.00    +0.000 A 
ATOM     19  C   UNL     1       2.525   6.419  19.913  0.00  0.00    +0.000 A 
ATOM     20  C   UNL     1       3.351   5.563  19.190  0.00  0.00    +0.000 A 
ATOM     21  C   UNL     1       3.886   5.975  17.968  0.00  0.00    +0.000 A 
ATOM     22  C   UNL     1       3.629   7.261  17.491  0.00  0.00    +0.000 A 
ATOM     23  C   UNL     1       2.804   8.120  18.210  0.00  0.00    +0.000 A 
ENDBRANCH  14  18
ENDBRANCH   1  17
BRANCH   8  24
ATOM     24  C   UNL     1      -2.258  12.061  18.151  0.00  0.00    +0.000 A 
ATOM     25  C   UNL     1      -3.456  12.206  18.859  0.00  0.00    +0.000 A 
ATOM     26  C   UNL     1      -4.636  11.643  18.367  0.00  0.00    +0.000 A 
ATOM     27  C   UNL     1      -4.622  10.937  17.163  0.00  0.00    +0.000 A 
ATOM     28  C   UNL     1      -3.423  10.754  16.460  0.00  0.00    +0.000 A 
ATOM     29  C   UNL     1      -2.236  11.285  16.989  0.00  0.00    +0.000 A 
BRANCH  28  30
ATOM     30  C   UNL     1      -3.378  10.038  15.133  0.00  0.00    +0.000 C 
ATOM     31  F   UNL     1      -4.600   9.654  14.674  0.00  0.00    +0.000 F 
ATOM     32  F   UNL     1      -2.835  10.814  14.155  0.00  0.00    +0.000 F 
ATOM     33  F   UNL     1      -2.618   8.909  15.181  0.00  0.00    +0.000 F 
ENDBRANCH  28  30
ENDBRANCH   8  24
TORSDOF 4
ENDMDL
MODEL 5
REMARK VINA RESULT:      -7.5      3.789      6.585
REMARK  Name = 
REMARK  6 active torsions:
REMARK  status: ('A' for Active; 'I' for Inactive)
REMARK    1  A    between atoms: C_1  and  C_2
REMARK    2  A    between atoms: N_4  and  C_5
REMARK    3  A    between atoms: C_11  and  C_12
REMARK    4  A    between atoms: C_13  and  C_14
REMARK    5  A    between atoms: C_21  and  C_23
REMARK    6  A    between atoms: C_27  and  C_28
REMARK                            x       y       z     vdW  Elec       q    Type
REMARK                         _______ _______ _______ _____ _____    ______ ____
ROOT
ATOM      1  C   UNL     1      -1.120  11.324  20.853  0.00  0.00    +0.000 C 
ATOM      2  C   UNL     1      -1.323  11.970  22.258  0.00  0.00    +0.000 C 
ATOM      3  O   UNL     1      -2.181  11.590  23.054  0.00  0.00    +0.000 OA
ATOM      4  N   UNL     1      -0.430  12.935  22.671  0.00  0.00    +0.000 N 
ATOM      5  C   UNL     1       0.236  13.800  21.715  0.00  0.00    +0.000 C 
ATOM      6  C   UNL     1       0.556  13.089  20.400  0.00  0.00    +0.000 C 
ATOM      7  N   UNL     1      -0.625  12.360  19.923  0.00  0.00    +0.000 N 
ATOM      8  C   UNL     1      -1.132  12.644  18.657  0.00  0.00    +0.000 C 
ATOM      9  O   UNL     1      -0.552  13.387  17.867  0.00  0.00    +0.000 OA
ATOM     10  H   UNL     1      -0.640  13.316  23.589  0.00  0.00    +0.000 HD
ENDROOT
BRANCH   1  17
ATOM     11  C   UNL     1       0.138   9.479  23.378  0.00  0.00    +0.000 C 
ATOM     12  C   UNL     1       0.263   9.309  21.908  0.00  0.00    +0.000 A 
ATOM     13  N   UNL     1       0.980   8.265  21.485  0.00  0.00    +0.000 NA
ATOM     14  N   UNL     1       1.164   8.470  20.167  0.00  0.00    +0.000 N 
ATOM     15  C   UNL     1       0.364   9.502  19.697  0.00  0.00    +0.000 A 
ATOM     16  C   UNL     1       0.195   9.835  18.254  0.00  0.00    +0.000 C 
ATOM     17  C   UNL     1      -0.240  10.086  20.814  0.00  0.00    +0.000 A 
BRANCH  14  18
ATOM     18  C   UNL     1       2.086   7.641  19.478  0.00  0.00    +0.000 A 
ATOM     19  C   UNL     1       2.643   8.107  18.277  0.00  0.00    +0.000 A 
ATOM     20  C   UNL     1       3.630   7.364  17.635  0.00  0.00    +0.000 A 
ATOM     21  C   UNL     1       4.040   6.142  18.169  0.00  0.00    +0.000 A 
ATOM     22  C   UNL     1       3.432   5.641  19.321  0.00  0.00    +0.000 A 
ATOM     23  C   UNL     1       2.446   6.381  19.965  0.00  0.00    +0.000 A 
ENDBRANCH  14  18
ENDBRANCH   1  17
BRANCH   8  24
ATOM     24  C   UNL     1      -2.392  12.010  18.183  0.00  0.00    +0.000 A 
ATOM     25  C   UNL     1      -2.395  11.343  16.953  0.00  0.00    +0.000 A 
ATOM     26  C   UNL     1      -3.556  10.715  16.496  0.00  0.00    +0.000 A 
ATOM     27  C   UNL     1      -4.717  10.749  17.270  0.00  0.00    +0.000 A 
ATOM     28  C   UNL     1      -4.739  11.442  18.488  0.00  0.00    +0.000 A 
ATOM     29  C   UNL     1      -3.579  12.109  18.913  0.00  0.00    +0.000 A 
BRANCH  28  30
ATOM     30  C   UNL     1      -5.961  11.461  19.373  0.00  0.00    +0.000 C 
ATOM     31  F   UNL     1      -6.524  10.236  19.558  0.00  0.00    +0.000 F 
ATOM     32  F   UNL     1      -5.680  11.938  20.617  0.00  0.00    +0.000 F 
ATOM     33  F   UNL     1      -6.945  12.260  18.878  0.00  0.00    +0.000 F 
ENDBRANCH  28  30
ENDBRANCH   8  24
TORSDOF 4
ENDMDL
MODEL 6
REMARK VINA RESULT:      -7.5      3.309      6.005
REMARK  Name = 
REMARK  6 active torsions:
REMARK  status: ('A' for Active; 'I' for Inactive)
REMARK    1  A    between atoms: C_1  and  C_2
REMARK    2  A    between atoms: N_4  and  C_5
REMARK    3  A    between atoms: C_11  and  C_12
REMARK    4  A    between atoms: C_13  and  C_14
REMARK    5  A    between atoms: C_21  and  C_23
REMARK    6  A    between atoms: C_27  and  C_28
REMARK                            x       y       z     vdW  Elec       q    Type
REMARK                         _______ _______ _______ _____ _____    ______ ____
ROOT
ATOM      1  C   UNL     1      -0.233  11.761  19.502  0.00  0.00    +0.000 C 
ATOM      2  C   UNL     1       0.288  13.229  19.424  0.00  0.00    +0.000 C 
ATOM      3  O   UNL     1       0.729  13.731  18.390  0.00  0.00    +0.000 OA
ATOM      4  N   UNL     1       0.145  14.036  20.532  0.00  0.00    +0.000 N 
ATOM      5  C   UNL     1       0.152  13.478  21.872  0.00  0.00    +0.000 C 
ATOM      6  C   UNL     1      -0.503  12.099  21.940  0.00  0.00    +0.000 C 
ATOM      7  N   UNL     1       0.013  11.244  20.863  0.00  0.00    +0.000 N 
ATOM      8  C   UNL     1       0.615  10.031  21.191  0.00  0.00    +0.000 C 
ATOM      9  O   UNL     1       0.614   9.583  22.336  0.00  0.00    +0.000 OA
ATOM     10  H   UNL     1       0.522  14.970  20.406  0.00  0.00    +0.000 HD
ENDROOT
BRANCH   1  17
ATOM     11  C   UNL     1      -1.539   9.700  17.177  0.00  0.00    +0.000 C 
ATOM     12  C   UNL     1      -2.206  10.647  18.106  0.00  0.00    +0.000 A 
ATOM     13  N   UNL     1      -3.537  10.715  18.036  0.00  0.00    +0.000 NA
ATOM     14  N   UNL     1      -3.878  11.798  18.762  0.00  0.00    +0.000 N 
ATOM     15  C   UNL     1      -2.801  12.275  19.495  0.00  0.00    +0.000 A 
ATOM     16  C   UNL     1      -2.908  13.333  20.540  0.00  0.00    +0.000 C 
ATOM     17  C   UNL     1      -1.679  11.549  19.086  0.00  0.00    +0.000 A 
BRANCH  14  18
ATOM     18  C   UNL     1      -5.215  12.264  18.691  0.00  0.00    +0.000 A 
ATOM     19  C   UNL     1      -5.713  12.691  17.450  0.00  0.00    +0.000 A 
ATOM     20  C   UNL     1      -7.052  13.053  17.327  0.00  0.00    +0.000 A 
ATOM     21  C   UNL     1      -7.889  13.021  18.444  0.00  0.00    +0.000 A 
ATOM     22  C   UNL     1      -7.375  12.671  19.693  0.00  0.00    +0.000 A 
ATOM     23  C   UNL     1      -6.038  12.309  19.820  0.00  0.00    +0.000 A 
ENDBRANCH  14  18
ENDBRANCH   1  17
BRANCH   8  24
ATOM     24  C   UNL     1       1.251   9.191  20.140  0.00  0.00    +0.000 A 
ATOM     25  C   UNL     1       1.468   9.742  18.871  0.00  0.00    +0.000 A 
ATOM     26  C   UNL     1       2.088   8.986  17.874  0.00  0.00    +0.000 A 
ATOM     27  C   UNL     1       2.498   7.678  18.142  0.00  0.00    +0.000 A 
ATOM     28  C   UNL     1       2.256   7.102  19.397  0.00  0.00    +0.000 A 
ATOM     29  C   UNL     1       1.590   7.857  20.376  0.00  0.00    +0.000 A 
BRANCH  28  30
ATOM     30  C   UNL     1       2.725   5.710  19.738  0.00  0.00    +0.000 C 
ATOM     31  F   UNL     1       2.364   4.769  18.825  0.00  0.00    +0.000 F 
ATOM     32  F   UNL     1       4.082   5.640  19.834  0.00  0.00    +0.000 F 
ATOM     33  F   UNL     1       2.242   5.281  20.936  0.00  0.00    +0.000 F 
ENDBRANCH  28  30
ENDBRANCH   8  24
TORSDOF 4
ENDMDL
MODEL 7
REMARK VINA RESULT:      -7.4      3.404      6.348
REMARK  Name = 
REMARK  6 active torsions:
REMARK  status: ('A' for Active; 'I' for Inactive)
REMARK    1  A    between atoms: C_1  and  C_2
REMARK    2  A    between atoms: N_4  and  C_5
REMARK    3  A    between atoms: C_11  and  C_12
REMARK    4  A    between atoms: C_13  and  C_14
REMARK    5  A    between atoms: C_21  and  C_23
REMARK    6  A    between atoms: C_27  and  C_28
REMARK                            x       y       z     vdW  Elec       q    Type
REMARK                         _______ _______ _______ _____ _____    ______ ____
ROOT
ATOM      1  C   UNL     1      -1.088  11.314  20.887  0.00  0.00    +0.000 C 
ATOM      2  C   UNL     1      -1.349  11.907  22.305  0.00  0.00    +0.000 C 
ATOM      3  O   UNL     1      -2.233  11.492  23.054  0.00  0.00    +0.000 OA
ATOM      4  N   UNL     1      -0.479  12.861  22.788  0.00  0.00    +0.000 N 
ATOM      5  C   UNL     1       0.216  13.764  21.889  0.00  0.00    +0.000 C 
ATOM      6  C   UNL     1       0.591  13.104  20.563  0.00  0.00    +0.000 C 
ATOM      7  N   UNL     1      -0.567  12.386  20.015  0.00  0.00    +0.000 N 
ATOM      8  C   UNL     1      -1.027  12.713  18.741  0.00  0.00    +0.000 C 
ATOM      9  O   UNL     1      -0.424  13.489  18.001  0.00  0.00    +0.000 OA
ATOM     10  H   UNL     1      -0.726  13.206  23.710  0.00  0.00    +0.000 HD
ENDROOT
BRANCH   1  17
ATOM     11  C   UNL     1       0.224   9.482  23.394  0.00  0.00    +0.000 C 
ATOM     12  C   UNL     1       0.328   9.312  21.923  0.00  0.00    +0.000 A 
ATOM     13  N   UNL     1       1.048   8.274  21.490  0.00  0.00    +0.000 NA
ATOM     14  N   UNL     1       1.210   8.479  20.169  0.00  0.00    +0.000 N 
ATOM     15  C   UNL     1       0.395   9.503  19.710  0.00  0.00    +0.000 A 
ATOM     16  C   UNL     1       0.201   9.833  18.269  0.00  0.00    +0.000 C 
ATOM     17  C   UNL     1      -0.198  10.083  20.836  0.00  0.00    +0.000 A 
BRANCH  14  18
ATOM     18  C   UNL     1       2.129   7.658  19.467  0.00  0.00    +0.000 A 
ATOM     19  C   UNL     1       2.659   8.125  18.254  0.00  0.00    +0.000 A 
ATOM     20  C   UNL     1       3.643   7.390  17.598  0.00  0.00    +0.000 A 
ATOM     21  C   UNL     1       4.077   6.174  18.129  0.00  0.00    +0.000 A 
ATOM     22  C   UNL     1       3.495   5.672  19.294  0.00  0.00    +0.000 A 
ATOM     23  C   UNL     1       2.512   6.403  19.953  0.00  0.00    +0.000 A 
ENDBRANCH  14  18
ENDBRANCH   1  17
BRANCH   8  24
ATOM     24  C   UNL     1      -2.264  12.089  18.198  0.00  0.00    +0.000 A 
ATOM     25  C   UNL     1      -3.465  12.243  18.899  0.00  0.00    +0.000 A 
ATOM     26  C   UNL     1      -4.647  11.691  18.399  0.00  0.00    +0.000 A 
ATOM     27  C   UNL     1      -4.632  10.987  17.193  0.00  0.00    +0.000 A 
ATOM     28  C   UNL     1      -3.430  10.796  16.497  0.00  0.00    +0.000 A 
ATOM     29  C   UNL     1      -2.242  11.316  17.035  0.00  0.00    +0.000 A 
BRANCH  28  30
ATOM     30  C   UNL     1      -3.383  10.083  15.169  0.00  0.00    +0.000 C 
ATOM     31  F   UNL     1      -3.137  10.903  14.112  0.00  0.00    +0.000 F 
ATOM     32  F   UNL     1      -2.412   9.128  15.139  0.00  0.00    +0.000 F 
ATOM     33  F   UNL     1      -4.549   9.439  14.886  0.00  0.00    +0.000 F 
ENDBRANCH  28  30
ENDBRANCH   8  24
TORSDOF 4
ENDMDL
MODEL 8
REMARK VINA RESULT:      -7.4      1.691      2.450
REMARK  Name = 
REMARK  6 active torsions:
REMARK  status: ('A' for Active; 'I' for Inactive)
REMARK    1  A    between atoms: C_1  and  C_2
REMARK    2  A    between atoms: N_4  and  C_5
REMARK    3  A    between atoms: C_11  and  C_12
REMARK    4  A    between atoms: C_13  and  C_14
REMARK    5  A    between atoms: C_21  and  C_23
REMARK    6  A    between atoms: C_27  and  C_28
REMARK                            x       y       z     vdW  Elec       q    Type
REMARK                         _______ _______ _______ _____ _____    ______ ____
ROOT
ATOM      1  C   UNL     1      -2.178  12.700  20.859  0.00  0.00    +0.000 C 
ATOM      2  C   UNL     1      -2.952  12.634  22.212  0.00  0.00    +0.000 C 
ATOM      3  O   UNL     1      -2.391  12.527  23.302  0.00  0.00    +0.000 OA
ATOM      4  N   UNL     1      -4.318  12.818  22.196  0.00  0.00    +0.000 N 
ATOM      5  C   UNL     1      -5.112  12.437  21.043  0.00  0.00    +0.000 C 
ATOM      6  C   UNL     1      -4.376  12.656  19.721  0.00  0.00    +0.000 C 
ATOM      7  N   UNL     1      -3.020  12.100  19.804  0.00  0.00    +0.000 N 
ATOM      8  C   UNL     1      -2.624  11.136  18.879  0.00  0.00    +0.000 C 
ATOM      9  O   UNL     1      -3.320  10.824  17.914  0.00  0.00    +0.000 OA
ATOM     10  H   UNL     1      -4.747  12.745  23.113  0.00  0.00    +0.000 HD
ENDROOT
BRANCH   1  17
ATOM     11  C   UNL     1      -3.321  15.761  21.689  0.00  0.00    +0.000 C 
ATOM     12  C   UNL     1      -2.173  15.361  20.836  0.00  0.00    +0.000 A 
ATOM     13  N   UNL     1      -1.455  16.350  20.297  0.00  0.00    +0.000 NA
ATOM     14  N   UNL     1      -0.663  15.759  19.383  0.00  0.00    +0.000 N 
ATOM     15  C   UNL     1      -0.689  14.377  19.507  0.00  0.00    +0.000 A 
ATOM     16  C   UNL     1       0.228  13.457  18.775  0.00  0.00    +0.000 C 
ATOM     17  C   UNL     1      -1.677  14.074  20.448  0.00  0.00    +0.000 A 
BRANCH  14  18
ATOM     18  C   UNL     1       0.058  16.583  18.482  0.00  0.00    +0.000 A 
ATOM     19  C   UNL     1      -0.659  17.451  17.643  0.00  0.00    +0.000 A 
ATOM     20  C   UNL     1       0.024  18.348  16.826  0.00  0.00    +0.000 A 
ATOM     21  C   UNL     1       1.420  18.360  16.817  0.00  0.00    +0.000 A 
ATOM     22  C   UNL     1       2.133  17.444  17.592  0.00  0.00    +0.000 A 
ATOM     23  C   UNL     1       1.454  16.547  18.410  0.00  0.00    +0.000 A 
ENDBRANCH  14  18
ENDBRANCH   1  17
BRANCH   8  24
ATOM     24  C   UNL     1      -1.300  10.467  18.999  0.00  0.00    +0.000 A 
ATOM     25  C   UNL     1      -0.492  10.355  17.861  0.00  0.00    +0.000 A 
ATOM     26  C   UNL     1       0.766   9.757  17.950  0.00  0.00    +0.000 A 
ATOM     27  C   UNL     1       1.224   9.273  19.177  0.00  0.00    +0.000 A 
ATOM     28  C   UNL     1       0.412   9.347  20.317  0.00  0.00    +0.000 A 
ATOM     29  C   UNL     1      -0.870   9.908  20.205  0.00  0.00    +0.000 A 
BRANCH  28  30
ATOM     30  C   UNL     1       0.890   8.877  21.668  0.00  0.00    +0.000 C 
ATOM     31  F   UNL     1       1.441   7.634  21.654  0.00  0.00    +0.000 F 
ATOM     32  F   UNL     1       1.841   9.704  22.186  0.00  0.00    +0.000 F 
ATOM     33  F   UNL     1      -0.113   8.839  22.587  0.00  0.00    +0.000 F 
ENDBRANCH  28  30
ENDBRANCH   8  24
TORSDOF 4
ENDMDL
MODEL 9
REMARK VINA RESULT:      -7.2      6.380      9.243
REMARK  Name = 
REMARK  6 active torsions:
REMARK  status: ('A' for Active; 'I' for Inactive)
REMARK    1  A    between atoms: C_1  and  C_2
REMARK    2  A    between atoms: N_4  and  C_5
REMARK    3  A    between atoms: C_11  and  C_12
REMARK    4  A    between atoms: C_13  and  C_14
REMARK    5  A    between atoms: C_21  and  C_23
REMARK    6  A    between atoms: C_27  and  C_28
REMARK                            x       y       z     vdW  Elec       q    Type
REMARK                         _______ _______ _______ _____ _____    ______ ____
ROOT
ATOM      1  C   UNL     1       3.016   5.719  19.396  0.00  0.00    +0.000 C 
ATOM      2  C   UNL     1       2.263   4.780  20.389  0.00  0.00    +0.000 C 
ATOM      3  O   UNL     1       2.395   4.850  21.610  0.00  0.00    +0.000 OA
ATOM      4  N   UNL     1       1.323   3.909  19.882  0.00  0.00    +0.000 N 
ATOM      5  C   UNL     1       1.444   3.373  18.539  0.00  0.00    +0.000 C 
ATOM      6  C   UNL     1       2.050   4.374  17.556  0.00  0.00    +0.000 C 
ATOM      7  N   UNL     1       3.252   4.984  18.137  0.00  0.00    +0.000 N 
ATOM      8  C   UNL     1       4.462   4.881  17.454  0.00  0.00    +0.000 C 
ATOM      9  O   UNL     1       4.541   4.414  16.319  0.00  0.00    +0.000 OA
ATOM     10  H   UNL     1       0.889   3.324  20.590  0.00  0.00    +0.000 HD
ENDROOT
BRANCH   1  17
ATOM     11  C   UNL     1       3.494   7.902  16.872  0.00  0.00    +0.000 C 
ATOM     12  C   UNL     1       2.573   7.963  18.036  0.00  0.00    +0.000 A 
ATOM     13  N   UNL     1       1.793   9.043  18.125  0.00  0.00    +0.000 NA
ATOM     14  N   UNL     1       1.259   8.997  19.361  0.00  0.00    +0.000 N 
ATOM     15  C   UNL     1       1.495   7.772  19.970  0.00  0.00    +0.000 A 
ATOM     16  C   UNL     1       0.867   7.344  21.252  0.00  0.00    +0.000 C 
ATOM     17  C   UNL     1       2.364   7.065  19.132  0.00  0.00    +0.000 A 
BRANCH  14  18
ATOM     18  C   UNL     1       0.558  10.134  19.836  0.00  0.00    +0.000 A 
ATOM     19  C   UNL     1      -0.599  10.544  19.156  0.00  0.00    +0.000 A 
ATOM     20  C   UNL     1      -1.367  11.590  19.661  0.00  0.00    +0.000 A 
ATOM     21  C   UNL     1      -0.967  12.252  20.823  0.00  0.00    +0.000 A 
ATOM     22  C   UNL     1       0.225  11.896  21.455  0.00  0.00    +0.000 A 
ATOM     23  C   UNL     1       0.995  10.851  20.955  0.00  0.00    +0.000 A 
ENDBRANCH  14  18
ENDBRANCH   1  17
BRANCH   8  24
ATOM     24  C   UNL     1       5.723   5.385  18.063  0.00  0.00    +0.000 A 
ATOM     25  C   UNL     1       6.385   4.592  19.007  0.00  0.00    +0.000 A 
ATOM     26  C   UNL     1       7.584   5.028  19.575  0.00  0.00    +0.000 A 
ATOM     27  C   UNL     1       8.128   6.257  19.197  0.00  0.00    +0.000 A 
ATOM     28  C   UNL     1       7.459   7.077  18.278  0.00  0.00    +0.000 A 
ATOM     29  C   UNL     1       6.231   6.649  17.751  0.00  0.00    +0.000 A 
BRANCH  28  30
ATOM     30  C   UNL     1       8.040   8.389  17.812  0.00  0.00    +0.000 C 
ATOM     31  F   UNL     1       8.903   8.954  18.697  0.00  0.00    +0.000 F 
ATOM     32  F   UNL     1       8.731   8.252  16.646  0.00  0.00    +0.000 F 
ATOM     33  F   UNL     1       7.079   9.322  17.569  0.00  0.00    +0.000 F 
ENDBRANCH  28  30
ENDBRANCH   8  24
TORSDOF 4
ENDMDL
