MODEL 1
REMARK VINA RESULT:      -7.6      0.000      0.000
REMARK  Name = 
REMARK  5 active torsions:
REMARK  status: ('A' for Active; 'I' for Inactive)
REMARK    1  A    between atoms: C_1  and  C_2
REMARK    2  A    between atoms: C_11  and  C_12
REMARK    3  A    between atoms: C_12  and  N_13
REMARK    4  A    between atoms: C_17  and  C_18
REMARK    5  A    between atoms: C_18  and  N_19
REMARK                            x       y       z     vdW  Elec       q    Type
REMARK                         _______ _______ _______ _____ _____    ______ ____
ROOT
ATOM      1  C   UNL     1       3.906   2.404  19.728  0.00  0.00    +0.000 C 
ENDROOT
BRANCH   1  12
ATOM      2  C   UNL     1       2.928   3.490  17.166  0.00  0.00    +0.000 C 
ATOM      3  C   UNL     1       4.377   3.589  17.557  0.00  0.00    +0.000 A 
ATOM      4  N   UNL     1       5.096   4.319  16.683  0.00  0.00    +0.000 NA
ATOM      5  C   UNL     1       6.079   5.044  17.204  0.00  0.00    +0.000 A 
ATOM      6  C   UNL     1       6.610   6.019  16.382  0.00  0.00    +0.000 A 
ATOM      7  C   UNL     1       7.437   7.004  16.910  0.00  0.00    +0.000 A 
ATOM      8  C   UNL     1       7.777   6.951  18.246  0.00  0.00    +0.000 A 
ATOM      9  C   UNL     1       7.314   5.902  19.057  0.00  0.00    +0.000 A 
ATOM     10  C   UNL     1       6.437   4.931  18.567  0.00  0.00    +0.000 A 
ATOM     11  N   UNL     1       5.864   3.990  19.376  0.00  0.00    +0.000 NA
ATOM     12  C   UNL     1       4.797   3.310  18.866  0.00  0.00    +0.000 A 
ENDBRANCH   1  12
BRANCH   1  13
ATOM     13  N   UNL     1       2.806   2.947  20.488  0.00  0.00    +0.000 NA
ATOM     14  C   UNL     1       1.492   2.374  20.437  0.00  0.00    +0.000 C 
ATOM     15  C   UNL     1       0.448   3.395  19.972  0.00  0.00    +0.000 C 
ATOM     16  O   UNL     1       0.729   4.794  20.083  0.00  0.00    +0.000 OA
ATOM     17  C   UNL     1       1.937   5.254  20.709  0.00  0.00    +0.000 C 
ATOM     18  C   UNL     1       2.873   4.161  21.258  0.00  0.00    +0.000 C 
BRANCH  17  19
ATOM     19  C   UNL     1       2.703   6.158  19.735  0.00  0.00    +0.000 C 
BRANCH  19  20
ATOM     20  N   UNL     1       2.067   7.458  19.560  0.00  0.00    +0.000 N 
ATOM     21  C   UNL     1       2.072   8.221  18.429  0.00  0.00    +0.000 A 
ATOM     22  C   UNL     1       1.413   9.385  18.744  0.00  0.00    +0.000 A 
ATOM     23  C   UNL     1       1.059   9.234  20.098  0.00  0.00    +0.000 A 
ATOM     24  N   UNL     1       1.480   8.069  20.613  0.00  0.00    +0.000 NA
ENDBRANCH  19  20
ENDBRANCH  17  19
ENDBRANCH   1  13
TORSDOF 4
ENDMDL
MODEL 2
REMARK VINA RESULT:      -7.4      2.102      3.200
REMARK  Name = 
REMARK  5 active torsions:
REMARK  status: ('A' for Active; 'I' for Inactive)
REMARK    1  A    between atoms: C_1  and  C_2
REMARK    2  A    between atoms: C_11  and  C_12
REMARK    3  A    between atoms: C_12  and  N_13
REMARK    4  A    between atoms: C_17  and  C_18
REMARK    5  A    between atoms: C_18  and  N_19
REMARK                            x       y       z     vdW  Elec       q    Type
REMARK                         _______ _______ _______ _____ _____    ______ ____
ROOT
ATOM      1  C   UNL     1       5.287   3.924  18.557  0.00  0.00    +0.000 C 
ENDROOT
BRANCH   1  12
ATOM      2  C   UNL     1       7.976   5.072  18.169  0.00  0.00    +0.000 C 
ATOM      3  C   UNL     1       6.942   5.115  17.079  0.00  0.00    +0.000 A 
ATOM      4  N   UNL     1       7.433   5.603  15.924  0.00  0.00    +0.000 NA
ATOM      5  C   UNL     1       6.939   5.070  14.813  0.00  0.00    +0.000 A 
ATOM      6  C   UNL     1       7.645   5.331  13.654  0.00  0.00    +0.000 A 
ATOM      7  C   UNL     1       7.382   4.604  12.497  0.00  0.00    +0.000 A 
ATOM      8  C   UNL     1       6.362   3.676  12.503  0.00  0.00    +0.000 A 
ATOM      9  C   UNL     1       5.582   3.485  13.655  0.00  0.00    +0.000 A 
ATOM     10  C   UNL     1       5.860   4.159  14.848  0.00  0.00    +0.000 A 
ATOM     11  N   UNL     1       5.205   3.878  16.014  0.00  0.00    +0.000 NA
ATOM     12  C   UNL     1       5.766   4.355  17.162  0.00  0.00    +0.000 A 
ENDBRANCH   1  12
BRANCH   1  13
ATOM     13  N   UNL     1       3.885   3.934  18.899  0.00  0.00    +0.000 NA
ATOM     14  C   UNL     1       2.959   2.998  18.330  0.00  0.00    +0.000 C 
ATOM     15  C   UNL     1       1.821   3.708  17.589  0.00  0.00    +0.000 C 
ATOM     16  O   UNL     1       1.523   5.075  17.894  0.00  0.00    +0.000 OA
ATOM     17  C   UNL     1       2.215   5.760  18.949  0.00  0.00    +0.000 C 
ATOM     18  C   UNL     1       3.257   4.933  19.723  0.00  0.00    +0.000 C 
BRANCH  17  19
ATOM     19  C   UNL     1       2.867   7.031  18.390  0.00  0.00    +0.000 C 
BRANCH  19  20
ATOM     20  N   UNL     1       2.084   8.230  18.665  0.00  0.00    +0.000 N 
ATOM     21  C   UNL     1       1.880   9.281  17.820  0.00  0.00    +0.000 A 
ATOM     22  C   UNL     1       1.144  10.205  18.523  0.00  0.00    +0.000 A 
ATOM     23  C   UNL     1       0.965   9.623  19.792  0.00  0.00    +0.000 A 
ATOM     24  N   UNL     1       1.561   8.426  19.896  0.00  0.00    +0.000 NA
ENDBRANCH  19  20
ENDBRANCH  17  19
ENDBRANCH   1  13
TORSDOF 4
ENDMDL
MODEL 3
REMARK VINA RESULT:      -6.9      2.260      4.814
REMARK  Name = 
REMARK  5 active torsions:
REMARK  status: ('A' for Active; 'I' for Inactive)
REMARK    1  A    between atoms: C_1  and  C_2
REMARK    2  A    between atoms: C_11  and  C_12
REMARK    3  A    between atoms: C_12  and  N_13
REMARK    4  A    between atoms: C_17  and  C_18
REMARK    5  A    between atoms: C_18  and  N_19
REMARK                            x       y       z     vdW  Elec       q    Type
REMARK                         _______ _______ _______ _____ _____    ______ ____
ROOT
ATOM      1  C   UNL     1       4.665   4.570  18.051  0.00  0.00    +0.000 C 
ENDROOT
BRANCH   1  12
ATOM      2  C   UNL     1       7.562   5.094  17.859  0.00  0.00    +0.000 C 
ATOM      3  C   UNL     1       6.658   5.246  16.668  0.00  0.00    +0.000 A 
ATOM      4  N   UNL     1       7.339   5.510  15.536  0.00  0.00    +0.000 NA
ATOM      5  C   UNL     1       6.839   4.986  14.423  0.00  0.00    +0.000 A 
ATOM      6  C   UNL     1       7.680   4.983  13.327  0.00  0.00    +0.000 A 
ATOM      7  C   UNL     1       7.367   4.220  12.207  0.00  0.00    +0.000 A 
ATOM      8  C   UNL     1       6.174   3.529  12.177  0.00  0.00    +0.000 A 
ATOM      9  C   UNL     1       5.275   3.613  13.253  0.00  0.00    +0.000 A 
ATOM     10  C   UNL     1       5.589   4.326  14.414  0.00  0.00    +0.000 A 
ATOM     11  N   UNL     1       4.792   4.300  15.524  0.00  0.00    +0.000 NA
ATOM     12  C   UNL     1       5.343   4.757  16.685  0.00  0.00    +0.000 A 
ENDBRANCH   1  12
BRANCH   1  13
ATOM     13  N   UNL     1       3.352   5.110  18.311  0.00  0.00    +0.000 NA
ATOM     14  C   UNL     1       3.131   6.124  19.301  0.00  0.00    +0.000 C 
ATOM     15  C   UNL     1       2.126   5.667  20.363  0.00  0.00    +0.000 C 
ATOM     16  O   UNL     1       1.220   4.598  20.068  0.00  0.00    +0.000 OA
ATOM     17  C   UNL     1       1.180   4.012  18.757  0.00  0.00    +0.000 C 
ATOM     18  C   UNL     1       2.139   4.615  17.715  0.00  0.00    +0.000 C 
BRANCH  17  19
ATOM     19  C   UNL     1       1.412   2.500  18.869  0.00  0.00    +0.000 C 
BRANCH  19  20
ATOM     20  N   UNL     1       2.744   2.173  19.364  0.00  0.00    +0.000 N 
ATOM     21  C   UNL     1       3.695   1.437  18.717  0.00  0.00    +0.000 A 
ATOM     22  C   UNL     1       4.756   1.331  19.584  0.00  0.00    +0.000 A 
ATOM     23  C   UNL     1       4.343   2.026  20.736  0.00  0.00    +0.000 A 
ATOM     24  N   UNL     1       3.102   2.521  20.619  0.00  0.00    +0.000 NA
ENDBRANCH  19  20
ENDBRANCH  17  19
ENDBRANCH   1  13
TORSDOF 4
ENDMDL
MODEL 4
REMARK VINA RESULT:      -6.9      2.146      6.665
REMARK  Name = 
REMARK  5 active torsions:
REMARK  status: ('A' for Active; 'I' for Inactive)
REMARK    1  A    between atoms: C_1  and  C_2
REMARK    2  A    between atoms: C_11  and  C_12
REMARK    3  A    between atoms: C_12  and  N_13
REMARK    4  A    between atoms: C_17  and  C_18
REMARK    5  A    between atoms: C_18  and  N_19
REMARK                            x       y       z     vdW  Elec       q    Type
REMARK                         _______ _______ _______ _____ _____    ______ ____
ROOT
ATOM      1  C   UNL     1       2.151   6.674  18.940  0.00  0.00    +0.000 C 
ENDROOT
BRANCH   1  12
ATOM      2  C   UNL     1       1.309   9.124  17.530  0.00  0.00    +0.000 C 
ATOM      3  C   UNL     1       1.569   9.122  19.010  0.00  0.00    +0.000 A 
ATOM      4  N   UNL     1       1.252  10.297  19.588  0.00  0.00    +0.000 NA
ATOM      5  C   UNL     1       0.765  10.224  20.821  0.00  0.00    +0.000 A 
ATOM      6  C   UNL     1       0.153  11.367  21.297  0.00  0.00    +0.000 A 
ATOM      7  C   UNL     1      -0.626  11.317  22.448  0.00  0.00    +0.000 A 
ATOM      8  C   UNL     1      -0.719  10.130  23.145  0.00  0.00    +0.000 A 
ATOM      9  C   UNL     1      -0.016   8.994  22.713  0.00  0.00    +0.000 A 
ATOM     10  C   UNL     1       0.729   9.001  21.529  0.00  0.00    +0.000 A 
ATOM     11  N   UNL     1       1.298   7.868  21.019  0.00  0.00    +0.000 NA
ATOM     12  C   UNL     1       1.717   7.923  19.722  0.00  0.00    +0.000 A 
ENDBRANCH   1  12
BRANCH   1  13
ATOM     13  N   UNL     1       3.548   6.367  18.744  0.00  0.00    +0.000 NA
ATOM     14  C   UNL     1       4.331   7.012  17.729  0.00  0.00    +0.000 C 
ATOM     15  C   UNL     1       4.937   5.998  16.753  0.00  0.00    +0.000 C 
ATOM     16  O   UNL     1       5.076   4.630  17.150  0.00  0.00    +0.000 OA
ATOM     17  C   UNL     1       4.741   4.214  18.484  0.00  0.00    +0.000 C 
ATOM     18  C   UNL     1       4.255   5.322  19.436  0.00  0.00    +0.000 C 
BRANCH  17  19
ATOM     19  C   UNL     1       3.702   3.087  18.419  0.00  0.00    +0.000 C 
BRANCH  19  20
ATOM     20  N   UNL     1       2.846   3.047  19.599  0.00  0.00    +0.000 N 
ATOM     21  C   UNL     1       3.209   2.658  20.856  0.00  0.00    +0.000 A 
ATOM     22  C   UNL     1       2.070   2.716  21.623  0.00  0.00    +0.000 A 
ATOM     23  C   UNL     1       1.066   3.139  20.732  0.00  0.00    +0.000 A 
ATOM     24  N   UNL     1       1.527   3.318  19.485  0.00  0.00    +0.000 NA
ENDBRANCH  19  20
ENDBRANCH  17  19
ENDBRANCH   1  13
TORSDOF 4
ENDMDL
MODEL 5
REMARK VINA RESULT:      -6.9      2.256      3.454
REMARK  Name = 
REMARK  5 active torsions:
REMARK  status: ('A' for Active; 'I' for Inactive)
REMARK    1  A    between atoms: C_1  and  C_2
REMARK    2  A    between atoms: C_11  and  C_12
REMARK    3  A    between atoms: C_12  and  N_13
REMARK    4  A    between atoms: C_17  and  C_18
REMARK    5  A    between atoms: C_18  and  N_19
REMARK                            x       y       z     vdW  Elec       q    Type
REMARK                         _______ _______ _______ _____ _____    ______ ____
ROOT
ATOM      1  C   UNL     1       4.986   4.126  18.166  0.00  0.00    +0.000 C 
ENDROOT
BRANCH   1  12
ATOM      2  C   UNL     1       7.851   4.746  17.844  0.00  0.00    +0.000 C 
ATOM      3  C   UNL     1       6.872   4.967  16.725  0.00  0.00    +0.000 A 
ATOM      4  N   UNL     1       7.475   5.340  15.580  0.00  0.00    +0.000 NA
ATOM      5  C   UNL     1       6.920   4.894  14.460  0.00  0.00    +0.000 A 
ATOM      6  C   UNL     1       7.691   5.002  13.319  0.00  0.00    +0.000 A 
ATOM      7  C   UNL     1       7.327   4.323  12.161  0.00  0.00    +0.000 A 
ATOM      8  C   UNL     1       6.152   3.602  12.146  0.00  0.00    +0.000 A 
ATOM      9  C   UNL     1       5.320   3.574  13.277  0.00  0.00    +0.000 A 
ATOM     10  C   UNL     1       5.688   4.200  14.472  0.00  0.00    +0.000 A 
ATOM     11  N   UNL     1       4.962   4.062  15.621  0.00  0.00    +0.000 NA
ATOM     12  C   UNL     1       5.573   4.441  16.781  0.00  0.00    +0.000 A 
ENDBRANCH   1  12
BRANCH   1  13
ATOM     13  N   UNL     1       3.727   3.433  18.300  0.00  0.00    +0.000 NA
ATOM     14  C   UNL     1       2.773   3.378  17.230  0.00  0.00    +0.000 C 
ATOM     15  C   UNL     1       1.422   3.967  17.646  0.00  0.00    +0.000 C 
ATOM     16  O   UNL     1       1.090   4.065  19.035  0.00  0.00    +0.000 OA
ATOM     17  C   UNL     1       1.969   3.534  20.040  0.00  0.00    +0.000 C 
ATOM     18  C   UNL     1       3.249   2.849  19.525  0.00  0.00    +0.000 C 
BRANCH  17  19
ATOM     19  C   UNL     1       2.334   4.642  21.036  0.00  0.00    +0.000 C 
BRANCH  19  20
ATOM     20  N   UNL     1       2.095   5.977  20.500  0.00  0.00    +0.000 N 
ATOM     21  C   UNL     1       2.747   6.563  19.454  0.00  0.00    +0.000 A 
ATOM     22  C   UNL     1       2.244   7.837  19.349  0.00  0.00    +0.000 A 
ATOM     23  C   UNL     1       1.300   7.931  20.389  0.00  0.00    +0.000 A 
ATOM     24  N   UNL     1       1.223   6.805  21.116  0.00  0.00    +0.000 NA
ENDBRANCH  19  20
ENDBRANCH  17  19
ENDBRANCH   1  13
TORSDOF 4
ENDMDL
MODEL 6
REMARK VINA RESULT:      -6.8      2.151      4.746
REMARK  Name = 
REMARK  5 active torsions:
REMARK  status: ('A' for Active; 'I' for Inactive)
REMARK    1  A    between atoms: C_1  and  C_2
REMARK    2  A    between atoms: C_11  and  C_12
REMARK    3  A    between atoms: C_12  and  N_13
REMARK    4  A    between atoms: C_17  and  C_18
REMARK    5  A    between atoms: C_18  and  N_19
REMARK                            x       y       z     vdW  Elec       q    Type
REMARK                         _______ _______ _______ _____ _____    ______ ____
ROOT
ATOM      1  C   UNL     1       4.690   5.478  18.387  0.00  0.00    +0.000 C 
ENDROOT
BRANCH   1  12
ATOM      2  C   UNL     1       7.605   5.813  18.081  0.00  0.00    +0.000 C 
ATOM      3  C   UNL     1       6.684   5.846  16.893  0.00  0.00    +0.000 A 
ATOM      4  N   UNL     1       7.353   5.912  15.726  0.00  0.00    +0.000 NA
ATOM      5  C   UNL     1       6.802   5.266  14.705  0.00  0.00    +0.000 A 
ATOM      6  C   UNL     1       7.618   5.064  13.608  0.00  0.00    +0.000 A 
ATOM      7  C   UNL     1       7.242   4.170  12.612  0.00  0.00    +0.000 A 
ATOM      8  C   UNL     1       6.014   3.546  12.697  0.00  0.00    +0.000 A 
ATOM      9  C   UNL     1       5.145   3.829  13.763  0.00  0.00    +0.000 A 
ATOM     10  C   UNL     1       5.520   4.679  14.807  0.00  0.00    +0.000 A 
ATOM     11  N   UNL     1       4.748   4.850  15.921  0.00  0.00    +0.000 NA
ATOM     12  C   UNL     1       5.346   5.436  16.998  0.00  0.00    +0.000 A 
ENDBRANCH   1  12
BRANCH   1  13
ATOM     13  N   UNL     1       3.299   5.828  18.543  0.00  0.00    +0.000 NA
ATOM     14  C   UNL     1       2.882   7.167  18.845  0.00  0.00    +0.000 C 
ATOM     15  C   UNL     1       2.073   7.226  20.145  0.00  0.00    +0.000 C 
ATOM     16  O   UNL     1       1.445   6.040  20.643  0.00  0.00    +0.000 OA
ATOM     17  C   UNL     1       1.487   4.817  19.892  0.00  0.00    +0.000 C 
ATOM     18  C   UNL     1       2.218   4.878  18.538  0.00  0.00    +0.000 C 
BRANCH  17  19
ATOM     19  C   UNL     1       2.090   3.706  20.761  0.00  0.00    +0.000 C 
BRANCH  19  20
ATOM     20  N   UNL     1       2.904   2.772  19.992  0.00  0.00    +0.000 N 
ATOM     21  C   UNL     1       2.490   2.006  18.941  0.00  0.00    +0.000 A 
ATOM     22  C   UNL     1       3.568   1.236  18.575  0.00  0.00    +0.000 A 
ATOM     23  C   UNL     1       4.585   1.601  19.478  0.00  0.00    +0.000 A 
ATOM     24  N   UNL     1       4.178   2.521  20.366  0.00  0.00    +0.000 NA
ENDBRANCH  19  20
ENDBRANCH  17  19
ENDBRANCH   1  13
TORSDOF 4
ENDMDL
MODEL 7
REMARK VINA RESULT:      -6.7      2.265      6.382
REMARK  Name = 
REMARK  5 active torsions:
REMARK  status: ('A' for Active; 'I' for Inactive)
REMARK    1  A    between atoms: C_1  and  C_2
REMARK    2  A    between atoms: C_11  and  C_12
REMARK    3  A    between atoms: C_12  and  N_13
REMARK    4  A    between atoms: C_17  and  C_18
REMARK    5  A    between atoms: C_18  and  N_19
REMARK                            x       y       z     vdW  Elec       q    Type
REMARK                         _______ _______ _______ _____ _____    ______ ____
ROOT
ATOM      1  C   UNL     1       2.317   7.020  18.020  0.00  0.00    +0.000 C 
ENDROOT
BRANCH   1  12
ATOM      2  C   UNL     1       1.588   7.589  20.821  0.00  0.00    +0.000 C 
ATOM      3  C   UNL     1       1.316   8.581  19.724  0.00  0.00    +0.000 A 
ATOM      4  N   UNL     1       0.844   9.751  20.195  0.00  0.00    +0.000 NA
ATOM      5  C   UNL     1       1.225  10.838  19.535  0.00  0.00    +0.000 A 
ATOM      6  C   UNL     1       1.011  12.041  20.180  0.00  0.00    +0.000 A 
ATOM      7  C   UNL     1       1.616  13.202  19.712  0.00  0.00    +0.000 A 
ATOM      8  C   UNL     1       2.369  13.150  18.558  0.00  0.00    +0.000 A 
ATOM      9  C   UNL     1       2.504  11.944  17.850  0.00  0.00    +0.000 A 
ATOM     10  C   UNL     1       1.954  10.750  18.328  0.00  0.00    +0.000 A 
ATOM     11  N   UNL     1       2.197   9.546  17.730  0.00  0.00    +0.000 NA
ATOM     12  C   UNL     1       1.885   8.430  18.450  0.00  0.00    +0.000 A 
ENDBRANCH   1  12
BRANCH   1  13
ATOM     13  N   UNL     1       3.691   6.594  18.137  0.00  0.00    +0.000 NA
ATOM     14  C   UNL     1       4.703   7.037  17.222  0.00  0.00    +0.000 C 
ATOM     15  C   UNL     1       5.380   5.858  16.515  0.00  0.00    +0.000 C 
ATOM     16  O   UNL     1       5.315   4.552  17.097  0.00  0.00    +0.000 OA
ATOM     17  C   UNL     1       4.704   4.350  18.382  0.00  0.00    +0.000 C 
ATOM     18  C   UNL     1       4.158   5.610  19.077  0.00  0.00    +0.000 C 
BRANCH  17  19
ATOM     19  C   UNL     1       3.594   3.299  18.258  0.00  0.00    +0.000 C 
BRANCH  19  20
ATOM     20  N   UNL     1       2.805   3.171  19.477  0.00  0.00    +0.000 N 
ATOM     21  C   UNL     1       1.529   3.614  19.671  0.00  0.00    +0.000 A 
ATOM     22  C   UNL     1       1.220   3.339  20.982  0.00  0.00    +0.000 A 
ATOM     23  C   UNL     1       2.383   2.741  21.501  0.00  0.00    +0.000 A 
ATOM     24  N   UNL     1       3.368   2.659  20.594  0.00  0.00    +0.000 NA
ENDBRANCH  19  20
ENDBRANCH  17  19
ENDBRANCH   1  13
TORSDOF 4
ENDMDL
MODEL 8
REMARK VINA RESULT:      -6.7      1.939      6.548
REMARK  Name = 
REMARK  5 active torsions:
REMARK  status: ('A' for Active; 'I' for Inactive)
REMARK    1  A    between atoms: C_1  and  C_2
REMARK    2  A    between atoms: C_11  and  C_12
REMARK    3  A    between atoms: C_12  and  N_13
REMARK    4  A    between atoms: C_17  and  C_18
REMARK    5  A    between atoms: C_18  and  N_19
REMARK                            x       y       z     vdW  Elec       q    Type
REMARK                         _______ _______ _______ _____ _____    ______ ____
ROOT
ATOM      1  C   UNL     1       2.612   7.131  19.203  0.00  0.00    +0.000 C 
ENDROOT
BRANCH   1  12
ATOM      2  C   UNL     1       1.115   9.127  17.629  0.00  0.00    +0.000 C 
ATOM      3  C   UNL     1       1.419   9.345  19.085  0.00  0.00    +0.000 A 
ATOM      4  N   UNL     1       0.829  10.454  19.572  0.00  0.00    +0.000 NA
ATOM      5  C   UNL     1       0.421  10.387  20.834  0.00  0.00    +0.000 A 
ATOM      6  C   UNL     1      -0.448  11.381  21.240  0.00  0.00    +0.000 A 
ATOM      7  C   UNL     1      -1.146  11.254  22.436  0.00  0.00    +0.000 A 
ATOM      8  C   UNL     1      -0.904  10.161  23.243  0.00  0.00    +0.000 A 
ATOM      9  C   UNL     1       0.053   9.203  22.873  0.00  0.00    +0.000 A 
ATOM     10  C   UNL     1       0.728   9.275  21.651  0.00  0.00    +0.000 A 
ATOM     11  N   UNL     1       1.553   8.278  21.213  0.00  0.00    +0.000 NA
ATOM     12  C   UNL     1       1.897   8.303  19.893  0.00  0.00    +0.000 A 
ENDBRANCH   1  12
BRANCH   1  13
ATOM     13  N   UNL     1       2.150   5.774  19.372  0.00  0.00    +0.000 NA
ATOM     14  C   UNL     1       1.438   5.355  20.545  0.00  0.00    +0.000 C 
ATOM     15  C   UNL     1       2.156   4.206  21.260  0.00  0.00    +0.000 C 
ATOM     16  O   UNL     1       3.096   3.401  20.541  0.00  0.00    +0.000 OA
ATOM     17  C   UNL     1       3.306   3.599  19.134  0.00  0.00    +0.000 C 
ATOM     18  C   UNL     1       2.453   4.695  18.469  0.00  0.00    +0.000 C 
BRANCH  17  19
ATOM     19  C   UNL     1       4.795   3.865  18.874  0.00  0.00    +0.000 C 
BRANCH  19  20
ATOM     20  N   UNL     1       5.038   4.452  17.561  0.00  0.00    +0.000 N 
ATOM     21  C   UNL     1       5.017   3.800  16.362  0.00  0.00    +0.000 A 
ATOM     22  C   UNL     1       5.368   4.729  15.412  0.00  0.00    +0.000 A 
ATOM     23  C   UNL     1       5.594   5.912  16.141  0.00  0.00    +0.000 A 
ATOM     24  N   UNL     1       5.421   5.743  17.460  0.00  0.00    +0.000 NA
ENDBRANCH  19  20
ENDBRANCH  17  19
ENDBRANCH   1  13
TORSDOF 4
ENDMDL
MODEL 9
REMARK VINA RESULT:      -6.6      1.868      6.299
REMARK  Name = 
REMARK  5 active torsions:
REMARK  status: ('A' for Active; 'I' for Inactive)
REMARK    1  A    between atoms: C_1  and  C_2
REMARK    2  A    between atoms: C_11  and  C_12
REMARK    3  A    between atoms: C_12  and  N_13
REMARK    4  A    between atoms: C_17  and  C_18
REMARK    5  A    between atoms: C_18  and  N_19
REMARK                            x       y       z     vdW  Elec       q    Type
REMARK                         _______ _______ _______ _____ _____    ______ ____
ROOT
ATOM      1  C   UNL     1       2.549   6.707  19.334  0.00  0.00    +0.000 C 
ENDROOT
BRANCH   1  12
ATOM      2  C   UNL     1       1.383   8.818  17.636  0.00  0.00    +0.000 C 
ATOM      3  C   UNL     1       1.617   9.035  19.105  0.00  0.00    +0.000 A 
ATOM      4  N   UNL     1       1.125  10.212  19.535  0.00  0.00    +0.000 NA
ATOM      5  C   UNL     1       0.634  10.219  20.769  0.00  0.00    +0.000 A 
ATOM      6  C   UNL     1      -0.144  11.311  21.102  0.00  0.00    +0.000 A 
ATOM      7  C   UNL     1      -0.925  11.288  22.252  0.00  0.00    +0.000 A 
ATOM      8  C   UNL     1      -0.856  10.195  23.090  0.00  0.00    +0.000 A 
ATOM      9  C   UNL     1       0.011   9.129  22.798  0.00  0.00    +0.000 A 
ATOM     10  C   UNL     1       0.764   9.100  21.621  0.00  0.00    +0.000 A 
ATOM     11  N   UNL     1       1.499   8.008  21.253  0.00  0.00    +0.000 NA
ATOM     12  C   UNL     1       1.926   7.965  19.958  0.00  0.00    +0.000 A 
ENDBRANCH   1  12
BRANCH   1  13
ATOM     13  N   UNL     1       1.985   5.400  19.574  0.00  0.00    +0.000 NA
ATOM     14  C   UNL     1       1.909   4.837  20.891  0.00  0.00    +0.000 C 
ATOM     15  C   UNL     1       2.652   3.499  20.978  0.00  0.00    +0.000 C 
ATOM     16  O   UNL     1       2.913   2.757  19.782  0.00  0.00    +0.000 OA
ATOM     17  C   UNL     1       2.407   3.204  18.514  0.00  0.00    +0.000 C 
ATOM     18  C   UNL     1       1.566   4.493  18.538  0.00  0.00    +0.000 C 
BRANCH  17  19
ATOM     19  C   UNL     1       3.571   3.356  17.526  0.00  0.00    +0.000 C 
BRANCH  19  20
ATOM     20  N   UNL     1       4.569   4.317  17.980  0.00  0.00    +0.000 N 
ATOM     21  C   UNL     1       4.933   5.472  17.351  0.00  0.00    +0.000 A 
ATOM     22  C   UNL     1       5.948   6.017  18.100  0.00  0.00    +0.000 A 
ATOM     23  C   UNL     1       6.135   5.107  19.158  0.00  0.00    +0.000 A 
ATOM     24  N   UNL     1       5.313   4.049  19.076  0.00  0.00    +0.000 NA
ENDBRANCH  19  20
ENDBRANCH  17  19
ENDBRANCH   1  13
TORSDOF 4
ENDMDL
