MODEL 1
REMARK VINA RESULT:      -7.9      0.000      0.000
REMARK  Name = 
REMARK  4 active torsions:
REMARK  status: ('A' for Active; 'I' for Inactive)
REMARK    1  A    between atoms: N_2  and  C_4
REMARK    2  A    between atoms: C_7  and  C_8
REMARK    3  A    between atoms: N_9  and  N_10
REMARK    4  A    between atoms: N_10  and  C_11
REMARK                            x       y       z     vdW  Elec       q    Type
REMARK                         _______ _______ _______ _____ _____    ______ ____
ROOT
ATOM      1  N   UNL     1       2.954   5.674  18.171  0.00  0.00    +0.000 N 
ATOM      2  H   UNL     1       2.276   4.933  17.939  0.00  0.00    +0.000 HD
ENDROOT
BRANCH   1   3
ATOM      3  C   UNL     1       4.151   4.838  18.326  0.00  0.00    +0.000 A 
ATOM      4  N   UNL     1       4.138   3.854  17.410  0.00  0.00    +0.000 NA
ATOM      5  N   UNL     1       4.916   3.998  16.301  0.00  0.00    +0.000 NA
ATOM      6  C   UNL     1       5.655   5.133  16.166  0.00  0.00    +0.000 A 
ATOM      7 CL   UNL     1       6.780   5.040  14.857  0.00  0.00    +0.000 Cl
ATOM      8  C   UNL     1       5.816   6.056  17.206  0.00  0.00    +0.000 A 
ATOM      9  C   UNL     1       6.800   7.056  17.215  0.00  0.00    +0.000 A 
ATOM     10  C   UNL     1       7.818   6.910  18.138  0.00  0.00    +0.000 A 
ATOM     11  C   UNL     1       7.692   5.907  19.101  0.00  0.00    +0.000 A 
ATOM     12  C   UNL     1       6.448   5.274  19.278  0.00  0.00    +0.000 A 
ATOM     13  C   UNL     1       5.384   5.544  18.402  0.00  0.00    +0.000 A 
ENDBRANCH   1   3
BRANCH   1  15
ATOM     14  C   UNL     1       2.252   7.633  18.974  0.00  0.00    +0.000 C 
ATOM     15  N   UNL     1       2.464   6.394  19.245  0.00  0.00    +0.000 NA
BRANCH  14  19
ATOM     16  C   UNL     1       0.227  10.379  21.584  0.00  0.00    +0.000 A 
ATOM     17  C   UNL     1       0.381  10.739  20.231  0.00  0.00    +0.000 A 
ATOM     18  C   UNL     1       1.011   9.821  19.353  0.00  0.00    +0.000 A 
ATOM     19  C   UNL     1       1.507   8.590  19.830  0.00  0.00    +0.000 A 
ATOM     20  C   UNL     1       1.362   8.281  21.188  0.00  0.00    +0.000 A 
ATOM     21  C   UNL     1       0.728   9.165  22.068  0.00  0.00    +0.000 A 
BRANCH  16  23
ATOM     22  O   UNL     1      -1.152  10.784  23.413  0.00  0.00    +0.000 OA
ATOM     23  N   UNL     1      -0.448  11.285  22.518  0.00  0.00    +0.000 N 
ATOM     24  O   UNL     1      -0.293  12.508  22.372  0.00  0.00    +0.000 OA
ENDBRANCH  16  23
ENDBRANCH  14  19
ENDBRANCH   1  15
TORSDOF 4
ENDMDL
MODEL 2
REMARK VINA RESULT:      -7.9      0.520      1.199
REMARK  Name = 
REMARK  4 active torsions:
REMARK  status: ('A' for Active; 'I' for Inactive)
REMARK    1  A    between atoms: N_2  and  C_4
REMARK    2  A    between atoms: C_7  and  C_8
REMARK    3  A    between atoms: N_9  and  N_10
REMARK    4  A    between atoms: N_10  and  C_11
REMARK                            x       y       z     vdW  Elec       q    Type
REMARK                         _______ _______ _______ _____ _____    ______ ____
ROOT
ATOM      1  N   UNL     1       3.097   5.393  18.238  0.00  0.00    +0.000 N 
ATOM      2  H   UNL     1       2.462   4.599  18.069  0.00  0.00    +0.000 HD
ENDROOT
BRANCH   1   3
ATOM      3  C   UNL     1       4.351   4.647  18.393  0.00  0.00    +0.000 A 
ATOM      4  N   UNL     1       4.399   3.651  17.492  0.00  0.00    +0.000 NA
ATOM      5  N   UNL     1       5.154   3.832  16.373  0.00  0.00    +0.000 NA
ATOM      6  C   UNL     1       5.810   5.014  16.213  0.00  0.00    +0.000 A 
ATOM      7 CL   UNL     1       6.926   4.981  14.893  0.00  0.00    +0.000 Cl
ATOM      8  C   UNL     1       5.914   5.962  17.237  0.00  0.00    +0.000 A 
ATOM      9  C   UNL     1       6.825   7.030  17.220  0.00  0.00    +0.000 A 
ATOM     10  C   UNL     1       7.860   6.970  18.135  0.00  0.00    +0.000 A 
ATOM     11  C   UNL     1       7.815   5.977  19.113  0.00  0.00    +0.000 A 
ATOM     12  C   UNL     1       6.621   5.260  19.313  0.00  0.00    +0.000 A 
ATOM     13  C   UNL     1       5.532   5.440  18.445  0.00  0.00    +0.000 A 
ENDBRANCH   1   3
BRANCH   1  15
ATOM     14  C   UNL     1       2.351   7.360  18.982  0.00  0.00    +0.000 C 
ATOM     15  N   UNL     1       2.594   6.137  19.291  0.00  0.00    +0.000 NA
BRANCH  14  19
ATOM     16  C   UNL     1       0.028  10.185  21.236  0.00  0.00    +0.000 A 
ATOM     17  C   UNL     1       0.390   8.975  21.858  0.00  0.00    +0.000 A 
ATOM     18  C   UNL     1       1.192   8.054  21.138  0.00  0.00    +0.000 A 
ATOM     19  C   UNL     1       1.587   8.326  19.811  0.00  0.00    +0.000 A 
ATOM     20  C   UNL     1       1.182   9.526  19.215  0.00  0.00    +0.000 A 
ATOM     21  C   UNL     1       0.406  10.456  19.916  0.00  0.00    +0.000 A 
BRANCH  16  23
ATOM     22  O   UNL     1      -1.641  11.803  21.323  0.00  0.00    +0.000 OA
ATOM     23  N   UNL     1      -0.772  11.178  21.958  0.00  0.00    +0.000 N 
ATOM     24  O   UNL     1      -0.545  11.358  23.165  0.00  0.00    +0.000 OA
ENDBRANCH  16  23
ENDBRANCH  14  19
ENDBRANCH   1  15
TORSDOF 4
ENDMDL
MODEL 3
REMARK VINA RESULT:      -7.8      5.832      7.525
REMARK  Name = 
REMARK  4 active torsions:
REMARK  status: ('A' for Active; 'I' for Inactive)
REMARK    1  A    between atoms: N_2  and  C_4
REMARK    2  A    between atoms: C_7  and  C_8
REMARK    3  A    between atoms: N_9  and  N_10
REMARK    4  A    between atoms: N_10  and  C_11
REMARK                            x       y       z     vdW  Elec       q    Type
REMARK                         _______ _______ _______ _____ _____    ______ ____
ROOT
ATOM      1  N   UNL     1       7.589   7.869  17.862  0.00  0.00    +0.000 N 
ATOM      2  H   UNL     1       6.662   7.922  18.309  0.00  0.00    +0.000 HD
ENDROOT
BRANCH   1   3
ATOM      3  C   UNL     1       7.755   6.411  17.864  0.00  0.00    +0.000 A 
ATOM      4  N   UNL     1       7.804   5.963  19.132  0.00  0.00    +0.000 NA
ATOM      5  N   UNL     1       6.681   5.399  19.657  0.00  0.00    +0.000 NA
ATOM      6  C   UNL     1       5.563   5.328  18.884  0.00  0.00    +0.000 A 
ATOM      7 CL   UNL     1       4.326   4.352  19.593  0.00  0.00    +0.000 Cl
ATOM      8  C   UNL     1       5.576   5.614  17.514  0.00  0.00    +0.000 A 
ATOM      9  C   UNL     1       4.541   5.259  16.634  0.00  0.00    +0.000 A 
ATOM     10  C   UNL     1       4.829   4.272  15.710  0.00  0.00    +0.000 A 
ATOM     11  C   UNL     1       6.154   3.850  15.594  0.00  0.00    +0.000 A 
ATOM     12  C   UNL     1       7.175   4.605  16.199  0.00  0.00    +0.000 A 
ATOM     13  C   UNL     1       6.855   5.691  17.029  0.00  0.00    +0.000 A 
ENDBRANCH   1   3
BRANCH   1  15
ATOM     14  C   UNL     1       8.640   9.829  18.048  0.00  0.00    +0.000 C 
ATOM     15  N   UNL     1       8.463   8.670  18.576  0.00  0.00    +0.000 NA
BRANCH  14  19
ATOM     16  C   UNL     1      10.439  13.269  19.886  0.00  0.00    +0.000 A 
ATOM     17  C   UNL     1      10.503  12.040  20.571  0.00  0.00    +0.000 A 
ATOM     18  C   UNL     1       9.949  10.890  19.954  0.00  0.00    +0.000 A 
ATOM     19  C   UNL     1       9.313  10.981  18.698  0.00  0.00    +0.000 A 
ATOM     20  C   UNL     1       9.242  12.226  18.062  0.00  0.00    +0.000 A 
ATOM     21  C   UNL     1       9.798  13.370  18.646  0.00  0.00    +0.000 A 
BRANCH  16  23
ATOM     22  O   UNL     1      10.531  14.914  21.528  0.00  0.00    +0.000 OA
ATOM     23  N   UNL     1      11.028  14.475  20.475  0.00  0.00    +0.000 N 
ATOM     24  O   UNL     1      11.988  15.008  19.896  0.00  0.00    +0.000 OA
ENDBRANCH  16  23
ENDBRANCH  14  19
ENDBRANCH   1  15
TORSDOF 4
ENDMDL
MODEL 4
REMARK VINA RESULT:      -7.8      1.967      3.360
REMARK  Name = 
REMARK  4 active torsions:
REMARK  status: ('A' for Active; 'I' for Inactive)
REMARK    1  A    between atoms: N_2  and  C_4
REMARK    2  A    between atoms: C_7  and  C_8
REMARK    3  A    between atoms: N_9  and  N_10
REMARK    4  A    between atoms: N_10  and  C_11
REMARK                            x       y       z     vdW  Elec       q    Type
REMARK                         _______ _______ _______ _____ _____    ______ ____
ROOT
ATOM      1  N   UNL     1       2.496   6.834  19.859  0.00  0.00    +0.000 N 
ATOM      2  H   UNL     1       3.495   7.000  20.048  0.00  0.00    +0.000 HD
ENDROOT
BRANCH   1   3
ATOM      3  C   UNL     1       2.619   6.217  18.533  0.00  0.00    +0.000 A 
ATOM      4  N   UNL     1       3.543   6.876  17.812  0.00  0.00    +0.000 NA
ATOM      5  N   UNL     1       4.784   6.325  17.702  0.00  0.00    +0.000 NA
ATOM      6  C   UNL     1       5.034   5.147  18.336  0.00  0.00    +0.000 A 
ATOM      7 CL   UNL     1       6.550   4.456  17.879  0.00  0.00    +0.000 Cl
ATOM      8  C   UNL     1       4.022   4.375  18.917  0.00  0.00    +0.000 A 
ATOM      9  C   UNL     1       4.186   3.033  19.296  0.00  0.00    +0.000 A 
ATOM     10  C   UNL     1       3.499   2.094  18.550  0.00  0.00    +0.000 A 
ATOM     11  C   UNL     1       2.564   2.550  17.621  0.00  0.00    +0.000 A 
ATOM     12  C   UNL     1       2.152   3.895  17.660  0.00  0.00    +0.000 A 
ATOM     13  C   UNL     1       2.779   4.803  18.528  0.00  0.00    +0.000 A 
ENDBRANCH   1   3
BRANCH   1  15
ATOM     14  C   UNL     1       1.109   8.084  21.081  0.00  0.00    +0.000 C 
ATOM     15  N   UNL     1       1.818   8.030  20.010  0.00  0.00    +0.000 NA
BRANCH  14  19
ATOM     16  C   UNL     1      -0.773  11.666  22.522  0.00  0.00    +0.000 A 
ATOM     17  C   UNL     1      -1.003  10.466  23.223  0.00  0.00    +0.000 A 
ATOM     18  C   UNL     1      -0.353   9.287  22.781  0.00  0.00    +0.000 A 
ATOM     19  C   UNL     1       0.476   9.305  21.639  0.00  0.00    +0.000 A 
ATOM     20  C   UNL     1       0.656  10.511  20.951  0.00  0.00    +0.000 A 
ATOM     21  C   UNL     1       0.038  11.690  21.382  0.00  0.00    +0.000 A 
BRANCH  16  23
ATOM     22  O   UNL     1      -2.580  13.127  22.633  0.00  0.00    +0.000 OA
ATOM     23  N   UNL     1      -1.400  12.914  22.967  0.00  0.00    +0.000 N 
ATOM     24  O   UNL     1      -0.728  13.705  23.648  0.00  0.00    +0.000 OA
ENDBRANCH  16  23
ENDBRANCH  14  19
ENDBRANCH   1  15
TORSDOF 4
ENDMDL
MODEL 5
REMARK VINA RESULT:      -7.7      1.924      3.182
REMARK  Name = 
REMARK  4 active torsions:
REMARK  status: ('A' for Active; 'I' for Inactive)
REMARK    1  A    between atoms: N_2  and  C_4
REMARK    2  A    between atoms: C_7  and  C_8
REMARK    3  A    between atoms: N_9  and  N_10
REMARK    4  A    between atoms: N_10  and  C_11
REMARK                            x       y       z     vdW  Elec       q    Type
REMARK                         _______ _______ _______ _____ _____    ______ ____
ROOT
ATOM      1  N   UNL     1       2.543   6.935  19.783  0.00  0.00    +0.000 N 
ATOM      2  H   UNL     1       3.543   7.110  19.958  0.00  0.00    +0.000 HD
ENDROOT
BRANCH   1   3
ATOM      3  C   UNL     1       2.656   6.285  18.472  0.00  0.00    +0.000 A 
ATOM      4  N   UNL     1       3.573   6.928  17.727  0.00  0.00    +0.000 NA
ATOM      5  N   UNL     1       4.814   6.378  17.620  0.00  0.00    +0.000 NA
ATOM      6  C   UNL     1       5.073   5.217  18.282  0.00  0.00    +0.000 A 
ATOM      7 CL   UNL     1       6.587   4.518  17.829  0.00  0.00    +0.000 Cl
ATOM      8  C   UNL     1       4.068   4.457  18.890  0.00  0.00    +0.000 A 
ATOM      9  C   UNL     1       4.238   3.126  19.302  0.00  0.00    +0.000 A 
ATOM     10  C   UNL     1       3.548   2.166  18.585  0.00  0.00    +0.000 A 
ATOM     11  C   UNL     1       2.604   2.597  17.652  0.00  0.00    +0.000 A 
ATOM     12  C   UNL     1       2.189   3.941  17.661  0.00  0.00    +0.000 A 
ATOM     13  C   UNL     1       2.820   4.872  18.501  0.00  0.00    +0.000 A 
ENDBRANCH   1   3
BRANCH   1  15
ATOM     14  C   UNL     1       1.085   8.171  20.934  0.00  0.00    +0.000 C 
ATOM     15  N   UNL     1       1.861   8.132  19.910  0.00  0.00    +0.000 NA
BRANCH  14  19
ATOM     16  C   UNL     1      -0.788  11.631  22.657  0.00  0.00    +0.000 A 
ATOM     17  C   UNL     1       0.029  11.813  21.525  0.00  0.00    +0.000 A 
ATOM     18  C   UNL     1       0.618  10.672  20.923  0.00  0.00    +0.000 A 
ATOM     19  C   UNL     1       0.422   9.386  21.470  0.00  0.00    +0.000 A 
ATOM     20  C   UNL     1      -0.372   9.250  22.615  0.00  0.00    +0.000 A 
ATOM     21  C   UNL     1      -0.977  10.361  23.213  0.00  0.00    +0.000 A 
BRANCH  16  23
ATOM     22  O   UNL     1      -2.672  12.729  23.467  0.00  0.00    +0.000 OA
ATOM     23  N   UNL     1      -1.442  12.781  23.289  0.00  0.00    +0.000 N 
ATOM     24  O   UNL     1      -0.744  13.756  23.611  0.00  0.00    +0.000 OA
ENDBRANCH  16  23
ENDBRANCH  14  19
ENDBRANCH   1  15
TORSDOF 4
ENDMDL
MODEL 6
REMARK VINA RESULT:      -7.7      2.477      3.687
REMARK  Name = 
REMARK  4 active torsions:
REMARK  status: ('A' for Active; 'I' for Inactive)
REMARK    1  A    between atoms: N_2  and  C_4
REMARK    2  A    between atoms: C_7  and  C_8
REMARK    3  A    between atoms: N_9  and  N_10
REMARK    4  A    between atoms: N_10  and  C_11
REMARK                            x       y       z     vdW  Elec       q    Type
REMARK                         _______ _______ _______ _____ _____    ______ ____
ROOT
ATOM      1  N   UNL     1       3.601   6.543  18.192  0.00  0.00    +0.000 N 
ATOM      2  H   UNL     1       4.164   6.880  17.397  0.00  0.00    +0.000 HD
ENDROOT
BRANCH   1   3
ATOM      3  C   UNL     1       3.305   5.193  17.698  0.00  0.00    +0.000 A 
ATOM      4  N   UNL     1       4.453   4.553  17.414  0.00  0.00    +0.000 NA
ATOM      5  N   UNL     1       4.923   3.647  18.316  0.00  0.00    +0.000 NA
ATOM      6  C   UNL     1       4.220   3.444  19.464  0.00  0.00    +0.000 A 
ATOM      7 CL   UNL     1       4.796   2.084  20.363  0.00  0.00    +0.000 Cl
ATOM      8  C   UNL     1       2.936   3.962  19.663  0.00  0.00    +0.000 A 
ATOM      9  C   UNL     1       2.068   3.527  20.676  0.00  0.00    +0.000 A 
ATOM     10  C   UNL     1       0.951   2.822  20.270  0.00  0.00    +0.000 A 
ATOM     11  C   UNL     1       0.673   2.763  18.903  0.00  0.00    +0.000 A 
ATOM     12  C   UNL     1       1.353   3.626  18.024  0.00  0.00    +0.000 A 
ATOM     13  C   UNL     1       2.400   4.435  18.493  0.00  0.00    +0.000 A 
ENDBRANCH   1   3
BRANCH   1  15
ATOM     14  C   UNL     1       2.228   7.530  19.648  0.00  0.00    +0.000 C 
ATOM     15  N   UNL     1       2.575   7.444  18.413  0.00  0.00    +0.000 NA
BRANCH  14  19
ATOM     16  C   UNL     1      -0.215  10.558  21.469  0.00  0.00    +0.000 A 
ATOM     17  C   UNL     1       0.038  10.650  20.086  0.00  0.00    +0.000 A 
ATOM     18  C   UNL     1       0.807   9.632  19.468  0.00  0.00    +0.000 A 
ATOM     19  C   UNL     1       1.343   8.571  20.228  0.00  0.00    +0.000 A 
ATOM     20  C   UNL     1       1.096   8.531  21.605  0.00  0.00    +0.000 A 
ATOM     21  C   UNL     1       0.323   9.515  22.231  0.00  0.00    +0.000 A 
BRANCH  16  23
ATOM     22  O   UNL     1      -1.685  12.360  21.431  0.00  0.00    +0.000 OA
ATOM     23  N   UNL     1      -1.034  11.571  22.140  0.00  0.00    +0.000 N 
ATOM     24  O   UNL     1      -1.036  11.603  23.381  0.00  0.00    +0.000 OA
ENDBRANCH  16  23
ENDBRANCH  14  19
ENDBRANCH   1  15
TORSDOF 4
ENDMDL
MODEL 7
REMARK VINA RESULT:      -7.7      2.528      3.809
REMARK  Name = 
REMARK  4 active torsions:
REMARK  status: ('A' for Active; 'I' for Inactive)
REMARK    1  A    between atoms: N_2  and  C_4
REMARK    2  A    between atoms: C_7  and  C_8
REMARK    3  A    between atoms: N_9  and  N_10
REMARK    4  A    between atoms: N_10  and  C_11
REMARK                            x       y       z     vdW  Elec       q    Type
REMARK                         _______ _______ _______ _____ _____    ______ ____
ROOT
ATOM      1  N   UNL     1       3.473   6.562  18.195  0.00  0.00    +0.000 N 
ATOM      2  H   UNL     1       3.964   6.893  17.351  0.00  0.00    +0.000 HD
ENDROOT
BRANCH   1   3
ATOM      3  C   UNL     1       3.126   5.212  17.734  0.00  0.00    +0.000 A 
ATOM      4  N   UNL     1       4.242   4.564  17.354  0.00  0.00    +0.000 NA
ATOM      5  N   UNL     1       4.783   3.659  18.216  0.00  0.00    +0.000 NA
ATOM      6  C   UNL     1       4.182   3.464  19.421  0.00  0.00    +0.000 A 
ATOM      7 CL   UNL     1       4.827   2.105  20.273  0.00  0.00    +0.000 Cl
ATOM      8  C   UNL     1       2.923   3.992  19.729  0.00  0.00    +0.000 A 
ATOM      9  C   UNL     1       2.145   3.567  20.817  0.00  0.00    +0.000 A 
ATOM     10  C   UNL     1       0.992   2.866  20.512  0.00  0.00    +0.000 A 
ATOM     11  C   UNL     1       0.596   2.804  19.176  0.00  0.00    +0.000 A 
ATOM     12  C   UNL     1       1.201   3.659  18.237  0.00  0.00    +0.000 A 
ATOM     13  C   UNL     1       2.290   4.464  18.609  0.00  0.00    +0.000 A 
ENDBRANCH   1   3
BRANCH   1  15
ATOM     14  C   UNL     1       2.222   7.543  19.761  0.00  0.00    +0.000 C 
ATOM     15  N   UNL     1       2.475   7.470  18.502  0.00  0.00    +0.000 NA
BRANCH  14  19
ATOM     16  C   UNL     1      -0.306  10.531  21.530  0.00  0.00    +0.000 A 
ATOM     17  C   UNL     1       0.313   9.595  22.381  0.00  0.00    +0.000 A 
ATOM     18  C   UNL     1       1.183   8.631  21.812  0.00  0.00    +0.000 A 
ATOM     19  C   UNL     1       1.393   8.584  20.417  0.00  0.00    +0.000 A 
ATOM     20  C   UNL     1       0.736   9.511  19.601  0.00  0.00    +0.000 A 
ATOM     21  C   UNL     1      -0.112  10.482  20.145  0.00  0.00    +0.000 A 
BRANCH  16  23
ATOM     22  O   UNL     1      -1.099  11.818  23.297  0.00  0.00    +0.000 OA
ATOM     23  N   UNL     1      -1.187  11.564  22.082  0.00  0.00    +0.000 N 
ATOM     24  O   UNL     1      -1.984  12.133  21.319  0.00  0.00    +0.000 OA
ENDBRANCH  16  23
ENDBRANCH  14  19
ENDBRANCH   1  15
TORSDOF 4
ENDMDL
MODEL 8
REMARK VINA RESULT:      -7.6      5.140      7.112
REMARK  Name = 
REMARK  4 active torsions:
REMARK  status: ('A' for Active; 'I' for Inactive)
REMARK    1  A    between atoms: N_2  and  C_4
REMARK    2  A    between atoms: C_7  and  C_8
REMARK    3  A    between atoms: N_9  and  N_10
REMARK    4  A    between atoms: N_10  and  C_11
REMARK                            x       y       z     vdW  Elec       q    Type
REMARK                         _______ _______ _______ _____ _____    ______ ____
ROOT
ATOM      1  N   UNL     1       7.158   6.784  17.077  0.00  0.00    +0.000 N 
ATOM      2  H   UNL     1       7.549   6.074  16.440  0.00  0.00    +0.000 HD
ENDROOT
BRANCH   1   3
ATOM      3  C   UNL     1       5.786   6.816  16.558  0.00  0.00    +0.000 A 
ATOM      4  N   UNL     1       5.649   5.899  15.584  0.00  0.00    +0.000 NA
ATOM      5  N   UNL     1       5.040   4.720  15.892  0.00  0.00    +0.000 NA
ATOM      6  C   UNL     1       4.614   4.520  17.169  0.00  0.00    +0.000 A 
ATOM      7 CL   UNL     1       3.632   3.106  17.328  0.00  0.00    +0.000 Cl
ATOM      8  C   UNL     1       4.582   5.545  18.122  0.00  0.00    +0.000 A 
ATOM      9  C   UNL     1       3.873   5.464  19.330  0.00  0.00    +0.000 A 
ATOM     10  C   UNL     1       2.765   6.282  19.450  0.00  0.00    +0.000 A 
ATOM     11  C   UNL     1       2.551   7.245  18.464  0.00  0.00    +0.000 A 
ATOM     12  C   UNL     1       3.581   7.539  17.552  0.00  0.00    +0.000 A 
ATOM     13  C   UNL     1       4.758   6.774  17.542  0.00  0.00    +0.000 A 
ENDBRANCH   1   3
BRANCH   1  15
ATOM     14  C   UNL     1       7.660   8.797  17.898  0.00  0.00    +0.000 C 
ATOM     15  N   UNL     1       7.953   7.914  17.011  0.00  0.00    +0.000 NA
BRANCH  14  19
ATOM     16  C   UNL     1       9.875  12.346  18.870  0.00  0.00    +0.000 A 
ATOM     17  C   UNL     1      10.121  11.182  19.623  0.00  0.00    +0.000 A 
ATOM     18  C   UNL     1       9.426   9.995  19.283  0.00  0.00    +0.000 A 
ATOM     19  C   UNL     1       8.478   9.987  18.238  0.00  0.00    +0.000 A 
ATOM     20  C   UNL     1       8.238  11.172  17.532  0.00  0.00    +0.000 A 
ATOM     21  C   UNL     1       8.927  12.350  17.840  0.00  0.00    +0.000 A 
BRANCH  16  23
ATOM     22  O   UNL     1      11.831  13.525  19.312  0.00  0.00    +0.000 OA
ATOM     23  N   UNL     1      10.596  13.587  19.168  0.00  0.00    +0.000 N 
ATOM     24  O   UNL     1       9.947  14.640  19.270  0.00  0.00    +0.000 OA
ENDBRANCH  16  23
ENDBRANCH  14  19
ENDBRANCH   1  15
TORSDOF 4
ENDMDL
MODEL 9
REMARK VINA RESULT:      -7.6      0.949      1.257
REMARK  Name = 
REMARK  4 active torsions:
REMARK  status: ('A' for Active; 'I' for Inactive)
REMARK    1  A    between atoms: N_2  and  C_4
REMARK    2  A    between atoms: C_7  and  C_8
REMARK    3  A    between atoms: N_9  and  N_10
REMARK    4  A    between atoms: N_10  and  C_11
REMARK                            x       y       z     vdW  Elec       q    Type
REMARK                         _______ _______ _______ _____ _____    ______ ____
ROOT
ATOM      1  N   UNL     1       3.177   4.999  17.815  0.00  0.00    +0.000 N 
ATOM      2  H   UNL     1       2.596   4.151  17.895  0.00  0.00    +0.000 HD
ENDROOT
BRANCH   1   3
ATOM      3  C   UNL     1       4.491   4.391  18.059  0.00  0.00    +0.000 A 
ATOM      4  N   UNL     1       4.710   3.413  17.162  0.00  0.00    +0.000 NA
ATOM      5  N   UNL     1       5.518   3.685  16.099  0.00  0.00    +0.000 NA
ATOM      6  C   UNL     1       6.052   4.933  15.988  0.00  0.00    +0.000 A 
ATOM      7 CL   UNL     1       7.255   5.031  14.751  0.00  0.00    +0.000 Cl
ATOM      8  C   UNL     1       5.980   5.877  17.017  0.00  0.00    +0.000 A 
ATOM      9  C   UNL     1       6.769   7.037  17.067  0.00  0.00    +0.000 A 
ATOM     10  C   UNL     1       7.737   7.082  18.053  0.00  0.00    +0.000 A 
ATOM     11  C   UNL     1       7.731   6.080  19.024  0.00  0.00    +0.000 A 
ATOM     12  C   UNL     1       6.610   5.237  19.138  0.00  0.00    +0.000 A 
ATOM     13  C   UNL     1       5.573   5.306  18.195  0.00  0.00    +0.000 A 
ENDBRANCH   1   3
BRANCH   1  15
ATOM     14  C   UNL     1       2.678   7.140  18.195  0.00  0.00    +0.000 C 
ATOM     15  N   UNL     1       2.680   5.952  18.686  0.00  0.00    +0.000 NA
BRANCH  14  19
ATOM     16  C   UNL     1       0.785  10.524  20.043  0.00  0.00    +0.000 A 
ATOM     17  C   UNL     1       1.187  10.640  18.698  0.00  0.00    +0.000 A 
ATOM     18  C   UNL     1       1.774   9.515  18.067  0.00  0.00    +0.000 A 
ATOM     19  C   UNL     1       1.988   8.316  18.780  0.00  0.00    +0.000 A 
ATOM     20  C   UNL     1       1.603   8.250  20.124  0.00  0.00    +0.000 A 
ATOM     21  C   UNL     1       1.004   9.343  20.761  0.00  0.00    +0.000 A 
BRANCH  16  23
ATOM     22  O   UNL     1      -0.527  12.445  20.036  0.00  0.00    +0.000 OA
ATOM     23  N   UNL     1       0.144  11.653  20.723  0.00  0.00    +0.000 N 
ATOM     24  O   UNL     1       0.303  11.775  21.948  0.00  0.00    +0.000 OA
ENDBRANCH  16  23
ENDBRANCH  14  19
ENDBRANCH   1  15
TORSDOF 4
ENDMDL
