MODEL 1
REMARK VINA RESULT:      -7.6      0.000      0.000
REMARK  Name = 
REMARK  10 active torsions:
REMARK  status: ('A' for Active; 'I' for Inactive)
REMARK    1  A    between atoms: C_1  and  C_2
REMARK    2  A    between atoms: C_2  and  O_3
REMARK    3  A    between atoms: O_3  and  C_4
REMARK    4  A    between atoms: C_4  and  C_6
REMARK    5  A    between atoms: C_7  and  C_8
REMARK    6  A    between atoms: C_10  and  C_11
REMARK    7  A    between atoms: C_12  and  C_13
REMARK    8  A    between atoms: C_13  and  O_15
REMARK    9  A    between atoms: O_15  and  C_16
REMARK   10  A    between atoms: C_17  and  C_18
REMARK                            x       y       z     vdW  Elec       q    Type
REMARK                         _______ _______ _______ _____ _____    ______ ____
ROOT
ATOM      1  C   UNL     1       3.656   3.879  18.230  0.00  0.00    +0.000 C 
ATOM      2  C   UNL     1       4.546   3.354  19.107  0.00  0.00    +0.000 C 
ATOM      3  C   UNL     1       4.386   2.097  19.929  0.00  0.00    +0.000 C 
ATOM      4  N   UNL     1       5.776   3.981  19.276  0.00  0.00    +0.000 N 
ATOM      5  C   UNL     1       6.297   4.916  18.392  0.00  0.00    +0.000 C 
ATOM      6  C   UNL     1       7.770   5.200  18.517  0.00  0.00    +0.000 C 
ATOM      7  C   UNL     1       5.479   5.500  17.484  0.00  0.00    +0.000 C 
ATOM      8  C   UNL     1       3.979   5.205  17.517  0.00  0.00    +0.000 C 
ATOM      9  H   UNL     1       6.441   3.508  19.883  0.00  0.00    +0.000 HD
ENDROOT
BRANCH   8  10
ATOM     10  C   UNL     1       3.242   6.353  18.165  0.00  0.00    +0.000 A 
ATOM     11  C   UNL     1       2.741   7.537  17.661  0.00  0.00    +0.000 A 
ATOM     12  C   UNL     1       2.104   8.193  18.738  0.00  0.00    +0.000 A 
ATOM     13  C   UNL     1       2.266   7.373  19.832  0.00  0.00    +0.000 A 
ATOM     14  O   UNL     1       2.956   6.253  19.494  0.00  0.00    +0.000 OA
ENDBRANCH   8  10
BRANCH   1  15
ATOM     15  C   UNL     1       2.371   3.209  17.878  0.00  0.00    +0.000 C 
ATOM     16  O   UNL     1       2.221   2.377  16.999  0.00  0.00    +0.000 OA
BRANCH  15  17
ATOM     17  O   UNL     1       1.368   3.764  18.600  0.00  0.00    +0.000 OA
BRANCH  17  19
ATOM     18  C   UNL     1       1.193   3.562  20.961  0.00  0.00    +0.000 C 
ATOM     19  C   UNL     1       0.797   2.947  19.631  0.00  0.00    +0.000 C 
ENDBRANCH  17  19
ENDBRANCH  15  17
ENDBRANCH   1  15
BRANCH   7  20
ATOM     20  C   UNL     1       5.990   6.476  16.487  0.00  0.00    +0.000 C 
ATOM     21  O   UNL     1       6.558   7.521  16.766  0.00  0.00    +0.000 OA
BRANCH  20  22
ATOM     22  O   UNL     1       5.783   6.026  15.225  0.00  0.00    +0.000 OA
ATOM     23  C   UNL     1       6.647   4.952  14.844  0.00  0.00    +0.000 C 
ENDBRANCH  20  22
ENDBRANCH   7  20
TORSDOF 6
ENDMDL
MODEL 2
REMARK VINA RESULT:      -7.1      0.564      1.117
REMARK  Name = 
REMARK  10 active torsions:
REMARK  status: ('A' for Active; 'I' for Inactive)
REMARK    1  A    between atoms: C_1  and  C_2
REMARK    2  A    between atoms: C_2  and  O_3
REMARK    3  A    between atoms: O_3  and  C_4
REMARK    4  A    between atoms: C_4  and  C_6
REMARK    5  A    between atoms: C_7  and  C_8
REMARK    6  A    between atoms: C_10  and  C_11
REMARK    7  A    between atoms: C_12  and  C_13
REMARK    8  A    between atoms: C_13  and  O_15
REMARK    9  A    between atoms: O_15  and  C_16
REMARK   10  A    between atoms: C_17  and  C_18
REMARK                            x       y       z     vdW  Elec       q    Type
REMARK                         _______ _______ _______ _____ _____    ______ ____
ROOT
ATOM      1  C   UNL     1       3.680   3.850  18.184  0.00  0.00    +0.000 C 
ATOM      2  C   UNL     1       4.509   3.308  19.109  0.00  0.00    +0.000 C 
ATOM      3  C   UNL     1       4.278   2.056  19.921  0.00  0.00    +0.000 C 
ATOM      4  N   UNL     1       5.741   3.909  19.345  0.00  0.00    +0.000 N 
ATOM      5  C   UNL     1       6.330   4.831  18.491  0.00  0.00    +0.000 C 
ATOM      6  C   UNL     1       7.799   5.084  18.696  0.00  0.00    +0.000 C 
ATOM      7  C   UNL     1       5.575   5.431  17.540  0.00  0.00    +0.000 C 
ATOM      8  C   UNL     1       4.069   5.169  17.489  0.00  0.00    +0.000 C 
ATOM      9  H   UNL     1       6.362   3.423  19.988  0.00  0.00    +0.000 HD
ENDROOT
BRANCH   8  10
ATOM     10  C   UNL     1       3.323   6.332  18.096  0.00  0.00    +0.000 A 
ATOM     11  C   UNL     1       2.828   7.502  17.554  0.00  0.00    +0.000 A 
ATOM     12  C   UNL     1       2.175   8.186  18.603  0.00  0.00    +0.000 A 
ATOM     13  C   UNL     1       2.323   7.396  19.721  0.00  0.00    +0.000 A 
ATOM     14  O   UNL     1       3.018   6.268  19.423  0.00  0.00    +0.000 OA
ENDBRANCH   8  10
BRANCH   1  15
ATOM     15  C   UNL     1       2.402   3.207  17.763  0.00  0.00    +0.000 C 
ATOM     16  O   UNL     1       2.283   2.380  16.874  0.00  0.00    +0.000 OA
BRANCH  15  17
ATOM     17  O   UNL     1       1.374   3.782  18.431  0.00  0.00    +0.000 OA
BRANCH  17  19
ATOM     18  C   UNL     1       1.102   3.637  20.787  0.00  0.00    +0.000 C 
ATOM     19  C   UNL     1       0.759   2.990  19.457  0.00  0.00    +0.000 C 
ENDBRANCH  17  19
ENDBRANCH  15  17
ENDBRANCH   1  15
BRANCH   7  20
ATOM     20  C   UNL     1       6.160   6.396  16.571  0.00  0.00    +0.000 C 
ATOM     21  O   UNL     1       6.473   6.123  15.422  0.00  0.00    +0.000 OA
BRANCH  20  22
ATOM     22  O   UNL     1       6.254   7.631  17.122  0.00  0.00    +0.000 OA
ATOM     23  C   UNL     1       7.598   8.057  17.364  0.00  0.00    +0.000 C 
ENDBRANCH  20  22
ENDBRANCH   7  20
TORSDOF 6
ENDMDL
MODEL 3
REMARK VINA RESULT:      -6.9      1.911      5.184
REMARK  Name = 
REMARK  10 active torsions:
REMARK  status: ('A' for Active; 'I' for Inactive)
REMARK    1  A    between atoms: C_1  and  C_2
REMARK    2  A    between atoms: C_2  and  O_3
REMARK    3  A    between atoms: O_3  and  C_4
REMARK    4  A    between atoms: C_4  and  C_6
REMARK    5  A    between atoms: C_7  and  C_8
REMARK    6  A    between atoms: C_10  and  C_11
REMARK    7  A    between atoms: C_12  and  C_13
REMARK    8  A    between atoms: C_13  and  O_15
REMARK    9  A    between atoms: O_15  and  C_16
REMARK   10  A    between atoms: C_17  and  C_18
REMARK                            x       y       z     vdW  Elec       q    Type
REMARK                         _______ _______ _______ _____ _____    ______ ____
ROOT
ATOM      1  C   UNL     1       4.775   5.057  18.460  0.00  0.00    +0.000 C 
ATOM      2  C   UNL     1       4.605   4.159  17.459  0.00  0.00    +0.000 C 
ATOM      3  C   UNL     1       5.622   3.742  16.423  0.00  0.00    +0.000 C 
ATOM      4  N   UNL     1       3.391   3.489  17.354  0.00  0.00    +0.000 N 
ATOM      5  C   UNL     1       2.451   3.425  18.372  0.00  0.00    +0.000 C 
ATOM      6  C   UNL     1       1.393   2.363  18.234  0.00  0.00    +0.000 C 
ATOM      7  C   UNL     1       2.536   4.290  19.410  0.00  0.00    +0.000 C 
ATOM      8  C   UNL     1       3.597   5.391  19.394  0.00  0.00    +0.000 C 
ATOM      9  H   UNL     1       3.337   2.768  16.637  0.00  0.00    +0.000 HD
ENDROOT
BRANCH   8  10
ATOM     10  C   UNL     1       2.967   6.708  19.009  0.00  0.00    +0.000 A 
ATOM     11  C   UNL     1       2.906   7.393  17.811  0.00  0.00    +0.000 A 
ATOM     12  C   UNL     1       2.135   8.552  18.051  0.00  0.00    +0.000 A 
ATOM     13  C   UNL     1       1.785   8.507  19.382  0.00  0.00    +0.000 A 
ATOM     14  O   UNL     1       2.285   7.391  19.972  0.00  0.00    +0.000 OA
ENDBRANCH   8  10
BRANCH   1  15
ATOM     15  C   UNL     1       6.079   5.725  18.738  0.00  0.00    +0.000 C 
ATOM     16  O   UNL     1       6.815   5.481  19.680  0.00  0.00    +0.000 OA
BRANCH  15  17
ATOM     17  O   UNL     1       6.258   6.737  17.856  0.00  0.00    +0.000 OA
BRANCH  17  19
ATOM     18  C   UNL     1       7.923   8.429  17.754  0.00  0.00    +0.000 C 
ATOM     19  C   UNL     1       7.606   6.980  17.430  0.00  0.00    +0.000 C 
ENDBRANCH  17  19
ENDBRANCH  15  17
ENDBRANCH   1  15
BRANCH   7  20
ATOM     20  C   UNL     1       1.582   4.241  20.549  0.00  0.00    +0.000 C 
ATOM     21  O   UNL     1       0.384   4.465  20.462  0.00  0.00    +0.000 OA
BRANCH  20  22
ATOM     22  O   UNL     1       2.213   3.865  21.689  0.00  0.00    +0.000 OA
ATOM     23  C   UNL     1       2.548   2.475  21.734  0.00  0.00    +0.000 C 
ENDBRANCH  20  22
ENDBRANCH   7  20
TORSDOF 6
ENDMDL
MODEL 4
REMARK VINA RESULT:      -6.7      2.211      5.325
REMARK  Name = 
REMARK  10 active torsions:
REMARK  status: ('A' for Active; 'I' for Inactive)
REMARK    1  A    between atoms: C_1  and  C_2
REMARK    2  A    between atoms: C_2  and  O_3
REMARK    3  A    between atoms: O_3  and  C_4
REMARK    4  A    between atoms: C_4  and  C_6
REMARK    5  A    between atoms: C_7  and  C_8
REMARK    6  A    between atoms: C_10  and  C_11
REMARK    7  A    between atoms: C_12  and  C_13
REMARK    8  A    between atoms: C_13  and  O_15
REMARK    9  A    between atoms: O_15  and  C_16
REMARK   10  A    between atoms: C_17  and  C_18
REMARK                            x       y       z     vdW  Elec       q    Type
REMARK                         _______ _______ _______ _____ _____    ______ ____
ROOT
ATOM      1  C   UNL     1       2.141   7.571  18.851  0.00  0.00    +0.000 C 
ATOM      2  C   UNL     1       1.907   7.522  20.186  0.00  0.00    +0.000 C 
ATOM      3  C   UNL     1       1.504   8.667  21.084  0.00  0.00    +0.000 C 
ATOM      4  N   UNL     1       1.996   6.299  20.841  0.00  0.00    +0.000 N 
ATOM      5  C   UNL     1       1.990   5.071  20.195  0.00  0.00    +0.000 C 
ATOM      6  C   UNL     1       1.709   3.868  21.055  0.00  0.00    +0.000 C 
ATOM      7  C   UNL     1       2.223   5.022  18.862  0.00  0.00    +0.000 C 
ATOM      8  C   UNL     1       2.595   6.300  18.109  0.00  0.00    +0.000 C 
ATOM      9  H   UNL     1       1.735   6.297  21.825  0.00  0.00    +0.000 HD
ENDROOT
BRANCH   8  10
ATOM     10  C   UNL     1       4.083   6.333  17.854  0.00  0.00    +0.000 A 
ATOM     11  C   UNL     1       5.164   5.938  18.616  0.00  0.00    +0.000 A 
ATOM     12  C   UNL     1       6.315   6.168  17.828  0.00  0.00    +0.000 A 
ATOM     13  C   UNL     1       5.863   6.699  16.641  0.00  0.00    +0.000 A 
ATOM     14  O   UNL     1       4.509   6.803  16.647  0.00  0.00    +0.000 OA
ENDBRANCH   8  10
BRANCH   1  15
ATOM     15  C   UNL     1       1.940   8.803  18.036  0.00  0.00    +0.000 C 
ATOM     16  O   UNL     1       2.804   9.615  17.751  0.00  0.00    +0.000 OA
BRANCH  15  17
ATOM     17  O   UNL     1       0.619   8.951  17.772  0.00  0.00    +0.000 OA
BRANCH  17  19
ATOM     18  C   UNL     1      -1.425  10.160  17.729  0.00  0.00    +0.000 C 
ATOM     19  C   UNL     1       0.018  10.181  18.198  0.00  0.00    +0.000 C 
ENDBRANCH  17  19
ENDBRANCH  15  17
ENDBRANCH   1  15
BRANCH   7  20
ATOM     20  C   UNL     1       2.189   3.740  18.110  0.00  0.00    +0.000 C 
ATOM     21  O   UNL     1       1.215   3.313  17.508  0.00  0.00    +0.000 OA
BRANCH  20  22
ATOM     22  O   UNL     1       3.401   3.133  18.140  0.00  0.00    +0.000 OA
ATOM     23  C   UNL     1       3.340   1.733  18.430  0.00  0.00    +0.000 C 
ENDBRANCH  20  22
ENDBRANCH   7  20
TORSDOF 6
ENDMDL
MODEL 5
REMARK VINA RESULT:      -6.6      2.290      4.721
REMARK  Name = 
REMARK  10 active torsions:
REMARK  status: ('A' for Active; 'I' for Inactive)
REMARK    1  A    between atoms: C_1  and  C_2
REMARK    2  A    between atoms: C_2  and  O_3
REMARK    3  A    between atoms: O_3  and  C_4
REMARK    4  A    between atoms: C_4  and  C_6
REMARK    5  A    between atoms: C_7  and  C_8
REMARK    6  A    between atoms: C_10  and  C_11
REMARK    7  A    between atoms: C_12  and  C_13
REMARK    8  A    between atoms: C_13  and  O_15
REMARK    9  A    between atoms: O_15  and  C_16
REMARK   10  A    between atoms: C_17  and  C_18
REMARK                            x       y       z     vdW  Elec       q    Type
REMARK                         _______ _______ _______ _____ _____    ______ ____
ROOT
ATOM      1  C   UNL     1       2.328   7.118  19.497  0.00  0.00    +0.000 C 
ATOM      2  C   UNL     1       2.389   7.834  18.348  0.00  0.00    +0.000 C 
ATOM      3  C   UNL     1       1.599   9.074  18.001  0.00  0.00    +0.000 C 
ATOM      4  N   UNL     1       3.292   7.451  17.362  0.00  0.00    +0.000 N 
ATOM      5  C   UNL     1       4.360   6.592  17.581  0.00  0.00    +0.000 C 
ATOM      6  C   UNL     1       5.437   6.589  16.530  0.00  0.00    +0.000 C 
ATOM      7  C   UNL     1       4.380   5.830  18.700  0.00  0.00    +0.000 C 
ATOM      8  C   UNL     1       3.181   5.845  19.649  0.00  0.00    +0.000 C 
ATOM      9  H   UNL     1       3.359   8.064  16.552  0.00  0.00    +0.000 HD
ENDROOT
BRANCH   8  10
ATOM     10  C   UNL     1       2.339   4.610  19.435  0.00  0.00    +0.000 A 
ATOM     11  C   UNL     1       1.684   4.113  18.326  0.00  0.00    +0.000 A 
ATOM     12  C   UNL     1       1.101   2.888  18.719  0.00  0.00    +0.000 A 
ATOM     13  C   UNL     1       1.428   2.721  20.046  0.00  0.00    +0.000 A 
ATOM     14  O   UNL     1       2.180   3.761  20.490  0.00  0.00    +0.000 OA
ENDBRANCH   8  10
BRANCH   1  15
ATOM     15  C   UNL     1       1.493   7.525  20.664  0.00  0.00    +0.000 C 
ATOM     16  O   UNL     1       0.504   6.938  21.069  0.00  0.00    +0.000 OA
BRANCH  15  17
ATOM     17  O   UNL     1       1.927   8.724  21.124  0.00  0.00    +0.000 OA
BRANCH  17  19
ATOM     18  C   UNL     1       0.379  10.513  21.345  0.00  0.00    +0.000 C 
ATOM     19  C   UNL     1       1.083   9.384  22.076  0.00  0.00    +0.000 C 
ENDBRANCH  17  19
ENDBRANCH  15  17
ENDBRANCH   1  15
BRANCH   7  20
ATOM     20  C   UNL     1       5.517   4.923  19.007  0.00  0.00    +0.000 C 
ATOM     21  O   UNL     1       5.622   3.777  18.596  0.00  0.00    +0.000 OA
BRANCH  20  22
ATOM     22  O   UNL     1       6.446   5.557  19.765  0.00  0.00    +0.000 OA
ATOM     23  C   UNL     1       7.729   5.659  19.142  0.00  0.00    +0.000 C 
ENDBRANCH  20  22
ENDBRANCH   7  20
TORSDOF 6
ENDMDL
MODEL 6
REMARK VINA RESULT:      -6.6      1.811      5.158
REMARK  Name = 
REMARK  10 active torsions:
REMARK  status: ('A' for Active; 'I' for Inactive)
REMARK    1  A    between atoms: C_1  and  C_2
REMARK    2  A    between atoms: C_2  and  O_3
REMARK    3  A    between atoms: O_3  and  C_4
REMARK    4  A    between atoms: C_4  and  C_6
REMARK    5  A    between atoms: C_7  and  C_8
REMARK    6  A    between atoms: C_10  and  C_11
REMARK    7  A    between atoms: C_12  and  C_13
REMARK    8  A    between atoms: C_13  and  O_15
REMARK    9  A    between atoms: O_15  and  C_16
REMARK   10  A    between atoms: C_17  and  C_18
REMARK                            x       y       z     vdW  Elec       q    Type
REMARK                         _______ _______ _______ _____ _____    ______ ____
ROOT
ATOM      1  C   UNL     1       5.793   5.155  18.256  0.00  0.00    +0.000 C 
ATOM      2  C   UNL     1       5.856   4.340  17.174  0.00  0.00    +0.000 C 
ATOM      3  C   UNL     1       6.950   4.284  16.135  0.00  0.00    +0.000 C 
ATOM      4  N   UNL     1       4.846   3.405  16.976  0.00  0.00    +0.000 N 
ATOM      5  C   UNL     1       3.945   3.016  17.958  0.00  0.00    +0.000 C 
ATOM      6  C   UNL     1       3.184   1.745  17.696  0.00  0.00    +0.000 C 
ATOM      7  C   UNL     1       3.809   3.775  19.071  0.00  0.00    +0.000 C 
ATOM      8  C   UNL     1       4.564   5.101  19.182  0.00  0.00    +0.000 C 
ATOM      9  H   UNL     1       4.976   2.763  16.197  0.00  0.00    +0.000 HD
ENDROOT
BRANCH   8  10
ATOM     10  C   UNL     1       3.629   6.252  18.898  0.00  0.00    +0.000 A 
ATOM     11  C   UNL     1       3.320   6.931  17.737  0.00  0.00    +0.000 A 
ATOM     12  C   UNL     1       2.334   7.884  18.080  0.00  0.00    +0.000 A 
ATOM     13  C   UNL     1       2.114   7.733  19.431  0.00  0.00    +0.000 A 
ATOM     14  O   UNL     1       2.896   6.744  19.936  0.00  0.00    +0.000 OA
ENDBRANCH   8  10
BRANCH   1  15
ATOM     15  C   UNL     1       6.889   6.094  18.629  0.00  0.00    +0.000 C 
ATOM     16  O   UNL     1       7.736   5.894  19.484  0.00  0.00    +0.000 OA
BRANCH  15  17
ATOM     17  O   UNL     1       6.721   7.262  17.963  0.00  0.00    +0.000 OA
BRANCH  17  19
ATOM     18  C   UNL     1       8.205   9.116  18.051  0.00  0.00    +0.000 C 
ATOM     19  C   UNL     1       7.889   7.813  17.339  0.00  0.00    +0.000 C 
ENDBRANCH  17  19
ENDBRANCH  15  17
ENDBRANCH   1  15
BRANCH   7  20
ATOM     20  C   UNL     1       2.890   3.387  20.173  0.00  0.00    +0.000 C 
ATOM     21  O   UNL     1       3.213   2.719  21.144  0.00  0.00    +0.000 OA
BRANCH  20  22
ATOM     22  O   UNL     1       1.657   3.917  19.980  0.00  0.00    +0.000 OA
ATOM     23  C   UNL     1       0.615   2.942  19.892  0.00  0.00    +0.000 C 
ENDBRANCH  20  22
ENDBRANCH   7  20
TORSDOF 6
ENDMDL
MODEL 7
REMARK VINA RESULT:      -6.6      2.204      5.327
REMARK  Name = 
REMARK  10 active torsions:
REMARK  status: ('A' for Active; 'I' for Inactive)
REMARK    1  A    between atoms: C_1  and  C_2
REMARK    2  A    between atoms: C_2  and  O_3
REMARK    3  A    between atoms: O_3  and  C_4
REMARK    4  A    between atoms: C_4  and  C_6
REMARK    5  A    between atoms: C_7  and  C_8
REMARK    6  A    between atoms: C_10  and  C_11
REMARK    7  A    between atoms: C_12  and  C_13
REMARK    8  A    between atoms: C_13  and  O_15
REMARK    9  A    between atoms: O_15  and  C_16
REMARK   10  A    between atoms: C_17  and  C_18
REMARK                            x       y       z     vdW  Elec       q    Type
REMARK                         _______ _______ _______ _____ _____    ______ ____
ROOT
ATOM      1  C   UNL     1       2.146   7.553  18.805  0.00  0.00    +0.000 C 
ATOM      2  C   UNL     1       1.975   7.571  20.150  0.00  0.00    +0.000 C 
ATOM      3  C   UNL     1       1.561   8.745  21.004  0.00  0.00    +0.000 C 
ATOM      4  N   UNL     1       2.150   6.391  20.866  0.00  0.00    +0.000 N 
ATOM      5  C   UNL     1       2.171   5.130  20.289  0.00  0.00    +0.000 C 
ATOM      6  C   UNL     1       1.985   3.966  21.226  0.00  0.00    +0.000 C 
ATOM      7  C   UNL     1       2.344   5.015  18.951  0.00  0.00    +0.000 C 
ATOM      8  C   UNL     1       2.623   6.263  18.113  0.00  0.00    +0.000 C 
ATOM      9  H   UNL     1       1.934   6.434  21.860  0.00  0.00    +0.000 HD
ENDROOT
BRANCH   8  10
ATOM     10  C   UNL     1       4.094   6.346  17.785  0.00  0.00    +0.000 A 
ATOM     11  C   UNL     1       4.776   6.858  16.698  0.00  0.00    +0.000 A 
ATOM     12  C   UNL     1       6.151   6.698  16.976  0.00  0.00    +0.000 A 
ATOM     13  C   UNL     1       6.222   6.090  18.209  0.00  0.00    +0.000 A 
ATOM     14  O   UNL     1       4.978   5.872  18.709  0.00  0.00    +0.000 OA
ENDBRANCH   8  10
BRANCH   1  15
ATOM     15  C   UNL     1       1.851   8.728  17.935  0.00  0.00    +0.000 C 
ATOM     16  O   UNL     1       2.663   9.559  17.565  0.00  0.00    +0.000 OA
BRANCH  15  17
ATOM     17  O   UNL     1       0.514   8.802  17.727  0.00  0.00    +0.000 OA
BRANCH  17  19
ATOM     18  C   UNL     1      -1.521  10.009  17.504  0.00  0.00    +0.000 C 
ATOM     19  C   UNL     1      -0.118  10.038  18.086  0.00  0.00    +0.000 C 
ENDBRANCH  17  19
ENDBRANCH  15  17
ENDBRANCH   1  15
BRANCH   7  20
ATOM     20  C   UNL     1       2.335   3.692  18.272  0.00  0.00    +0.000 C 
ATOM     21  O   UNL     1       3.326   3.006  18.073  0.00  0.00    +0.000 OA
BRANCH  20  22
ATOM     22  O   UNL     1       1.069   3.328  17.949  0.00  0.00    +0.000 OA
ATOM     23  C   UNL     1       0.607   2.165  18.641  0.00  0.00    +0.000 C 
ENDBRANCH  20  22
ENDBRANCH   7  20
TORSDOF 6
ENDMDL
MODEL 8
REMARK VINA RESULT:      -6.5      1.989      5.074
REMARK  Name = 
REMARK  10 active torsions:
REMARK  status: ('A' for Active; 'I' for Inactive)
REMARK    1  A    between atoms: C_1  and  C_2
REMARK    2  A    between atoms: C_2  and  O_3
REMARK    3  A    between atoms: O_3  and  C_4
REMARK    4  A    between atoms: C_4  and  C_6
REMARK    5  A    between atoms: C_7  and  C_8
REMARK    6  A    between atoms: C_10  and  C_11
REMARK    7  A    between atoms: C_12  and  C_13
REMARK    8  A    between atoms: C_13  and  O_15
REMARK    9  A    between atoms: O_15  and  C_16
REMARK   10  A    between atoms: C_17  and  C_18
REMARK                            x       y       z     vdW  Elec       q    Type
REMARK                         _______ _______ _______ _____ _____    ______ ____
ROOT
ATOM      1  C   UNL     1       4.444   5.578  17.989  0.00  0.00    +0.000 C 
ATOM      2  C   UNL     1       4.171   4.664  17.025  0.00  0.00    +0.000 C 
ATOM      3  C   UNL     1       5.041   4.290  15.849  0.00  0.00    +0.000 C 
ATOM      4  N   UNL     1       2.990   3.935  17.104  0.00  0.00    +0.000 N 
ATOM      5  C   UNL     1       2.218   3.831  18.252  0.00  0.00    +0.000 C 
ATOM      6  C   UNL     1       1.206   2.717  18.275  0.00  0.00    +0.000 C 
ATOM      7  C   UNL     1       2.415   4.707  19.266  0.00  0.00    +0.000 C 
ATOM      8  C   UNL     1       3.405   5.860  19.090  0.00  0.00    +0.000 C 
ATOM      9  H   UNL     1       2.866   3.206  16.404  0.00  0.00    +0.000 HD
ENDROOT
BRANCH   8  10
ATOM     10  C   UNL     1       2.658   7.141  18.804  0.00  0.00    +0.000 A 
ATOM     11  C   UNL     1       2.402   7.824  17.631  0.00  0.00    +0.000 A 
ATOM     12  C   UNL     1       1.608   8.938  17.982  0.00  0.00    +0.000 A 
ATOM     13  C   UNL     1       1.440   8.871  19.347  0.00  0.00    +0.000 A 
ATOM     14  O   UNL     1       2.074   7.783  19.855  0.00  0.00    +0.000 OA
ENDBRANCH   8  10
BRANCH   1  15
ATOM     15  C   UNL     1       5.740   6.311  18.069  0.00  0.00    +0.000 C 
ATOM     16  O   UNL     1       6.130   7.153  17.277  0.00  0.00    +0.000 OA
BRANCH  15  17
ATOM     17  O   UNL     1       6.477   5.802  19.085  0.00  0.00    +0.000 OA
BRANCH  17  19
ATOM     18  C   UNL     1       7.968   4.457  17.815  0.00  0.00    +0.000 C 
ATOM     19  C   UNL     1       7.870   5.591  18.819  0.00  0.00    +0.000 C 
ENDBRANCH  17  19
ENDBRANCH  15  17
ENDBRANCH   1  15
BRANCH   7  20
ATOM     20  C   UNL     1       1.646   4.620  20.535  0.00  0.00    +0.000 C 
ATOM     21  O   UNL     1       0.468   4.922  20.656  0.00  0.00    +0.000 OA
BRANCH  20  22
ATOM     22  O   UNL     1       2.415   4.111  21.529  0.00  0.00    +0.000 OA
ATOM     23  C   UNL     1       2.185   2.723  21.786  0.00  0.00    +0.000 C 
ENDBRANCH  20  22
ENDBRANCH   7  20
TORSDOF 6
ENDMDL
MODEL 9
REMARK VINA RESULT:      -6.4      1.937      3.974
REMARK  Name = 
REMARK  10 active torsions:
REMARK  status: ('A' for Active; 'I' for Inactive)
REMARK    1  A    between atoms: C_1  and  C_2
REMARK    2  A    between atoms: C_2  and  O_3
REMARK    3  A    between atoms: O_3  and  C_4
REMARK    4  A    between atoms: C_4  and  C_6
REMARK    5  A    between atoms: C_7  and  C_8
REMARK    6  A    between atoms: C_10  and  C_11
REMARK    7  A    between atoms: C_12  and  C_13
REMARK    8  A    between atoms: C_13  and  O_15
REMARK    9  A    between atoms: O_15  and  C_16
REMARK   10  A    between atoms: C_17  and  C_18
REMARK                            x       y       z     vdW  Elec       q    Type
REMARK                         _______ _______ _______ _____ _____    ______ ____
ROOT
ATOM      1  C   UNL     1       3.039   6.198  19.137  0.00  0.00    +0.000 C 
ATOM      2  C   UNL     1       2.939   7.151  18.179  0.00  0.00    +0.000 C 
ATOM      3  C   UNL     1       1.906   8.249  18.087  0.00  0.00    +0.000 C 
ATOM      4  N   UNL     1       3.892   7.192  17.167  0.00  0.00    +0.000 N 
ATOM      5  C   UNL     1       5.116   6.543  17.229  0.00  0.00    +0.000 C 
ATOM      6  C   UNL     1       6.160   6.996  16.244  0.00  0.00    +0.000 C 
ATOM      7  C   UNL     1       5.305   5.569  18.151  0.00  0.00    +0.000 C 
ATOM      8  C   UNL     1       4.138   5.124  19.034  0.00  0.00    +0.000 C 
ATOM      9  H   UNL     1       3.822   7.972  16.516  0.00  0.00    +0.000 HD
ENDROOT
BRANCH   8  10
ATOM     10  C   UNL     1       3.569   3.824  18.520  0.00  0.00    +0.000 A 
ATOM     11  C   UNL     1       2.657   3.540  17.522  0.00  0.00    +0.000 A 
ATOM     12  C   UNL     1       2.553   2.132  17.463  0.00  0.00    +0.000 A 
ATOM     13  C   UNL     1       3.399   1.648  18.436  0.00  0.00    +0.000 A 
ATOM     14  O   UNL     1       4.020   2.667  19.082  0.00  0.00    +0.000 OA
ENDBRANCH   8  10
BRANCH   1  15
ATOM     15  C   UNL     1       2.150   6.153  20.334  0.00  0.00    +0.000 C 
ATOM     16  O   UNL     1       1.545   7.101  20.805  0.00  0.00    +0.000 OA
BRANCH  15  17
ATOM     17  O   UNL     1       2.223   4.922  20.895  0.00  0.00    +0.000 OA
BRANCH  17  19
ATOM     18  C   UNL     1       1.382   2.765  21.428  0.00  0.00    +0.000 C 
ATOM     19  C   UNL     1       1.072   4.081  20.739  0.00  0.00    +0.000 C 
ENDBRANCH  17  19
ENDBRANCH  15  17
ENDBRANCH   1  15
BRANCH   7  20
ATOM     20  C   UNL     1       6.608   4.867  18.290  0.00  0.00    +0.000 C 
ATOM     21  O   UNL     1       7.113   4.161  17.430  0.00  0.00    +0.000 OA
BRANCH  20  22
ATOM     22  O   UNL     1       7.185   5.157  19.483  0.00  0.00    +0.000 OA
ATOM     23  C   UNL     1       8.178   6.183  19.412  0.00  0.00    +0.000 C 
ENDBRANCH  20  22
ENDBRANCH   7  20
TORSDOF 6
ENDMDL
