MODEL 1
REMARK VINA RESULT:      -8.1      0.000      0.000
REMARK  Name = 
REMARK  5 active torsions:
REMARK  status: ('A' for Active; 'I' for Inactive)
REMARK    1  A    between atoms: C_1  and  C_2
REMARK    2  A    between atoms: C_2  and  O_3
REMARK    3  A    between atoms: O_3  and  C_4
REMARK    4  A    between atoms: C_4  and  C_6
REMARK    5  A    between atoms: C_13  and  C_14
REMARK                            x       y       z     vdW  Elec       q    Type
REMARK                         _______ _______ _______ _____ _____    ______ ____
ROOT
ATOM      1  C   UNL     1       2.519   5.651  19.334  0.00  0.00    +0.000 A 
ATOM      2  C   UNL     1       1.360   5.536  20.098  0.00  0.00    +0.000 A 
ATOM      3  N   UNL     1       1.435   4.386  20.824  0.00  0.00    +0.000 N 
ATOM      4  C   UNL     1       2.593   3.734  20.523  0.00  0.00    +0.000 A 
ATOM      5  N   UNL     1       2.948   2.583  21.113  0.00  0.00    +0.000 NA
ATOM      6  C   UNL     1       4.117   2.131  20.653  0.00  0.00    +0.000 A 
ATOM      7  N   UNL     1       4.884   2.681  19.700  0.00  0.00    +0.000 NA
ATOM      8  C   UNL     1       4.484   3.848  19.106  0.00  0.00    +0.000 A 
ATOM      9  C   UNL     1       3.292   4.455  19.552  0.00  0.00    +0.000 A 
ATOM     10  H   UNL     1       0.767   4.059  21.507  0.00  0.00    +0.000 HD
ENDROOT
BRANCH   8  11
ATOM     11  C   UNL     1       5.346   4.314  18.007  0.00  0.00    +0.000 A 
ATOM     12  C   UNL     1       6.500   5.079  18.293  0.00  0.00    +0.000 A 
ATOM     13  C   UNL     1       7.394   5.520  17.305  0.00  0.00    +0.000 A 
ATOM     14  C   UNL     1       7.084   5.184  15.989  0.00  0.00    +0.000 A 
ATOM     15  N   UNL     1       7.713   5.456  14.802  0.00  0.00    +0.000 N 
ATOM     16  N   UNL     1       7.083   4.962  13.719  0.00  0.00    +0.000 NA
ATOM     17  C   UNL     1       6.019   4.344  14.239  0.00  0.00    +0.000 A 
ATOM     18  C   UNL     1       5.971   4.431  15.647  0.00  0.00    +0.000 A 
ATOM     19  C   UNL     1       5.117   3.960  16.664  0.00  0.00    +0.000 A 
ATOM     20  H   UNL     1       8.574   5.972  14.663  0.00  0.00    +0.000 HD
ENDBRANCH   8  11
BRANCH   1  21
ATOM     21  C   UNL     1       2.829   6.846  18.568  0.00  0.00    +0.000 C 
ATOM     22  O   UNL     1       3.631   6.876  17.646  0.00  0.00    +0.000 OA
BRANCH  21  23
ATOM     23  O   UNL     1       2.198   7.945  19.079  0.00  0.00    +0.000 OA
BRANCH  23  25
ATOM     24  C   UNL     1       0.707   9.631  18.277  0.00  0.00    +0.000 C 
ATOM     25  C   UNL     1       2.117   9.072  18.199  0.00  0.00    +0.000 C 
ENDBRANCH  23  25
ENDBRANCH  21  23
ENDBRANCH   1  21
TORSDOF 4
ENDMDL
MODEL 2
REMARK VINA RESULT:      -8.0      2.203      3.674
REMARK  Name = 
REMARK  5 active torsions:
REMARK  status: ('A' for Active; 'I' for Inactive)
REMARK    1  A    between atoms: C_1  and  C_2
REMARK    2  A    between atoms: C_2  and  O_3
REMARK    3  A    between atoms: O_3  and  C_4
REMARK    4  A    between atoms: C_4  and  C_6
REMARK    5  A    between atoms: C_13  and  C_14
REMARK                            x       y       z     vdW  Elec       q    Type
REMARK                         _______ _______ _______ _____ _____    ______ ____
ROOT
ATOM      1  C   UNL     1       3.252   4.663  19.937  0.00  0.00    +0.000 A 
ATOM      2  C   UNL     1       2.462   4.663  21.083  0.00  0.00    +0.000 A 
ATOM      3  N   UNL     1       1.773   5.837  21.133  0.00  0.00    +0.000 N 
ATOM      4  C   UNL     1       2.126   6.615  20.070  0.00  0.00    +0.000 A 
ATOM      5  N   UNL     1       1.582   7.819  19.845  0.00  0.00    +0.000 NA
ATOM      6  C   UNL     1       2.086   8.393  18.750  0.00  0.00    +0.000 A 
ATOM      7  N   UNL     1       3.042   7.908  17.944  0.00  0.00    +0.000 NA
ATOM      8  C   UNL     1       3.589   6.682  18.211  0.00  0.00    +0.000 A 
ATOM      9  C   UNL     1       3.092   5.950  19.311  0.00  0.00    +0.000 A 
ATOM     10  H   UNL     1       1.083   6.105  21.820  0.00  0.00    +0.000 HD
ENDROOT
BRANCH   8  11
ATOM     11  C   UNL     1       4.695   6.286  17.324  0.00  0.00    +0.000 A 
ATOM     12  C   UNL     1       6.008   6.734  17.592  0.00  0.00    +0.000 A 
ATOM     13  C   UNL     1       7.119   6.363  16.820  0.00  0.00    +0.000 A 
ATOM     14  C   UNL     1       6.873   5.526  15.734  0.00  0.00    +0.000 A 
ATOM     15  N   UNL     1       7.702   4.992  14.783  0.00  0.00    +0.000 N 
ATOM     16  N   UNL     1       7.072   4.229  13.869  0.00  0.00    +0.000 NA
ATOM     17  C   UNL     1       5.796   4.272  14.261  0.00  0.00    +0.000 A 
ATOM     18  C   UNL     1       5.608   5.048  15.424  0.00  0.00    +0.000 A 
ATOM     19  C   UNL     1       4.518   5.398  16.246  0.00  0.00    +0.000 A 
ATOM     20  H   UNL     1       8.705   5.109  14.702  0.00  0.00    +0.000 HD
ENDBRANCH   8  11
BRANCH   1  21
ATOM     21  C   UNL     1       3.988   3.489  19.501  0.00  0.00    +0.000 C 
ATOM     22  O   UNL     1       5.186   3.487  19.258  0.00  0.00    +0.000 OA
BRANCH  21  23
ATOM     23  O   UNL     1       3.156   2.425  19.293  0.00  0.00    +0.000 OA
BRANCH  23  25
ATOM     24  C   UNL     1       0.855   2.338  18.654  0.00  0.00    +0.000 C 
ATOM     25  C   UNL     1       2.279   2.540  18.166  0.00  0.00    +0.000 C 
ENDBRANCH  23  25
ENDBRANCH  21  23
ENDBRANCH   1  21
TORSDOF 4
ENDMDL
MODEL 3
REMARK VINA RESULT:      -7.9      2.331      3.648
REMARK  Name = 
REMARK  5 active torsions:
REMARK  status: ('A' for Active; 'I' for Inactive)
REMARK    1  A    between atoms: C_1  and  C_2
REMARK    2  A    between atoms: C_2  and  O_3
REMARK    3  A    between atoms: O_3  and  C_4
REMARK    4  A    between atoms: C_4  and  C_6
REMARK    5  A    between atoms: C_13  and  C_14
REMARK                            x       y       z     vdW  Elec       q    Type
REMARK                         _______ _______ _______ _____ _____    ______ ____
ROOT
ATOM      1  C   UNL     1       3.447   3.029  20.482  0.00  0.00    +0.000 A 
ATOM      2  C   UNL     1       2.653   2.685  21.573  0.00  0.00    +0.000 A 
ATOM      3  N   UNL     1       1.848   3.743  21.872  0.00  0.00    +0.000 N 
ATOM      4  C   UNL     1       2.126   4.777  21.029  0.00  0.00    +0.000 A 
ATOM      5  N   UNL     1       1.463   5.941  21.072  0.00  0.00    +0.000 NA
ATOM      6  C   UNL     1       1.913   6.802  20.155  0.00  0.00    +0.000 A 
ATOM      7  N   UNL     1       2.918   6.614  19.288  0.00  0.00    +0.000 NA
ATOM      8  C   UNL     1       3.586   5.418  19.281  0.00  0.00    +0.000 A 
ATOM      9  C   UNL     1       3.160   4.406  20.166  0.00  0.00    +0.000 A 
ATOM     10  H   UNL     1       1.130   3.773  22.581  0.00  0.00    +0.000 HD
ENDROOT
BRANCH   8  11
ATOM     11  C   UNL     1       4.733   5.350  18.360  0.00  0.00    +0.000 A 
ATOM     12  C   UNL     1       6.044   5.238  18.875  0.00  0.00    +0.000 A 
ATOM     13  C   UNL     1       7.182   5.122  18.061  0.00  0.00    +0.000 A 
ATOM     14  C   UNL     1       6.969   5.143  16.684  0.00  0.00    +0.000 A 
ATOM     15  N   UNL     1       7.832   5.069  15.623  0.00  0.00    +0.000 N 
ATOM     16  N   UNL     1       7.232   5.140  14.419  0.00  0.00    +0.000 NA
ATOM     17  C   UNL     1       5.938   5.254  14.728  0.00  0.00    +0.000 A 
ATOM     18  C   UNL     1       5.705   5.245  16.120  0.00  0.00    +0.000 A 
ATOM     19  C   UNL     1       4.577   5.310  16.961  0.00  0.00    +0.000 A 
ATOM     20  H   UNL     1       8.840   4.968  15.652  0.00  0.00    +0.000 HD
ENDBRANCH   8  11
BRANCH   1  21
ATOM     21  C   UNL     1       4.301   2.068  19.809  0.00  0.00    +0.000 C 
ATOM     22  O   UNL     1       5.209   1.460  20.358  0.00  0.00    +0.000 OA
BRANCH  21  23
ATOM     23  O   UNL     1       4.035   2.013  18.469  0.00  0.00    +0.000 OA
BRANCH  23  25
ATOM     24  C   UNL     1       2.198   2.797  17.159  0.00  0.00    +0.000 C 
ATOM     25  C   UNL     1       2.675   1.726  18.123  0.00  0.00    +0.000 C 
ENDBRANCH  23  25
ENDBRANCH  21  23
ENDBRANCH   1  21
TORSDOF 4
ENDMDL
MODEL 4
REMARK VINA RESULT:      -7.7      2.610      5.813
REMARK  Name = 
REMARK  5 active torsions:
REMARK  status: ('A' for Active; 'I' for Inactive)
REMARK    1  A    between atoms: C_1  and  C_2
REMARK    2  A    between atoms: C_2  and  O_3
REMARK    3  A    between atoms: O_3  and  C_4
REMARK    4  A    between atoms: C_4  and  C_6
REMARK    5  A    between atoms: C_13  and  C_14
REMARK                            x       y       z     vdW  Elec       q    Type
REMARK                         _______ _______ _______ _____ _____    ______ ____
ROOT
ATOM      1  C   UNL     1       4.897   5.207  16.860  0.00  0.00    +0.000 A 
ATOM      2  C   UNL     1       5.709   4.152  16.454  0.00  0.00    +0.000 A 
ATOM      3  N   UNL     1       5.077   2.982  16.749  0.00  0.00    +0.000 N 
ATOM      4  C   UNL     1       3.894   3.250  17.371  0.00  0.00    +0.000 A 
ATOM      5  N   UNL     1       3.044   2.287  17.752  0.00  0.00    +0.000 NA
ATOM      6  C   UNL     1       1.957   2.790  18.343  0.00  0.00    +0.000 A 
ATOM      7  N   UNL     1       1.692   4.080  18.594  0.00  0.00    +0.000 NA
ATOM      8  C   UNL     1       2.590   5.039  18.207  0.00  0.00    +0.000 A 
ATOM      9  C   UNL     1       3.751   4.633  17.517  0.00  0.00    +0.000 A 
ATOM     10  H   UNL     1       5.396   2.050  16.528  0.00  0.00    +0.000 HD
ENDROOT
BRANCH   8  11
ATOM     11  C   UNL     1       2.250   6.412  18.615  0.00  0.00    +0.000 A 
ATOM     12  C   UNL     1       2.140   7.430  17.641  0.00  0.00    +0.000 A 
ATOM     13  C   UNL     1       1.776   8.750  17.946  0.00  0.00    +0.000 A 
ATOM     14  C   UNL     1       1.537   9.037  19.289  0.00  0.00    +0.000 A 
ATOM     15  N   UNL     1       1.184  10.195  19.929  0.00  0.00    +0.000 N 
ATOM     16  N   UNL     1       1.059  10.071  21.264  0.00  0.00    +0.000 NA
ATOM     17  C   UNL     1       1.333   8.782  21.479  0.00  0.00    +0.000 A 
ATOM     18  C   UNL     1       1.622   8.079  20.289  0.00  0.00    +0.000 A 
ATOM     19  C   UNL     1       1.942   6.751  19.947  0.00  0.00    +0.000 A 
ATOM     20  H   UNL     1       1.013  11.104  19.513  0.00  0.00    +0.000 HD
ENDBRANCH   8  11
BRANCH   1  21
ATOM     21  C   UNL     1       5.205   6.591  16.543  0.00  0.00    +0.000 C 
ATOM     22  O   UNL     1       4.961   7.114  15.465  0.00  0.00    +0.000 OA
BRANCH  21  23
ATOM     23  O   UNL     1       5.897   7.194  17.556  0.00  0.00    +0.000 OA
BRANCH  23  25
ATOM     24  C   UNL     1       7.839   8.573  17.736  0.00  0.00    +0.000 C 
ATOM     25  C   UNL     1       7.323   7.181  17.420  0.00  0.00    +0.000 C 
ENDBRANCH  23  25
ENDBRANCH  21  23
ENDBRANCH   1  21
TORSDOF 4
ENDMDL
MODEL 5
REMARK VINA RESULT:      -7.7      2.666      4.495
REMARK  Name = 
REMARK  5 active torsions:
REMARK  status: ('A' for Active; 'I' for Inactive)
REMARK    1  A    between atoms: C_1  and  C_2
REMARK    2  A    between atoms: C_2  and  O_3
REMARK    3  A    between atoms: O_3  and  C_4
REMARK    4  A    between atoms: C_4  and  C_6
REMARK    5  A    between atoms: C_13  and  C_14
REMARK                            x       y       z     vdW  Elec       q    Type
REMARK                         _______ _______ _______ _____ _____    ______ ____
ROOT
ATOM      1  C   UNL     1       1.676   6.688  20.548  0.00  0.00    +0.000 A 
ATOM      2  C   UNL     1       0.939   7.408  21.484  0.00  0.00    +0.000 A 
ATOM      3  N   UNL     1       0.706   8.654  20.984  0.00  0.00    +0.000 N 
ATOM      4  C   UNL     1       1.306   8.773  19.766  0.00  0.00    +0.000 A 
ATOM      5  N   UNL     1       1.218   9.886  19.025  0.00  0.00    +0.000 NA
ATOM      6  C   UNL     1       1.890   9.770  17.876  0.00  0.00    +0.000 A 
ATOM      7  N   UNL     1       2.613   8.721  17.460  0.00  0.00    +0.000 NA
ATOM      8  C   UNL     1       2.696   7.605  18.249  0.00  0.00    +0.000 A 
ATOM      9  C   UNL     1       1.977   7.586  19.463  0.00  0.00    +0.000 A 
ATOM     10  H   UNL     1       0.155   9.383  21.413  0.00  0.00    +0.000 HD
ENDROOT
BRANCH   8  11
ATOM     11  C   UNL     1       3.592   6.550  17.745  0.00  0.00    +0.000 A 
ATOM     12  C   UNL     1       3.106   5.234  17.580  0.00  0.00    +0.000 A 
ATOM     13  C   UNL     1       3.884   4.187  17.063  0.00  0.00    +0.000 A 
ATOM     14  C   UNL     1       5.201   4.495  16.726  0.00  0.00    +0.000 A 
ATOM     15  N   UNL     1       6.220   3.732  16.221  0.00  0.00    +0.000 N 
ATOM     16  N   UNL     1       7.374   4.403  16.042  0.00  0.00    +0.000 NA
ATOM     17  C   UNL     1       7.073   5.642  16.439  0.00  0.00    +0.000 A 
ATOM     18  C   UNL     1       5.732   5.770  16.860  0.00  0.00    +0.000 A 
ATOM     19  C   UNL     1       4.913   6.813  17.336  0.00  0.00    +0.000 A 
ATOM     20  H   UNL     1       6.193   2.749  15.977  0.00  0.00    +0.000 HD
ENDBRANCH   8  11
BRANCH   1  21
ATOM     21  C   UNL     1       1.953   5.271  20.702  0.00  0.00    +0.000 C 
ATOM     22  O   UNL     1       3.067   4.812  20.912  0.00  0.00    +0.000 OA
BRANCH  21  23
ATOM     23  O   UNL     1       0.838   4.515  20.472  0.00  0.00    +0.000 OA
BRANCH  23  25
ATOM     24  C   UNL     1       0.851   2.625  19.011  0.00  0.00    +0.000 C 
ATOM     25  C   UNL     1       1.050   3.099  20.440  0.00  0.00    +0.000 C 
ENDBRANCH  23  25
ENDBRANCH  21  23
ENDBRANCH   1  21
TORSDOF 4
ENDMDL
MODEL 6
REMARK VINA RESULT:      -7.6      2.441      4.355
REMARK  Name = 
REMARK  5 active torsions:
REMARK  status: ('A' for Active; 'I' for Inactive)
REMARK    1  A    between atoms: C_1  and  C_2
REMARK    2  A    between atoms: C_2  and  O_3
REMARK    3  A    between atoms: O_3  and  C_4
REMARK    4  A    between atoms: C_4  and  C_6
REMARK    5  A    between atoms: C_13  and  C_14
REMARK                            x       y       z     vdW  Elec       q    Type
REMARK                         _______ _______ _______ _____ _____    ______ ____
ROOT
ATOM      1  C   UNL     1       3.410   2.854  20.402  0.00  0.00    +0.000 A 
ATOM      2  C   UNL     1       2.657   2.525  21.526  0.00  0.00    +0.000 A 
ATOM      3  N   UNL     1       1.881   3.596  21.855  0.00  0.00    +0.000 N 
ATOM      4  C   UNL     1       2.141   4.624  20.998  0.00  0.00    +0.000 A 
ATOM      5  N   UNL     1       1.499   5.798  21.065  0.00  0.00    +0.000 NA
ATOM      6  C   UNL     1       1.925   6.650  20.129  0.00  0.00    +0.000 A 
ATOM      7  N   UNL     1       2.891   6.444  19.222  0.00  0.00    +0.000 NA
ATOM      8  C   UNL     1       3.539   5.238  19.191  0.00  0.00    +0.000 A 
ATOM      9  C   UNL     1       3.133   4.235  20.095  0.00  0.00    +0.000 A 
ATOM     10  H   UNL     1       1.194   3.639  22.593  0.00  0.00    +0.000 HD
ENDROOT
BRANCH   8  11
ATOM     11  C   UNL     1       4.645   5.151  18.224  0.00  0.00    +0.000 A 
ATOM     12  C   UNL     1       5.980   5.301  18.665  0.00  0.00    +0.000 A 
ATOM     13  C   UNL     1       7.088   5.185  17.812  0.00  0.00    +0.000 A 
ATOM     14  C   UNL     1       6.819   4.928  16.469  0.00  0.00    +0.000 A 
ATOM     15  N   UNL     1       7.640   4.772  15.384  0.00  0.00    +0.000 N 
ATOM     16  N   UNL     1       6.988   4.547  14.228  0.00  0.00    +0.000 NA
ATOM     17  C   UNL     1       5.704   4.549  14.594  0.00  0.00    +0.000 A 
ATOM     18  C   UNL     1       5.532   4.764  15.979  0.00  0.00    +0.000 A 
ATOM     19  C   UNL     1       4.440   4.837  16.866  0.00  0.00    +0.000 A 
ATOM     20  H   UNL     1       8.653   4.807  15.365  0.00  0.00    +0.000 HD
ENDBRANCH   8  11
BRANCH   1  21
ATOM     21  C   UNL     1       4.222   1.878  19.697  0.00  0.00    +0.000 C 
ATOM     22  O   UNL     1       3.893   1.350  18.645  0.00  0.00    +0.000 OA
BRANCH  21  23
ATOM     23  O   UNL     1       5.338   1.545  20.412  0.00  0.00    +0.000 OA
BRANCH  23  25
ATOM     24  C   UNL     1       6.141   0.044  22.089  0.00  0.00    +0.000 C 
ATOM     25  C   UNL     1       5.474   0.155  20.729  0.00  0.00    +0.000 C 
ENDBRANCH  23  25
ENDBRANCH  21  23
ENDBRANCH   1  21
TORSDOF 4
ENDMDL
MODEL 7
REMARK VINA RESULT:      -7.5      2.565      5.534
REMARK  Name = 
REMARK  5 active torsions:
REMARK  status: ('A' for Active; 'I' for Inactive)
REMARK    1  A    between atoms: C_1  and  C_2
REMARK    2  A    between atoms: C_2  and  O_3
REMARK    3  A    between atoms: O_3  and  C_4
REMARK    4  A    between atoms: C_4  and  C_6
REMARK    5  A    between atoms: C_13  and  C_14
REMARK                            x       y       z     vdW  Elec       q    Type
REMARK                         _______ _______ _______ _____ _____    ______ ____
ROOT
ATOM      1  C   UNL     1       4.959   5.197  16.766  0.00  0.00    +0.000 A 
ATOM      2  C   UNL     1       5.804   4.200  16.286  0.00  0.00    +0.000 A 
ATOM      3  N   UNL     1       5.245   2.989  16.564  0.00  0.00    +0.000 N 
ATOM      4  C   UNL     1       4.080   3.173  17.245  0.00  0.00    +0.000 A 
ATOM      5  N   UNL     1       3.297   2.153  17.625  0.00  0.00    +0.000 NA
ATOM      6  C   UNL     1       2.214   2.578  18.281  0.00  0.00    +0.000 A 
ATOM      7  N   UNL     1       1.895   3.842  18.592  0.00  0.00    +0.000 NA
ATOM      8  C   UNL     1       2.725   4.860  18.204  0.00  0.00    +0.000 A 
ATOM      9  C   UNL     1       3.873   4.540  17.449  0.00  0.00    +0.000 A 
ATOM     10  H   UNL     1       5.601   2.083  16.294  0.00  0.00    +0.000 HD
ENDROOT
BRANCH   8  11
ATOM     11  C   UNL     1       2.334   6.198  18.678  0.00  0.00    +0.000 A 
ATOM     12  C   UNL     1       2.069   6.409  20.050  0.00  0.00    +0.000 A 
ATOM     13  C   UNL     1       1.736   7.664  20.583  0.00  0.00    +0.000 A 
ATOM     14  C   UNL     1       1.654   8.724  19.683  0.00  0.00    +0.000 A 
ATOM     15  N   UNL     1       1.347  10.048  19.852  0.00  0.00    +0.000 N 
ATOM     16  N   UNL     1       1.358  10.766  18.713  0.00  0.00    +0.000 NA
ATOM     17  C   UNL     1       1.695   9.865  17.786  0.00  0.00    +0.000 A 
ATOM     18  C   UNL     1       1.910   8.580  18.327  0.00  0.00    +0.000 A 
ATOM     19  C   UNL     1       2.290   7.319  17.826  0.00  0.00    +0.000 A 
ATOM     20  H   UNL     1       1.121  10.524  20.718  0.00  0.00    +0.000 HD
ENDBRANCH   8  11
BRANCH   1  21
ATOM     21  C   UNL     1       5.181   6.604  16.489  0.00  0.00    +0.000 C 
ATOM     22  O   UNL     1       4.947   7.133  15.412  0.00  0.00    +0.000 OA
BRANCH  21  23
ATOM     23  O   UNL     1       5.785   7.232  17.542  0.00  0.00    +0.000 OA
BRANCH  23  25
ATOM     24  C   UNL     1       7.860   6.594  18.540  0.00  0.00    +0.000 C 
ATOM     25  C   UNL     1       7.204   7.396  17.430  0.00  0.00    +0.000 C 
ENDBRANCH  23  25
ENDBRANCH  21  23
ENDBRANCH   1  21
TORSDOF 4
ENDMDL
MODEL 8
REMARK VINA RESULT:      -7.5      2.560      5.782
REMARK  Name = 
REMARK  5 active torsions:
REMARK  status: ('A' for Active; 'I' for Inactive)
REMARK    1  A    between atoms: C_1  and  C_2
REMARK    2  A    between atoms: C_2  and  O_3
REMARK    3  A    between atoms: O_3  and  C_4
REMARK    4  A    between atoms: C_4  and  C_6
REMARK    5  A    between atoms: C_13  and  C_14
REMARK                            x       y       z     vdW  Elec       q    Type
REMARK                         _______ _______ _______ _____ _____    ______ ____
ROOT
ATOM      1  C   UNL     1       5.146   5.436  18.083  0.00  0.00    +0.000 A 
ATOM      2  C   UNL     1       6.070   4.396  18.115  0.00  0.00    +0.000 A 
ATOM      3  N   UNL     1       5.558   3.386  18.873  0.00  0.00    +0.000 N 
ATOM      4  C   UNL     1       4.343   3.761  19.365  0.00  0.00    +0.000 A 
ATOM      5  N   UNL     1       3.591   2.951  20.124  0.00  0.00    +0.000 NA
ATOM      6  C   UNL     1       2.448   3.536  20.491  0.00  0.00    +0.000 A 
ATOM      7  N   UNL     1       2.046   4.783  20.208  0.00  0.00    +0.000 NA
ATOM      8  C   UNL     1       2.846   5.591  19.444  0.00  0.00    +0.000 A 
ATOM      9  C   UNL     1       4.054   5.061  18.946  0.00  0.00    +0.000 A 
ATOM     10  H   UNL     1       5.977   2.482  19.038  0.00  0.00    +0.000 HD
ENDROOT
BRANCH   8  11
ATOM     11  C   UNL     1       2.357   6.969  19.274  0.00  0.00    +0.000 A 
ATOM     12  C   UNL     1       2.348   7.559  17.989  0.00  0.00    +0.000 A 
ATOM     13  C   UNL     1       1.856   8.850  17.740  0.00  0.00    +0.000 A 
ATOM     14  C   UNL     1       1.380   9.559  18.841  0.00  0.00    +0.000 A 
ATOM     15  N   UNL     1       0.854  10.819  18.961  0.00  0.00    +0.000 N 
ATOM     16  N   UNL     1       0.517  11.158  20.220  0.00  0.00    +0.000 NA
ATOM     17  C   UNL     1       0.832  10.068  20.925  0.00  0.00    +0.000 A 
ATOM     18  C   UNL     1       1.357   9.031  20.124  0.00  0.00    +0.000 A 
ATOM     19  C   UNL     1       1.812   7.715  20.336  0.00  0.00    +0.000 A 
ATOM     20  H   UNL     1       0.698  11.496  18.224  0.00  0.00    +0.000 HD
ENDBRANCH   8  11
BRANCH   1  21
ATOM     21  C   UNL     1       5.313   6.598  17.228  0.00  0.00    +0.000 C 
ATOM     22  O   UNL     1       4.897   6.666  16.080  0.00  0.00    +0.000 OA
BRANCH  21  23
ATOM     23  O   UNL     1       6.085   7.554  17.827  0.00  0.00    +0.000 OA
BRANCH  23  25
ATOM     24  C   UNL     1       8.067   8.888  17.842  0.00  0.00    +0.000 C 
ATOM     25  C   UNL     1       7.470   7.544  17.461  0.00  0.00    +0.000 C 
ENDBRANCH  23  25
ENDBRANCH  21  23
ENDBRANCH   1  21
TORSDOF 4
ENDMDL
MODEL 9
REMARK VINA RESULT:      -7.4      2.560      6.099
REMARK  Name = 
REMARK  5 active torsions:
REMARK  status: ('A' for Active; 'I' for Inactive)
REMARK    1  A    between atoms: C_1  and  C_2
REMARK    2  A    between atoms: C_2  and  O_3
REMARK    3  A    between atoms: O_3  and  C_4
REMARK    4  A    between atoms: C_4  and  C_6
REMARK    5  A    between atoms: C_13  and  C_14
REMARK                            x       y       z     vdW  Elec       q    Type
REMARK                         _______ _______ _______ _____ _____    ______ ____
ROOT
ATOM      1  C   UNL     1       3.427   3.927  17.478  0.00  0.00    +0.000 A 
ATOM      2  C   UNL     1       3.996   2.830  16.837  0.00  0.00    +0.000 A 
ATOM      3  N   UNL     1       5.256   3.166  16.442  0.00  0.00    +0.000 N 
ATOM      4  C   UNL     1       5.505   4.464  16.776  0.00  0.00    +0.000 A 
ATOM      5  N   UNL     1       6.682   5.058  16.535  0.00  0.00    +0.000 NA
ATOM      6  C   UNL     1       6.688   6.329  16.944  0.00  0.00    +0.000 A 
ATOM      7  N   UNL     1       5.676   7.008  17.502  0.00  0.00    +0.000 NA
ATOM      8  C   UNL     1       4.480   6.377  17.719  0.00  0.00    +0.000 A 
ATOM      9  C   UNL     1       4.372   5.011  17.383  0.00  0.00    +0.000 A 
ATOM     10  H   UNL     1       5.931   2.561  15.997  0.00  0.00    +0.000 HD
ENDROOT
BRANCH   8  11
ATOM     11  C   UNL     1       3.408   7.237  18.246  0.00  0.00    +0.000 A 
ATOM     12  C   UNL     1       2.843   8.240  17.426  0.00  0.00    +0.000 A 
ATOM     13  C   UNL     1       1.788   9.067  17.840  0.00  0.00    +0.000 A 
ATOM     14  C   UNL     1       1.314   8.873  19.136  0.00  0.00    +0.000 A 
ATOM     15  N   UNL     1       0.329   9.497  19.855  0.00  0.00    +0.000 N 
ATOM     16  N   UNL     1       0.176   9.025  21.107  0.00  0.00    +0.000 NA
ATOM     17  C   UNL     1       1.094   8.057  21.183  0.00  0.00    +0.000 A 
ATOM     18  C   UNL     1       1.823   7.900  19.985  0.00  0.00    +0.000 A 
ATOM     19  C   UNL     1       2.849   7.051  19.525  0.00  0.00    +0.000 A 
ATOM     20  H   UNL     1      -0.276  10.250  19.548  0.00  0.00    +0.000 HD
ENDBRANCH   8  11
BRANCH   1  21
ATOM     21  C   UNL     1       2.149   3.850  18.163  0.00  0.00    +0.000 C 
ATOM     22  O   UNL     1       1.076   4.102  17.634  0.00  0.00    +0.000 OA
BRANCH  21  23
ATOM     23  O   UNL     1       2.309   3.570  19.491  0.00  0.00    +0.000 OA
BRANCH  23  25
ATOM     24  C   UNL     1       1.385   2.766  21.543  0.00  0.00    +0.000 C 
ATOM     25  C   UNL     1       1.102   3.530  20.261  0.00  0.00    +0.000 C 
ENDBRANCH  23  25
ENDBRANCH  21  23
ENDBRANCH   1  21
TORSDOF 4
ENDMDL
