MODEL 1
REMARK VINA RESULT:      -7.7      0.000      0.000
REMARK  Name = 
REMARK  1 active torsions:
REMARK  status: ('A' for Active; 'I' for Inactive)
REMARK    1  A    between atoms: C_2  and  C_3
REMARK                            x       y       z     vdW  Elec       q    Type
REMARK                         _______ _______ _______ _____ _____    ______ ____
ROOT
ATOM      1  C   UNL     1       2.501   6.543  19.279  0.00  0.00    +0.000 A 
ATOM      2  C   UNL     1       3.369   6.979  18.270  0.00  0.00    +0.000 A 
ATOM      3  C   UNL     1       3.994   6.072  17.407  0.00  0.00    +0.000 A 
ATOM      4  C   UNL     1       4.859   6.544  16.403  0.00  0.00    +0.000 A 
ATOM      5  C   UNL     1       5.496   5.667  15.528  0.00  0.00    +0.000 A 
ATOM      6  C   UNL     1       5.278   4.305  15.647  0.00  0.00    +0.000 A 
ATOM      7  C   UNL     1       4.423   3.825  16.640  0.00  0.00    +0.000 A 
ATOM      8  C   UNL     1       3.754   4.684  17.551  0.00  0.00    +0.000 A 
ATOM      9  C   UNL     1       2.865   4.226  18.586  0.00  0.00    +0.000 A 
ATOM     10  C   UNL     1       2.576   2.853  18.790  0.00  0.00    +0.000 A 
ATOM     11  C   UNL     1       1.716   2.406  19.792  0.00  0.00    +0.000 A 
ATOM     12  C   UNL     1       1.109   3.322  20.630  0.00  0.00    +0.000 A 
ATOM     13  C   UNL     1       1.366   4.683  20.464  0.00  0.00    +0.000 A 
ATOM     14  C   UNL     1       2.237   5.165  19.453  0.00  0.00    +0.000 A 
ENDROOT
BRANCH   1  16
ATOM     15  N   UNL     1       1.424   8.354  20.807  0.00  0.00    +0.000 NA
ATOM     16  C   UNL     1       1.902   7.544  20.124  0.00  0.00    +0.000 C 
ENDBRANCH   1  16
TORSDOF 1
ENDMDL
MODEL 2
REMARK VINA RESULT:      -7.3      1.297      4.339
REMARK  Name = 
REMARK  1 active torsions:
REMARK  status: ('A' for Active; 'I' for Inactive)
REMARK    1  A    between atoms: C_2  and  C_3
REMARK                            x       y       z     vdW  Elec       q    Type
REMARK                         _______ _______ _______ _____ _____    ______ ____
ROOT
ATOM      1  C   UNL     1       2.913   6.972  18.317  0.00  0.00    +0.000 A 
ATOM      2  C   UNL     1       2.264   6.454  19.445  0.00  0.00    +0.000 A 
ATOM      3  C   UNL     1       2.542   5.166  19.915  0.00  0.00    +0.000 A 
ATOM      4  C   UNL     1       1.874   4.676  21.052  0.00  0.00    +0.000 A 
ATOM      5  C   UNL     1       2.128   3.398  21.546  0.00  0.00    +0.000 A 
ATOM      6  C   UNL     1       3.055   2.592  20.908  0.00  0.00    +0.000 A 
ATOM      7  C   UNL     1       3.725   3.067  19.779  0.00  0.00    +0.000 A 
ATOM      8  C   UNL     1       3.496   4.361  19.244  0.00  0.00    +0.000 A 
ATOM      9  C   UNL     1       4.166   4.885  18.083  0.00  0.00    +0.000 A 
ATOM     10  C   UNL     1       5.131   4.139  17.360  0.00  0.00    +0.000 A 
ATOM     11  C   UNL     1       5.783   4.643  16.235  0.00  0.00    +0.000 A 
ATOM     12  C   UNL     1       5.491   5.919  15.792  0.00  0.00    +0.000 A 
ATOM     13  C   UNL     1       4.548   6.687  16.475  0.00  0.00    +0.000 A 
ATOM     14  C   UNL     1       3.871   6.198  17.621  0.00  0.00    +0.000 A 
ENDROOT
BRANCH   1  16
ATOM     15  N   UNL     1       2.283   9.380  17.556  0.00  0.00    +0.000 NA
ATOM     16  C   UNL     1       2.565   8.306  17.900  0.00  0.00    +0.000 C 
ENDBRANCH   1  16
TORSDOF 1
ENDMDL
MODEL 3
REMARK VINA RESULT:      -7.1      1.760      4.220
REMARK  Name = 
REMARK  1 active torsions:
REMARK  status: ('A' for Active; 'I' for Inactive)
REMARK    1  A    between atoms: C_2  and  C_3
REMARK                            x       y       z     vdW  Elec       q    Type
REMARK                         _______ _______ _______ _____ _____    ______ ____
ROOT
ATOM      1  C   UNL     1       3.120   6.705  17.821  0.00  0.00    +0.000 A 
ATOM      2  C   UNL     1       2.098   5.800  18.134  0.00  0.00    +0.000 A 
ATOM      3  C   UNL     1       2.350   4.428  18.241  0.00  0.00    +0.000 A 
ATOM      4  C   UNL     1       1.300   3.547  18.560  0.00  0.00    +0.000 A 
ATOM      5  C   UNL     1       1.518   2.175  18.674  0.00  0.00    +0.000 A 
ATOM      6  C   UNL     1       2.789   1.666  18.469  0.00  0.00    +0.000 A 
ATOM      7  C   UNL     1       3.838   2.531  18.153  0.00  0.00    +0.000 A 
ATOM      8  C   UNL     1       3.659   3.933  18.027  0.00  0.00    +0.000 A 
ATOM      9  C   UNL     1       4.716   4.855  17.703  0.00  0.00    +0.000 A 
ATOM     10  C   UNL     1       6.051   4.434  17.475  0.00  0.00    +0.000 A 
ATOM     11  C   UNL     1       7.076   5.324  17.160  0.00  0.00    +0.000 A 
ATOM     12  C   UNL     1       6.803   6.675  17.062  0.00  0.00    +0.000 A 
ATOM     13  C   UNL     1       5.503   7.131  17.279  0.00  0.00    +0.000 A 
ATOM     14  C   UNL     1       4.441   6.248  17.600  0.00  0.00    +0.000 A 
ENDROOT
BRANCH   1  16
ATOM     15  N   UNL     1       2.488   9.224  17.656  0.00  0.00    +0.000 NA
ATOM     16  C   UNL     1       2.774   8.100  17.729  0.00  0.00    +0.000 C 
ENDBRANCH   1  16
TORSDOF 1
ENDMDL
MODEL 4
REMARK VINA RESULT:      -7.0      1.908      4.194
REMARK  Name = 
REMARK  1 active torsions:
REMARK  status: ('A' for Active; 'I' for Inactive)
REMARK    1  A    between atoms: C_2  and  C_3
REMARK                            x       y       z     vdW  Elec       q    Type
REMARK                         _______ _______ _______ _____ _____    ______ ____
ROOT
ATOM      1  C   UNL     1       2.360   4.791  20.394  0.00  0.00    +0.000 A 
ATOM      2  C   UNL     1       1.791   6.038  20.681  0.00  0.00    +0.000 A 
ATOM      3  C   UNL     1       1.910   7.113  19.793  0.00  0.00    +0.000 A 
ATOM      4  C   UNL     1       1.324   8.352  20.111  0.00  0.00    +0.000 A 
ATOM      5  C   UNL     1       1.425   9.441  19.248  0.00  0.00    +0.000 A 
ATOM      6  C   UNL     1       2.115   9.307  18.056  0.00  0.00    +0.000 A 
ATOM      7  C   UNL     1       2.700   8.082  17.730  0.00  0.00    +0.000 A 
ATOM      8  C   UNL     1       2.622   6.948  18.579  0.00  0.00    +0.000 A 
ATOM      9  C   UNL     1       3.212   5.671  18.277  0.00  0.00    +0.000 A 
ATOM     10  C   UNL     1       3.938   5.431  17.083  0.00  0.00    +0.000 A 
ATOM     11  C   UNL     1       4.511   4.195  16.787  0.00  0.00    +0.000 A 
ATOM     12  C   UNL     1       4.377   3.149  17.679  0.00  0.00    +0.000 A 
ATOM     13  C   UNL     1       3.671   3.343  18.866  0.00  0.00    +0.000 A 
ATOM     14  C   UNL     1       3.078   4.589  19.192  0.00  0.00    +0.000 A 
ENDROOT
BRANCH   1  16
ATOM     15  N   UNL     1       2.050   2.888  22.143  0.00  0.00    +0.000 NA
ATOM     16  C   UNL     1       2.191   3.740  21.364  0.00  0.00    +0.000 C 
ENDBRANCH   1  16
TORSDOF 1
ENDMDL
MODEL 5
REMARK VINA RESULT:      -7.0      2.106      4.916
REMARK  Name = 
REMARK  1 active torsions:
REMARK  status: ('A' for Active; 'I' for Inactive)
REMARK    1  A    between atoms: C_2  and  C_3
REMARK                            x       y       z     vdW  Elec       q    Type
REMARK                         _______ _______ _______ _____ _____    ______ ____
ROOT
ATOM      1  C   UNL     1       4.146   5.765  17.586  0.00  0.00    +0.000 A 
ATOM      2  C   UNL     1       4.265   4.503  18.183  0.00  0.00    +0.000 A 
ATOM      3  C   UNL     1       3.549   4.177  19.340  0.00  0.00    +0.000 A 
ATOM      4  C   UNL     1       3.691   2.900  19.914  0.00  0.00    +0.000 A 
ATOM      5  C   UNL     1       2.992   2.544  21.066  0.00  0.00    +0.000 A 
ATOM      6  C   UNL     1       2.142   3.461  21.660  0.00  0.00    +0.000 A 
ATOM      7  C   UNL     1       1.994   4.731  21.099  0.00  0.00    +0.000 A 
ATOM      8  C   UNL     1       2.686   5.134  19.928  0.00  0.00    +0.000 A 
ATOM      9  C   UNL     1       2.558   6.433  19.322  0.00  0.00    +0.000 A 
ATOM     10  C   UNL     1       1.715   7.441  19.853  0.00  0.00    +0.000 A 
ATOM     11  C   UNL     1       1.588   8.701  19.268  0.00  0.00    +0.000 A 
ATOM     12  C   UNL     1       2.305   8.998  18.125  0.00  0.00    +0.000 A 
ATOM     13  C   UNL     1       3.146   8.034  17.570  0.00  0.00    +0.000 A 
ATOM     14  C   UNL     1       3.293   6.746  18.144  0.00  0.00    +0.000 A 
ENDROOT
BRANCH   1  16
ATOM     15  N   UNL     1       5.548   6.216  15.440  0.00  0.00    +0.000 NA
ATOM     16  C   UNL     1       4.920   6.018  16.398  0.00  0.00    +0.000 C 
ENDBRANCH   1  16
TORSDOF 1
ENDMDL
MODEL 6
REMARK VINA RESULT:      -6.9      2.458      5.221
REMARK  Name = 
REMARK  1 active torsions:
REMARK  status: ('A' for Active; 'I' for Inactive)
REMARK    1  A    between atoms: C_2  and  C_3
REMARK                            x       y       z     vdW  Elec       q    Type
REMARK                         _______ _______ _______ _____ _____    ______ ____
ROOT
ATOM      1  C   UNL     1       5.254   4.686  18.270  0.00  0.00    +0.000 A 
ATOM      2  C   UNL     1       4.911   3.607  19.094  0.00  0.00    +0.000 A 
ATOM      3  C   UNL     1       3.697   3.582  19.790  0.00  0.00    +0.000 A 
ATOM      4  C   UNL     1       3.382   2.481  20.608  0.00  0.00    +0.000 A 
ATOM      5  C   UNL     1       2.182   2.426  21.313  0.00  0.00    +0.000 A 
ATOM      6  C   UNL     1       1.280   3.471  21.211  0.00  0.00    +0.000 A 
ATOM      7  C   UNL     1       1.582   4.568  20.402  0.00  0.00    +0.000 A 
ATOM      8  C   UNL     1       2.792   4.665  19.667  0.00  0.00    +0.000 A 
ATOM      9  C   UNL     1       3.138   5.779  18.824  0.00  0.00    +0.000 A 
ATOM     10  C   UNL     1       2.284   6.898  18.653  0.00  0.00    +0.000 A 
ATOM     11  C   UNL     1       2.615   7.979  17.837  0.00  0.00    +0.000 A 
ATOM     12  C   UNL     1       3.819   7.979  17.159  0.00  0.00    +0.000 A 
ATOM     13  C   UNL     1       4.688   6.897  17.300  0.00  0.00    +0.000 A 
ATOM     14  C   UNL     1       4.376   5.785  18.123  0.00  0.00    +0.000 A 
ENDROOT
BRANCH   1  16
ATOM     15  N   UNL     1       7.545   4.590  17.038  0.00  0.00    +0.000 NA
ATOM     16  C   UNL     1       6.524   4.632  17.592  0.00  0.00    +0.000 C 
ENDBRANCH   1  16
TORSDOF 1
ENDMDL
MODEL 7
REMARK VINA RESULT:      -6.9      2.259      4.943
REMARK  Name = 
REMARK  1 active torsions:
REMARK  status: ('A' for Active; 'I' for Inactive)
REMARK    1  A    between atoms: C_2  and  C_3
REMARK                            x       y       z     vdW  Elec       q    Type
REMARK                         _______ _______ _______ _____ _____    ______ ____
ROOT
ATOM      1  C   UNL     1       4.084   4.405  19.104  0.00  0.00    +0.000 A 
ATOM      2  C   UNL     1       3.206   5.213  19.839  0.00  0.00    +0.000 A 
ATOM      3  C   UNL     1       2.800   6.465  19.363  0.00  0.00    +0.000 A 
ATOM      4  C   UNL     1       1.916   7.250  20.125  0.00  0.00    +0.000 A 
ATOM      5  C   UNL     1       1.492   8.500  19.679  0.00  0.00    +0.000 A 
ATOM      6  C   UNL     1       1.949   8.982  18.464  0.00  0.00    +0.000 A 
ATOM      7  C   UNL     1       2.826   8.212  17.699  0.00  0.00    +0.000 A 
ATOM      8  C   UNL     1       3.282   6.934  18.116  0.00  0.00    +0.000 A 
ATOM      9  C   UNL     1       4.186   6.112  17.356  0.00  0.00    +0.000 A 
ATOM     10  C   UNL     1       4.709   6.515  16.101  0.00  0.00    +0.000 A 
ATOM     11  C   UNL     1       5.585   5.722  15.362  0.00  0.00    +0.000 A 
ATOM     12  C   UNL     1       5.970   4.489  15.853  0.00  0.00    +0.000 A 
ATOM     13  C   UNL     1       5.478   4.054  17.083  0.00  0.00    +0.000 A 
ATOM     14  C   UNL     1       4.586   4.841  17.856  0.00  0.00    +0.000 A 
ENDROOT
BRANCH   1  16
ATOM     15  N   UNL     1       4.757   2.107  20.123  0.00  0.00    +0.000 NA
ATOM     16  C   UNL     1       4.452   3.133  19.669  0.00  0.00    +0.000 C 
ENDBRANCH   1  16
TORSDOF 1
ENDMDL
MODEL 8
REMARK VINA RESULT:      -6.8      1.713      3.331
REMARK  Name = 
REMARK  1 active torsions:
REMARK  status: ('A' for Active; 'I' for Inactive)
REMARK    1  A    between atoms: C_2  and  C_3
REMARK                            x       y       z     vdW  Elec       q    Type
REMARK                         _______ _______ _______ _____ _____    ______ ____
ROOT
ATOM      1  C   UNL     1       2.763   4.265  20.006  0.00  0.00    +0.000 A 
ATOM      2  C   UNL     1       3.601   3.673  19.053  0.00  0.00    +0.000 A 
ATOM      3  C   UNL     1       4.120   4.411  17.983  0.00  0.00    +0.000 A 
ATOM      4  C   UNL     1       4.961   3.786  17.044  0.00  0.00    +0.000 A 
ATOM      5  C   UNL     1       5.493   4.493  15.968  0.00  0.00    +0.000 A 
ATOM      6  C   UNL     1       5.191   5.835  15.816  0.00  0.00    +0.000 A 
ATOM      7  C   UNL     1       4.358   6.466  16.742  0.00  0.00    +0.000 A 
ATOM      8  C   UNL     1       3.795   5.783  17.851  0.00  0.00    +0.000 A 
ATOM      9  C   UNL     1       2.933   6.399  18.825  0.00  0.00    +0.000 A 
ATOM     10  C   UNL     1       2.564   7.767  18.758  0.00  0.00    +0.000 A 
ATOM     11  C   UNL     1       1.729   8.367  19.700  0.00  0.00    +0.000 A 
ATOM     12  C   UNL     1       1.231   7.617  20.748  0.00  0.00    +0.000 A 
ATOM     13  C   UNL     1       1.569   6.268  20.851  0.00  0.00    +0.000 A 
ATOM     14  C   UNL     1       2.417   5.632  19.907  0.00  0.00    +0.000 A 
ENDROOT
BRANCH   1  16
ATOM     15  N   UNL     1       1.868   2.761  21.934  0.00  0.00    +0.000 NA
ATOM     16  C   UNL     1       2.272   3.432  21.074  0.00  0.00    +0.000 C 
ENDBRANCH   1  16
TORSDOF 1
ENDMDL
MODEL 9
REMARK VINA RESULT:      -6.8      2.412      4.921
REMARK  Name = 
REMARK  1 active torsions:
REMARK  status: ('A' for Active; 'I' for Inactive)
REMARK    1  A    between atoms: C_2  and  C_3
REMARK                            x       y       z     vdW  Elec       q    Type
REMARK                         _______ _______ _______ _____ _____    ______ ____
ROOT
ATOM      1  C   UNL     1       4.928   4.980  16.896  0.00  0.00    +0.000 A 
ATOM      2  C   UNL     1       4.617   3.636  17.135  0.00  0.00    +0.000 A 
ATOM      3  C   UNL     1       3.431   3.268  17.781  0.00  0.00    +0.000 A 
ATOM      4  C   UNL     1       3.148   1.908  18.003  0.00  0.00    +0.000 A 
ATOM      5  C   UNL     1       1.977   1.509  18.643  0.00  0.00    +0.000 A 
ATOM      6  C   UNL     1       1.072   2.465  19.070  0.00  0.00    +0.000 A 
ATOM      7  C   UNL     1       1.342   3.818  18.855  0.00  0.00    +0.000 A 
ATOM      8  C   UNL     1       2.523   4.267  18.208  0.00  0.00    +0.000 A 
ATOM      9  C   UNL     1       2.835   5.651  17.969  0.00  0.00    +0.000 A 
ATOM     10  C   UNL     1       1.975   6.706  18.368  0.00  0.00    +0.000 A 
ATOM     11  C   UNL     1       2.274   8.048  18.138  0.00  0.00    +0.000 A 
ATOM     12  C   UNL     1       3.450   8.385  17.496  0.00  0.00    +0.000 A 
ATOM     13  C   UNL     1       4.324   7.378  17.087  0.00  0.00    +0.000 A 
ATOM     14  C   UNL     1       4.045   6.006  17.309  0.00  0.00    +0.000 A 
ENDROOT
BRANCH   1  16
ATOM     15  N   UNL     1       7.175   5.507  15.693  0.00  0.00    +0.000 NA
ATOM     16  C   UNL     1       6.170   5.271  16.227  0.00  0.00    +0.000 C 
ENDBRANCH   1  16
TORSDOF 1
ENDMDL
