MODEL 1
REMARK VINA RESULT:      -6.3      0.000      0.000
REMARK  Name = 
REMARK  10 active torsions:
REMARK  status: ('A' for Active; 'I' for Inactive)
REMARK    1  A    between atoms: N_1  and  C_2
REMARK    2  A    between atoms: N_10  and  C_11
REMARK    3  A    between atoms: C_11  and  C_12
REMARK    4  A    between atoms: C_12  and  C_13
REMARK    5  A    between atoms: C_12  and  O_15
REMARK    6  A    between atoms: O_15  and  C_16
REMARK    7  A    between atoms: C_16  and  C_17
REMARK    8  A    between atoms: C_17  and  P_18
REMARK    9  A    between atoms: P_18  and  O_20
REMARK   10  A    between atoms: P_18  and  O_21
REMARK                            x       y       z     vdW  Elec       q    Type
REMARK                         _______ _______ _______ _____ _____    ______ ____
ROOT
ATOM      1  C   UNL     1       4.241   4.712  16.593  0.00  0.00    +0.000 C 
ENDROOT
BRANCH   1  10
ATOM      2  C   UNL     1       2.359   3.534  20.871  0.00  0.00    +0.000 A 
ATOM      3  N   UNL     1       1.956   4.788  21.177  0.00  0.00    +0.000 NA
ATOM      4  C   UNL     1       2.163   5.769  20.272  0.00  0.00    +0.000 A 
ATOM      5  N   UNL     1       2.750   5.677  19.061  0.00  0.00    +0.000 NA
ATOM      6  C   UNL     1       3.112   4.409  18.804  0.00  0.00    +0.000 A 
ATOM      7  C   UNL     1       2.944   3.306  19.615  0.00  0.00    +0.000 A 
ATOM      8  N   UNL     1       3.412   2.164  18.996  0.00  0.00    +0.000 NA
ATOM      9  C   UNL     1       3.889   2.576  17.841  0.00  0.00    +0.000 A 
ATOM     10  N   UNL     1       3.770   3.931  17.707  0.00  0.00    +0.000 N 
BRANCH   2  11
ATOM     11  N   UNL     1       2.184   2.532  21.810  0.00  0.00    +0.000 N 
ATOM     12  H   UNL     1       2.811   2.621  22.596  0.00  0.00    +0.000 HD
ATOM     13  H   UNL     1       1.211   2.317  22.001  0.00  0.00    +0.000 HD
ENDBRANCH   2  11
ENDBRANCH   1  10
BRANCH   1  14
ATOM     14  C   UNL     1       5.547   4.196  15.956  0.00  0.00    +0.000 C 
BRANCH  14  15
ATOM     15  C   UNL     1       5.457   4.218  14.427  0.00  0.00    +0.000 C 
ATOM     16  F   UNL     1       6.339   3.319  13.906  0.00  0.00    +0.000 F 
ENDBRANCH  14  15
BRANCH  14  17
ATOM     17  O   UNL     1       6.673   4.998  16.374  0.00  0.00    +0.000 OA
BRANCH  17  18
ATOM     18  C   UNL     1       6.274   6.122  17.154  0.00  0.00    +0.000 C 
BRANCH  18  19
ATOM     19  C   UNL     1       7.477   6.794  17.768  0.00  0.00    +0.000 C 
BRANCH  19  20
ATOM     20  P   UNL     1       7.852   5.945  19.345  0.00  0.00    +0.000 P 
ATOM     21  O   UNL     1       6.366   5.702  19.608  0.00  0.00    +0.000 OA
BRANCH  20  22
ATOM     22  O   UNL     1       8.348   4.601  18.557  0.00  0.00    +0.000 OA
ATOM     23  H   UNL     1       9.305   4.460  18.698  0.00  0.00    +0.000 HD
ENDBRANCH  20  22
BRANCH  20  24
ATOM     24  O   UNL     1       8.207   5.142  20.836  0.00  0.00    +0.000 OA
ATOM     25  H   UNL     1       8.873   4.462  20.603  0.00  0.00    +0.000 HD
ENDBRANCH  20  24
ENDBRANCH  19  20
ENDBRANCH  18  19
ENDBRANCH  17  18
ENDBRANCH  14  17
ENDBRANCH   1  14
TORSDOF 10
ENDMDL
MODEL 2
REMARK VINA RESULT:      -6.1      4.036      6.324
REMARK  Name = 
REMARK  10 active torsions:
REMARK  status: ('A' for Active; 'I' for Inactive)
REMARK    1  A    between atoms: N_1  and  C_2
REMARK    2  A    between atoms: N_10  and  C_11
REMARK    3  A    between atoms: C_11  and  C_12
REMARK    4  A    between atoms: C_12  and  C_13
REMARK    5  A    between atoms: C_12  and  O_15
REMARK    6  A    between atoms: O_15  and  C_16
REMARK    7  A    between atoms: C_16  and  C_17
REMARK    8  A    between atoms: C_17  and  P_18
REMARK    9  A    between atoms: P_18  and  O_20
REMARK   10  A    between atoms: P_18  and  O_21
REMARK                            x       y       z     vdW  Elec       q    Type
REMARK                         _______ _______ _______ _____ _____    ______ ____
ROOT
ATOM      1  C   UNL     1       5.522   5.402  19.228  0.00  0.00    +0.000 C 
ENDROOT
BRANCH   1  10
ATOM      2  C   UNL     1       7.102   5.027  14.689  0.00  0.00    +0.000 A 
ATOM      3  N   UNL     1       6.411   3.899  14.412  0.00  0.00    +0.000 NA
ATOM      4  C   UNL     1       5.607   3.385  15.368  0.00  0.00    +0.000 A 
ATOM      5  N   UNL     1       5.393   3.849  16.617  0.00  0.00    +0.000 NA
ATOM      6  C   UNL     1       6.088   4.979  16.829  0.00  0.00    +0.000 A 
ATOM      7  C   UNL     1       6.925   5.630  15.946  0.00  0.00    +0.000 A 
ATOM      8  N   UNL     1       7.437   6.782  16.510  0.00  0.00    +0.000 NA
ATOM      9  C   UNL     1       6.945   6.808  17.730  0.00  0.00    +0.000 A 
ATOM     10  N   UNL     1       6.165   5.713  17.977  0.00  0.00    +0.000 N 
BRANCH   2  11
ATOM     11  N   UNL     1       7.957   5.537  13.727  0.00  0.00    +0.000 N 
ATOM     12  H   UNL     1       7.630   5.369  12.787  0.00  0.00    +0.000 HD
ATOM     13  H   UNL     1       8.313   6.462  13.947  0.00  0.00    +0.000 HD
ENDBRANCH   2  11
ENDBRANCH   1  10
BRANCH   1  14
ATOM     14  C   UNL     1       4.037   5.807  19.303  0.00  0.00    +0.000 C 
BRANCH  14  15
ATOM     15  C   UNL     1       3.585   6.478  18.002  0.00  0.00    +0.000 C 
ATOM     16  F   UNL     1       3.289   7.786  18.243  0.00  0.00    +0.000 F 
ENDBRANCH  14  15
BRANCH  14  17
ATOM     17  O   UNL     1       3.203   4.656  19.554  0.00  0.00    +0.000 OA
BRANCH  17  18
ATOM     18  C   UNL     1       2.042   4.989  20.311  0.00  0.00    +0.000 C 
BRANCH  18  19
ATOM     19  C   UNL     1       0.947   3.976  20.075  0.00  0.00    +0.000 C 
BRANCH  19  20
ATOM     20  P   UNL     1       1.507   2.842  18.753  0.00  0.00    +0.000 P 
ATOM     21  O   UNL     1       0.219   2.026  18.859  0.00  0.00    +0.000 OA
BRANCH  20  22
ATOM     22  O   UNL     1       1.186   3.955  17.598  0.00  0.00    +0.000 OA
ATOM     23  H   UNL     1       0.325   4.384  17.771  0.00  0.00    +0.000 HD
ENDBRANCH  20  22
BRANCH  20  24
ATOM     24  O   UNL     1       2.037   1.770  17.501  0.00  0.00    +0.000 OA
ATOM     25  H   UNL     1       1.793   0.875  17.817  0.00  0.00    +0.000 HD
ENDBRANCH  20  24
ENDBRANCH  19  20
ENDBRANCH  18  19
ENDBRANCH  17  18
ENDBRANCH  14  17
ENDBRANCH   1  14
TORSDOF 10
ENDMDL
MODEL 3
REMARK VINA RESULT:      -6.1      1.299      1.809
REMARK  Name = 
REMARK  10 active torsions:
REMARK  status: ('A' for Active; 'I' for Inactive)
REMARK    1  A    between atoms: N_1  and  C_2
REMARK    2  A    between atoms: N_10  and  C_11
REMARK    3  A    between atoms: C_11  and  C_12
REMARK    4  A    between atoms: C_12  and  C_13
REMARK    5  A    between atoms: C_12  and  O_15
REMARK    6  A    between atoms: O_15  and  C_16
REMARK    7  A    between atoms: C_16  and  C_17
REMARK    8  A    between atoms: C_17  and  P_18
REMARK    9  A    between atoms: P_18  and  O_20
REMARK   10  A    between atoms: P_18  and  O_21
REMARK                            x       y       z     vdW  Elec       q    Type
REMARK                         _______ _______ _______ _____ _____    ______ ____
ROOT
ATOM      1  C   UNL     1       4.477   3.156  16.547  0.00  0.00    +0.000 C 
ENDROOT
BRANCH   1  10
ATOM      2  C   UNL     1       2.204   2.816  20.784  0.00  0.00    +0.000 A 
ATOM      3  N   UNL     1       3.271   2.330  21.456  0.00  0.00    +0.000 NA
ATOM      4  C   UNL     1       4.437   2.179  20.792  0.00  0.00    +0.000 A 
ATOM      5  N   UNL     1       4.698   2.445  19.495  0.00  0.00    +0.000 NA
ATOM      6  C   UNL     1       3.611   2.942  18.884  0.00  0.00    +0.000 A 
ATOM      7  C   UNL     1       2.367   3.173  19.435  0.00  0.00    +0.000 A 
ATOM      8  N   UNL     1       1.510   3.724  18.504  0.00  0.00    +0.000 NA
ATOM      9  C   UNL     1       2.213   3.792  17.393  0.00  0.00    +0.000 A 
ATOM     10  N   UNL     1       3.471   3.286  17.569  0.00  0.00    +0.000 N 
BRANCH   2  11
ATOM     11  N   UNL     1       0.996   2.937  21.449  0.00  0.00    +0.000 N 
ATOM     12  H   UNL     1       1.110   3.044  22.447  0.00  0.00    +0.000 HD
ATOM     13  H   UNL     1       0.330   3.543  20.980  0.00  0.00    +0.000 HD
ENDBRANCH   2  11
ENDBRANCH   1  10
BRANCH   1  14
ATOM     14  C   UNL     1       5.282   4.442  16.274  0.00  0.00    +0.000 C 
BRANCH  14  15
ATOM     15  C   UNL     1       5.599   4.583  14.781  0.00  0.00    +0.000 C 
ATOM     16  F   UNL     1       6.728   3.879  14.487  0.00  0.00    +0.000 F 
ENDBRANCH  14  15
BRANCH  14  17
ATOM     17  O   UNL     1       4.551   5.608  16.713  0.00  0.00    +0.000 OA
BRANCH  17  18
ATOM     18  C   UNL     1       5.218   6.294  17.769  0.00  0.00    +0.000 C 
BRANCH  18  19
ATOM     19  C   UNL     1       6.708   6.312  17.530  0.00  0.00    +0.000 C 
BRANCH  19  20
ATOM     20  P   UNL     1       7.533   5.807  19.084  0.00  0.00    +0.000 P 
ATOM     21  O   UNL     1       6.192   5.434  19.715  0.00  0.00    +0.000 OA
BRANCH  20  22
ATOM     22  O   UNL     1       8.061   4.415  18.406  0.00  0.00    +0.000 OA
ATOM     23  H   UNL     1       8.994   4.506  18.131  0.00  0.00    +0.000 HD
ENDBRANCH  20  22
BRANCH  20  24
ATOM     24  O   UNL     1       8.313   5.328  20.553  0.00  0.00    +0.000 OA
ATOM     25  H   UNL     1       9.197   5.009  20.276  0.00  0.00    +0.000 HD
ENDBRANCH  20  24
ENDBRANCH  19  20
ENDBRANCH  18  19
ENDBRANCH  17  18
ENDBRANCH  14  17
ENDBRANCH   1  14
TORSDOF 10
ENDMDL
MODEL 4
REMARK VINA RESULT:      -6.1      3.902      5.736
REMARK  Name = 
REMARK  10 active torsions:
REMARK  status: ('A' for Active; 'I' for Inactive)
REMARK    1  A    between atoms: N_1  and  C_2
REMARK    2  A    between atoms: N_10  and  C_11
REMARK    3  A    between atoms: C_11  and  C_12
REMARK    4  A    between atoms: C_12  and  C_13
REMARK    5  A    between atoms: C_12  and  O_15
REMARK    6  A    between atoms: O_15  and  C_16
REMARK    7  A    between atoms: C_16  and  C_17
REMARK    8  A    between atoms: C_17  and  P_18
REMARK    9  A    between atoms: P_18  and  O_20
REMARK   10  A    between atoms: P_18  and  O_21
REMARK                            x       y       z     vdW  Elec       q    Type
REMARK                         _______ _______ _______ _____ _____    ______ ____
ROOT
ATOM      1  C   UNL     1       4.804   3.475  16.782  0.00  0.00    +0.000 C 
ENDROOT
BRANCH   1  10
ATOM      2  C   UNL     1       7.531   7.328  17.759  0.00  0.00    +0.000 A 
ATOM      3  N   UNL     1       8.156   6.769  18.820  0.00  0.00    +0.000 NA
ATOM      4  C   UNL     1       7.857   5.493  19.145  0.00  0.00    +0.000 A 
ATOM      5  N   UNL     1       6.978   4.663  18.545  0.00  0.00    +0.000 NA
ATOM      6  C   UNL     1       6.403   5.263  17.490  0.00  0.00    +0.000 A 
ATOM      7  C   UNL     1       6.625   6.544  17.026  0.00  0.00    +0.000 A 
ATOM      8  N   UNL     1       5.875   6.796  15.895  0.00  0.00    +0.000 NA
ATOM      9  C   UNL     1       5.180   5.695  15.697  0.00  0.00    +0.000 A 
ATOM     10  N   UNL     1       5.435   4.764  16.666  0.00  0.00    +0.000 N 
BRANCH   2  11
ATOM     11  N   UNL     1       7.805   8.648  17.445  0.00  0.00    +0.000 N 
ATOM     12  H   UNL     1       8.720   8.940  17.755  0.00  0.00    +0.000 HD
ATOM     13  H   UNL     1       7.515   8.913  16.509  0.00  0.00    +0.000 HD
ENDBRANCH   2  11
ENDBRANCH   1  10
BRANCH   1  14
ATOM     14  C   UNL     1       3.696   3.400  17.851  0.00  0.00    +0.000 C 
BRANCH  14  15
ATOM     15  C   UNL     1       2.314   3.275  17.200  0.00  0.00    +0.000 C 
ATOM     16  F   UNL     1       1.631   4.444  17.354  0.00  0.00    +0.000 F 
ENDBRANCH  14  15
BRANCH  14  17
ATOM     17  O   UNL     1       3.906   2.274  18.730  0.00  0.00    +0.000 OA
BRANCH  17  18
ATOM     18  C   UNL     1       4.418   2.671  20.000  0.00  0.00    +0.000 C 
BRANCH  18  19
ATOM     19  C   UNL     1       3.497   2.219  21.107  0.00  0.00    +0.000 C 
BRANCH  19  20
ATOM     20  P   UNL     1       1.852   2.964  20.810  0.00  0.00    +0.000 P 
ATOM     21  O   UNL     1       1.381   2.566  22.208  0.00  0.00    +0.000 OA
BRANCH  20  22
ATOM     22  O   UNL     1       2.451   4.475  21.001  0.00  0.00    +0.000 OA
ATOM     23  H   UNL     1       3.152   4.646  20.342  0.00  0.00    +0.000 HD
ENDBRANCH  20  22
BRANCH  20  24
ATOM     24  O   UNL     1       0.298   3.670  20.529  0.00  0.00    +0.000 OA
ATOM     25  H   UNL     1      -0.307   2.909  20.407  0.00  0.00    +0.000 HD
ENDBRANCH  20  24
ENDBRANCH  19  20
ENDBRANCH  18  19
ENDBRANCH  17  18
ENDBRANCH  14  17
ENDBRANCH   1  14
TORSDOF 10
ENDMDL
MODEL 5
REMARK VINA RESULT:      -6.1      3.887      5.602
REMARK  Name = 
REMARK  10 active torsions:
REMARK  status: ('A' for Active; 'I' for Inactive)
REMARK    1  A    between atoms: N_1  and  C_2
REMARK    2  A    between atoms: N_10  and  C_11
REMARK    3  A    between atoms: C_11  and  C_12
REMARK    4  A    between atoms: C_12  and  C_13
REMARK    5  A    between atoms: C_12  and  O_15
REMARK    6  A    between atoms: O_15  and  C_16
REMARK    7  A    between atoms: C_16  and  C_17
REMARK    8  A    between atoms: C_17  and  P_18
REMARK    9  A    between atoms: P_18  and  O_20
REMARK   10  A    between atoms: P_18  and  O_21
REMARK                            x       y       z     vdW  Elec       q    Type
REMARK                         _______ _______ _______ _____ _____    ______ ____
ROOT
ATOM      1  C   UNL     1       4.679   3.530  17.110  0.00  0.00    +0.000 C 
ENDROOT
BRANCH   1  10
ATOM      2  C   UNL     1       7.598   7.314  17.739  0.00  0.00    +0.000 A 
ATOM      3  N   UNL     1       8.159   6.847  18.877  0.00  0.00    +0.000 NA
ATOM      4  C   UNL     1       7.778   5.634  19.333  0.00  0.00    +0.000 A 
ATOM      5  N   UNL     1       6.869   4.791  18.801  0.00  0.00    +0.000 NA
ATOM      6  C   UNL     1       6.360   5.297  17.665  0.00  0.00    +0.000 A 
ATOM      7  C   UNL     1       6.668   6.502  17.068  0.00  0.00    +0.000 A 
ATOM      8  N   UNL     1       5.966   6.663  15.891  0.00  0.00    +0.000 NA
ATOM      9  C   UNL     1       5.214   5.587  15.795  0.00  0.00    +0.000 A 
ATOM     10  N   UNL     1       5.388   4.760  16.870  0.00  0.00    +0.000 N 
BRANCH   2  11
ATOM     11  N   UNL     1       7.957   8.572  17.287  0.00  0.00    +0.000 N 
ATOM     12  H   UNL     1       8.934   8.633  17.042  0.00  0.00    +0.000 HD
ATOM     13  H   UNL     1       7.282   8.986  16.651  0.00  0.00    +0.000 HD
ENDBRANCH   2  11
ENDBRANCH   1  10
BRANCH   1  14
ATOM     14  C   UNL     1       3.146   3.640  16.993  0.00  0.00    +0.000 C 
BRANCH  14  15
ATOM     15  C   UNL     1       2.465   2.359  17.486  0.00  0.00    +0.000 C 
ATOM     16  F   UNL     1       3.406   1.497  17.964  0.00  0.00    +0.000 F 
ENDBRANCH  14  15
BRANCH  14  17
ATOM     17  O   UNL     1       2.653   4.761  17.759  0.00  0.00    +0.000 OA
BRANCH  17  18
ATOM     18  C   UNL     1       1.872   4.346  18.877  0.00  0.00    +0.000 C 
BRANCH  18  19
ATOM     19  C   UNL     1       2.671   4.462  20.152  0.00  0.00    +0.000 C 
BRANCH  19  20
ATOM     20  P   UNL     1       1.909   3.356  21.395  0.00  0.00    +0.000 P 
ATOM     21  O   UNL     1       1.065   2.672  20.320  0.00  0.00    +0.000 OA
BRANCH  20  22
ATOM     22  O   UNL     1       3.265   2.445  21.484  0.00  0.00    +0.000 OA
ATOM     23  H   UNL     1       3.053   1.507  21.313  0.00  0.00    +0.000 HD
ENDBRANCH  20  22
BRANCH  20  24
ATOM     24  O   UNL     1       1.189   2.310  22.571  0.00  0.00    +0.000 OA
ATOM     25  H   UNL     1       1.943   1.844  22.988  0.00  0.00    +0.000 HD
ENDBRANCH  20  24
ENDBRANCH  19  20
ENDBRANCH  18  19
ENDBRANCH  17  18
ENDBRANCH  14  17
ENDBRANCH   1  14
TORSDOF 10
ENDMDL
MODEL 6
REMARK VINA RESULT:      -6.0      0.839      1.009
REMARK  Name = 
REMARK  10 active torsions:
REMARK  status: ('A' for Active; 'I' for Inactive)
REMARK    1  A    between atoms: N_1  and  C_2
REMARK    2  A    between atoms: N_10  and  C_11
REMARK    3  A    between atoms: C_11  and  C_12
REMARK    4  A    between atoms: C_12  and  C_13
REMARK    5  A    between atoms: C_12  and  O_15
REMARK    6  A    between atoms: O_15  and  C_16
REMARK    7  A    between atoms: C_16  and  C_17
REMARK    8  A    between atoms: C_17  and  P_18
REMARK    9  A    between atoms: P_18  and  O_20
REMARK   10  A    between atoms: P_18  and  O_21
REMARK                            x       y       z     vdW  Elec       q    Type
REMARK                         _______ _______ _______ _____ _____    ______ ____
ROOT
ATOM      1  C   UNL     1       3.922   4.140  16.428  0.00  0.00    +0.000 C 
ENDROOT
BRANCH   1  10
ATOM      2  C   UNL     1       2.297   3.631  20.938  0.00  0.00    +0.000 A 
ATOM      3  N   UNL     1       1.960   4.931  21.093  0.00  0.00    +0.000 NA
ATOM      4  C   UNL     1       2.138   5.771  20.051  0.00  0.00    +0.000 A 
ATOM      5  N   UNL     1       2.637   5.492  18.830  0.00  0.00    +0.000 NA
ATOM      6  C   UNL     1       2.936   4.186  18.727  0.00  0.00    +0.000 A 
ATOM      7  C   UNL     1       2.787   3.210  19.690  0.00  0.00    +0.000 A 
ATOM      8  N   UNL     1       3.171   1.976  19.205  0.00  0.00    +0.000 NA
ATOM      9  C   UNL     1       3.582   2.207  17.977  0.00  0.00    +0.000 A 
ATOM     10  N   UNL     1       3.501   3.537  17.666  0.00  0.00    +0.000 N 
BRANCH   2  11
ATOM     11  N   UNL     1       2.152   2.772  22.014  0.00  0.00    +0.000 N 
ATOM     12  H   UNL     1       1.275   2.899  22.498  0.00  0.00    +0.000 HD
ATOM     13  H   UNL     1       2.455   1.822  21.822  0.00  0.00    +0.000 HD
ENDBRANCH   2  11
ENDBRANCH   1  10
BRANCH   1  14
ATOM     14  C   UNL     1       5.436   4.411  16.331  0.00  0.00    +0.000 C 
BRANCH  14  15
ATOM     15  C   UNL     1       6.069   3.589  15.204  0.00  0.00    +0.000 C 
ATOM     16  F   UNL     1       6.851   4.397  14.434  0.00  0.00    +0.000 F 
ENDBRANCH  14  15
BRANCH  14  17
ATOM     17  O   UNL     1       5.692   5.812  16.094  0.00  0.00    +0.000 OA
BRANCH  17  18
ATOM     18  C   UNL     1       6.542   6.379  17.088  0.00  0.00    +0.000 C 
BRANCH  18  19
ATOM     19  C   UNL     1       6.073   5.993  18.469  0.00  0.00    +0.000 C 
BRANCH  19  20
ATOM     20  P   UNL     1       7.546   5.549  19.460  0.00  0.00    +0.000 P 
ATOM     21  O   UNL     1       7.936   4.464  18.456  0.00  0.00    +0.000 OA
BRANCH  20  22
ATOM     22  O   UNL     1       8.348   6.879  18.948  0.00  0.00    +0.000 OA
ATOM     23  H   UNL     1       8.049   7.131  18.053  0.00  0.00    +0.000 HD
ENDBRANCH  20  22
BRANCH  20  24
ATOM     24  O   UNL     1       8.939   5.130  20.396  0.00  0.00    +0.000 OA
ATOM     25  H   UNL     1       9.145   4.206  20.143  0.00  0.00    +0.000 HD
ENDBRANCH  20  24
ENDBRANCH  19  20
ENDBRANCH  18  19
ENDBRANCH  17  18
ENDBRANCH  14  17
ENDBRANCH   1  14
TORSDOF 10
ENDMDL
MODEL 7
REMARK VINA RESULT:      -6.0      4.305      6.032
REMARK  Name = 
REMARK  10 active torsions:
REMARK  status: ('A' for Active; 'I' for Inactive)
REMARK    1  A    between atoms: N_1  and  C_2
REMARK    2  A    between atoms: N_10  and  C_11
REMARK    3  A    between atoms: C_11  and  C_12
REMARK    4  A    between atoms: C_12  and  C_13
REMARK    5  A    between atoms: C_12  and  O_15
REMARK    6  A    between atoms: O_15  and  C_16
REMARK    7  A    between atoms: C_16  and  C_17
REMARK    8  A    between atoms: C_17  and  P_18
REMARK    9  A    between atoms: P_18  and  O_20
REMARK   10  A    between atoms: P_18  and  O_21
REMARK                            x       y       z     vdW  Elec       q    Type
REMARK                         _______ _______ _______ _____ _____    ______ ____
ROOT
ATOM      1  C   UNL     1       3.429   3.775  19.429  0.00  0.00    +0.000 C 
ENDROOT
BRANCH   1  10
ATOM      2  C   UNL     1       7.099   5.280  16.690  0.00  0.00    +0.000 A 
ATOM      3  N   UNL     1       7.802   5.819  17.712  0.00  0.00    +0.000 NA
ATOM      4  C   UNL     1       7.303   5.712  18.963  0.00  0.00    +0.000 A 
ATOM      5  N   UNL     1       6.150   5.132  19.355  0.00  0.00    +0.000 NA
ATOM      6  C   UNL     1       5.506   4.599  18.303  0.00  0.00    +0.000 A 
ATOM      7  C   UNL     1       5.901   4.607  16.982  0.00  0.00    +0.000 A 
ATOM      8  N   UNL     1       4.995   3.928  16.191  0.00  0.00    +0.000 NA
ATOM      9  C   UNL     1       4.045   3.545  17.018  0.00  0.00    +0.000 A 
ATOM     10  N   UNL     1       4.293   3.971  18.293  0.00  0.00    +0.000 N 
BRANCH   2  11
ATOM     11  N   UNL     1       7.586   5.419  15.402  0.00  0.00    +0.000 N 
ATOM     12  H   UNL     1       8.589   5.535  15.375  0.00  0.00    +0.000 HD
ATOM     13  H   UNL     1       7.166   4.780  14.735  0.00  0.00    +0.000 HD
ENDBRANCH   2  11
ENDBRANCH   1  10
BRANCH   1  14
ATOM     14  C   UNL     1       2.191   4.692  19.458  0.00  0.00    +0.000 C 
BRANCH  14  15
ATOM     15  C   UNL     1       1.332   4.414  20.696  0.00  0.00    +0.000 C 
ATOM     16  F   UNL     1       0.395   3.471  20.398  0.00  0.00    +0.000 F 
ENDBRANCH  14  15
BRANCH  14  17
ATOM     17  O   UNL     1       2.581   6.082  19.457  0.00  0.00    +0.000 OA
BRANCH  17  18
ATOM     18  C   UNL     1       2.213   6.743  18.249  0.00  0.00    +0.000 C 
BRANCH  18  19
ATOM     19  C   UNL     1       2.675   8.179  18.269  0.00  0.00    +0.000 C 
BRANCH  19  20
ATOM     20  P   UNL     1       1.201   9.247  18.081  0.00  0.00    +0.000 P 
ATOM     21  O   UNL     1       1.257   9.644  19.556  0.00  0.00    +0.000 OA
BRANCH  20  22
ATOM     22  O   UNL     1       2.076  10.401  17.320  0.00  0.00    +0.000 OA
ATOM     23  H   UNL     1       1.902  11.276  17.718  0.00  0.00    +0.000 HD
ENDBRANCH  20  22
BRANCH  20  24
ATOM     24  O   UNL     1      -0.192  10.258  17.903  0.00  0.00    +0.000 OA
ATOM     25  H   UNL     1      -0.884   9.670  17.534  0.00  0.00    +0.000 HD
ENDBRANCH  20  24
ENDBRANCH  19  20
ENDBRANCH  18  19
ENDBRANCH  17  18
ENDBRANCH  14  17
ENDBRANCH   1  14
TORSDOF 10
ENDMDL
MODEL 8
REMARK VINA RESULT:      -5.9      4.508      6.379
REMARK  Name = 
REMARK  10 active torsions:
REMARK  status: ('A' for Active; 'I' for Inactive)
REMARK    1  A    between atoms: N_1  and  C_2
REMARK    2  A    between atoms: N_10  and  C_11
REMARK    3  A    between atoms: C_11  and  C_12
REMARK    4  A    between atoms: C_12  and  C_13
REMARK    5  A    between atoms: C_12  and  O_15
REMARK    6  A    between atoms: O_15  and  C_16
REMARK    7  A    between atoms: C_16  and  C_17
REMARK    8  A    between atoms: C_17  and  P_18
REMARK    9  A    between atoms: P_18  and  O_20
REMARK   10  A    between atoms: P_18  and  O_21
REMARK                            x       y       z     vdW  Elec       q    Type
REMARK                         _______ _______ _______ _____ _____    ______ ____
ROOT
ATOM      1  C   UNL     1       3.296   3.891  19.458  0.00  0.00    +0.000 C 
ENDROOT
BRANCH   1  10
ATOM      2  C   UNL     1       6.987   5.264  16.679  0.00  0.00    +0.000 A 
ATOM      3  N   UNL     1       7.750   5.711  17.701  0.00  0.00    +0.000 NA
ATOM      4  C   UNL     1       7.278   5.586  18.961  0.00  0.00    +0.000 A 
ATOM      5  N   UNL     1       6.099   5.067  19.361  0.00  0.00    +0.000 NA
ATOM      6  C   UNL     1       5.393   4.622  18.308  0.00  0.00    +0.000 A 
ATOM      7  C   UNL     1       5.754   4.660  16.977  0.00  0.00    +0.000 A 
ATOM      8  N   UNL     1       4.785   4.077  16.186  0.00  0.00    +0.000 NA
ATOM      9  C   UNL     1       3.833   3.723  17.023  0.00  0.00    +0.000 A 
ATOM     10  N   UNL     1       4.141   4.077  18.307  0.00  0.00    +0.000 N 
BRANCH   2  11
ATOM     11  N   UNL     1       7.449   5.424  15.384  0.00  0.00    +0.000 N 
ATOM     12  H   UNL     1       7.118   4.703  14.760  0.00  0.00    +0.000 HD
ATOM     13  H   UNL     1       7.420   6.385  15.056  0.00  0.00    +0.000 HD
ENDBRANCH   2  11
ENDBRANCH   1  10
BRANCH   1  14
ATOM     14  C   UNL     1       2.052   4.800  19.493  0.00  0.00    +0.000 C 
BRANCH  14  15
ATOM     15  C   UNL     1       1.022   4.281  20.503  0.00  0.00    +0.000 C 
ATOM     16  F   UNL     1       1.025   2.919  20.498  0.00  0.00    +0.000 F 
ENDBRANCH  14  15
BRANCH  14  17
ATOM     17  O   UNL     1       2.414   6.153  19.842  0.00  0.00    +0.000 OA
BRANCH  17  18
ATOM     18  C   UNL     1       1.544   6.706  20.826  0.00  0.00    +0.000 C 
BRANCH  18  19
ATOM     19  C   UNL     1       1.451   8.204  20.669  0.00  0.00    +0.000 C 
BRANCH  19  20
ATOM     20  P   UNL     1       0.322   8.836  21.963  0.00  0.00    +0.000 P 
ATOM     21  O   UNL     1       1.474   9.553  22.667  0.00  0.00    +0.000 OA
BRANCH  20  22
ATOM     22  O   UNL     1      -0.292   9.959  20.945  0.00  0.00    +0.000 OA
ATOM     23  H   UNL     1      -0.869  10.578  21.433  0.00  0.00    +0.000 HD
ENDBRANCH  20  22
BRANCH  20  24
ATOM     24  O   UNL     1      -0.747   9.434  23.186  0.00  0.00    +0.000 OA
ATOM     25  H   UNL     1      -1.615   9.029  22.982  0.00  0.00    +0.000 HD
ENDBRANCH  20  24
ENDBRANCH  19  20
ENDBRANCH  18  19
ENDBRANCH  17  18
ENDBRANCH  14  17
ENDBRANCH   1  14
TORSDOF 10
ENDMDL
MODEL 9
REMARK VINA RESULT:      -5.9      1.500      1.771
REMARK  Name = 
REMARK  10 active torsions:
REMARK  status: ('A' for Active; 'I' for Inactive)
REMARK    1  A    between atoms: N_1  and  C_2
REMARK    2  A    between atoms: N_10  and  C_11
REMARK    3  A    between atoms: C_11  and  C_12
REMARK    4  A    between atoms: C_12  and  C_13
REMARK    5  A    between atoms: C_12  and  O_15
REMARK    6  A    between atoms: O_15  and  C_16
REMARK    7  A    between atoms: C_16  and  C_17
REMARK    8  A    between atoms: C_17  and  P_18
REMARK    9  A    between atoms: P_18  and  O_20
REMARK   10  A    between atoms: P_18  and  O_21
REMARK                            x       y       z     vdW  Elec       q    Type
REMARK                         _______ _______ _______ _____ _____    ______ ____
ROOT
ATOM      1  C   UNL     1       4.579   3.570  16.553  0.00  0.00    +0.000 C 
ENDROOT
BRANCH   1  10
ATOM      2  C   UNL     1       2.032   2.795  20.571  0.00  0.00    +0.000 A 
ATOM      3  N   UNL     1       0.839   2.697  19.942  0.00  0.00    +0.000 NA
ATOM      4  C   UNL     1       0.811   2.796  18.596  0.00  0.00    +0.000 A 
ATOM      5  N   UNL     1       1.844   3.000  17.752  0.00  0.00    +0.000 NA
ATOM      6  C   UNL     1       3.002   3.069  18.429  0.00  0.00    +0.000 A 
ATOM      7  C   UNL     1       3.189   2.962  19.792  0.00  0.00    +0.000 A 
ATOM      8  N   UNL     1       4.528   3.051  20.115  0.00  0.00    +0.000 NA
ATOM      9  C   UNL     1       5.141   3.246  18.966  0.00  0.00    +0.000 A 
ATOM     10  N   UNL     1       4.251   3.311  17.931  0.00  0.00    +0.000 N 
BRANCH   2  11
ATOM     11  N   UNL     1       2.063   2.732  21.954  0.00  0.00    +0.000 N 
ATOM     12  H   UNL     1       1.962   1.790  22.303  0.00  0.00    +0.000 HD
ATOM     13  H   UNL     1       2.777   3.320  22.373  0.00  0.00    +0.000 HD
ENDBRANCH   2  11
ENDBRANCH   1  10
BRANCH   1  14
ATOM     14  C   UNL     1       5.436   4.831  16.326  0.00  0.00    +0.000 C 
BRANCH  14  15
ATOM     15  C   UNL     1       5.623   5.105  14.830  0.00  0.00    +0.000 C 
ATOM     16  F   UNL     1       4.836   4.258  14.110  0.00  0.00    +0.000 F 
ENDBRANCH  14  15
BRANCH  14  17
ATOM     17  O   UNL     1       4.825   5.985  16.943  0.00  0.00    +0.000 OA
BRANCH  17  18
ATOM     18  C   UNL     1       5.781   6.993  17.262  0.00  0.00    +0.000 C 
BRANCH  18  19
ATOM     19  C   UNL     1       7.174   6.413  17.286  0.00  0.00    +0.000 C 
BRANCH  19  20
ATOM     20  P   UNL     1       7.544   5.908  19.005  0.00  0.00    +0.000 P 
ATOM     21  O   UNL     1       8.314   4.681  18.517  0.00  0.00    +0.000 OA
BRANCH  20  22
ATOM     22  O   UNL     1       8.687   7.070  19.150  0.00  0.00    +0.000 OA
ATOM     23  H   UNL     1       9.286   7.052  18.378  0.00  0.00    +0.000 HD
ENDBRANCH  20  22
BRANCH  20  24
ATOM     24  O   UNL     1       7.895   5.432  20.632  0.00  0.00    +0.000 OA
ATOM     25  H   UNL     1       7.553   6.163  21.187  0.00  0.00    +0.000 HD
ENDBRANCH  20  24
ENDBRANCH  19  20
ENDBRANCH  18  19
ENDBRANCH  17  18
ENDBRANCH  14  17
ENDBRANCH   1  14
TORSDOF 10
ENDMDL
