MODEL 1
REMARK VINA RESULT:      -6.6      0.000      0.000
REMARK  Name = 
REMARK  6 active torsions:
REMARK  status: ('A' for Active; 'I' for Inactive)
REMARK    1  A    between atoms: C_1  and  C_2
REMARK    2  A    between atoms: C_3  and  C_4
REMARK    3  A    between atoms: C_4  and  N_5
REMARK    4  A    between atoms: C_6  and  S_7
REMARK    5  A    between atoms: S_7  and  C_8
REMARK    6  A    between atoms: N_17  and  C_18
REMARK                            x       y       z     vdW  Elec       q    Type
REMARK                         _______ _______ _______ _____ _____    ______ ____
ROOT
ATOM      1  N   UNL     1       2.946   5.535  18.069  0.00  0.00    +0.000 N 
ATOM      2  C   UNL     1       3.137   6.893  18.214  0.00  0.00    +0.000 A 
ATOM      3  N   UNL     1       4.365   7.254  17.899  0.00  0.00    +0.000 NA
ATOM      4  C   UNL     1       4.980   6.096  17.540  0.00  0.00    +0.000 A 
ATOM      5  C   UNL     1       4.139   5.022  17.626  0.00  0.00    +0.000 A 
ATOM      6  C   UNL     1       4.555   3.698  17.311  0.00  0.00    +0.000 A 
ATOM      7  O   UNL     1       3.861   2.692  17.396  0.00  0.00    +0.000 OA
ATOM      8  N   UNL     1       5.870   3.643  16.909  0.00  0.00    +0.000 N 
ATOM      9  C   UNL     1       6.771   4.687  16.835  0.00  0.00    +0.000 A 
ATOM     10  O   UNL     1       7.932   4.447  16.501  0.00  0.00    +0.000 OA
ATOM     11  N   UNL     1       6.297   5.957  17.152  0.00  0.00    +0.000 N 
ATOM     12  C   UNL     1       7.182   7.104  17.102  0.00  0.00    +0.000 C 
ATOM     13  H   UNL     1       6.234   2.730  16.685  0.00  0.00    +0.000 HD
ENDROOT
BRANCH   2  14
ATOM     14  S   UNL     1       1.888   7.966  18.760  0.00  0.00    +0.000 S 
ATOM     15  C   UNL     1       2.189   9.420  17.730  0.00  0.00    +0.000 C 
ENDBRANCH   2  14
BRANCH   1  16
ATOM     16  C   UNL     1       1.759   4.755  18.390  0.00  0.00    +0.000 C 
BRANCH  16  19
ATOM     17  C   UNL     1       1.359   2.633  21.644  0.00  0.00    +0.000 C 
ATOM     18  C   UNL     1       1.319   3.087  20.220  0.00  0.00    +0.000 C 
ATOM     19  C   UNL     1       1.738   4.298  19.820  0.00  0.00    +0.000 C 
ENDBRANCH  16  19
ENDBRANCH   1  16
TORSDOF 3
ENDMDL
MODEL 2
REMARK VINA RESULT:      -6.4      2.521      4.131
REMARK  Name = 
REMARK  6 active torsions:
REMARK  status: ('A' for Active; 'I' for Inactive)
REMARK    1  A    between atoms: C_1  and  C_2
REMARK    2  A    between atoms: C_3  and  C_4
REMARK    3  A    between atoms: C_4  and  N_5
REMARK    4  A    between atoms: C_6  and  S_7
REMARK    5  A    between atoms: S_7  and  C_8
REMARK    6  A    between atoms: N_17  and  C_18
REMARK                            x       y       z     vdW  Elec       q    Type
REMARK                         _______ _______ _______ _____ _____    ______ ____
ROOT
ATOM      1  N   UNL     1       4.506   4.890  17.774  0.00  0.00    +0.000 N 
ATOM      2  C   UNL     1       3.767   3.922  17.128  0.00  0.00    +0.000 A 
ATOM      3  N   UNL     1       4.272   3.621  15.948  0.00  0.00    +0.000 NA
ATOM      4  C   UNL     1       5.368   4.417  15.833  0.00  0.00    +0.000 A 
ATOM      5  C   UNL     1       5.546   5.205  16.936  0.00  0.00    +0.000 A 
ATOM      6  C   UNL     1       6.620   6.131  17.048  0.00  0.00    +0.000 A 
ATOM      7  O   UNL     1       6.817   6.884  17.994  0.00  0.00    +0.000 OA
ATOM      8  N   UNL     1       7.439   6.122  15.942  0.00  0.00    +0.000 N 
ATOM      9  C   UNL     1       7.288   5.374  14.791  0.00  0.00    +0.000 A 
ATOM     10  O   UNL     1       8.092   5.531  13.871  0.00  0.00    +0.000 OA
ATOM     11  N   UNL     1       6.219   4.483  14.749  0.00  0.00    +0.000 N 
ATOM     12  C   UNL     1       5.992   3.665  13.574  0.00  0.00    +0.000 C 
ATOM     13  H   UNL     1       8.212   6.768  15.949  0.00  0.00    +0.000 HD
ENDROOT
BRANCH   2  14
ATOM     14  S   UNL     1       2.339   3.213  17.813  0.00  0.00    +0.000 S 
ATOM     15  C   UNL     1       3.025   1.774  18.663  0.00  0.00    +0.000 C 
ENDBRANCH   2  14
BRANCH   1  16
ATOM     16  C   UNL     1       4.225   5.534  19.049  0.00  0.00    +0.000 C 
BRANCH  16  19
ATOM     17  C   UNL     1       1.966   8.492  17.868  0.00  0.00    +0.000 C 
ATOM     18  C   UNL     1       3.081   7.504  17.984  0.00  0.00    +0.000 C 
ATOM     19  C   UNL     1       3.144   6.570  18.946  0.00  0.00    +0.000 C 
ENDBRANCH  16  19
ENDBRANCH   1  16
TORSDOF 3
ENDMDL
MODEL 3
REMARK VINA RESULT:      -6.2      2.059      4.587
REMARK  Name = 
REMARK  6 active torsions:
REMARK  status: ('A' for Active; 'I' for Inactive)
REMARK    1  A    between atoms: C_1  and  C_2
REMARK    2  A    between atoms: C_3  and  C_4
REMARK    3  A    between atoms: C_4  and  N_5
REMARK    4  A    between atoms: C_6  and  S_7
REMARK    5  A    between atoms: S_7  and  C_8
REMARK    6  A    between atoms: N_17  and  C_18
REMARK                            x       y       z     vdW  Elec       q    Type
REMARK                         _______ _______ _______ _____ _____    ______ ____
ROOT
ATOM      1  N   UNL     1       4.306   6.283  18.090  0.00  0.00    +0.000 N 
ATOM      2  C   UNL     1       3.074   6.819  18.401  0.00  0.00    +0.000 A 
ATOM      3  N   UNL     1       2.418   6.075  19.269  0.00  0.00    +0.000 NA
ATOM      4  C   UNL     1       3.252   5.032  19.525  0.00  0.00    +0.000 A 
ATOM      5  C   UNL     1       4.422   5.129  18.824  0.00  0.00    +0.000 A 
ATOM      6  C   UNL     1       5.452   4.152  18.916  0.00  0.00    +0.000 A 
ATOM      7  O   UNL     1       6.506   4.165  18.294  0.00  0.00    +0.000 OA
ATOM      8  N   UNL     1       5.132   3.133  19.786  0.00  0.00    +0.000 N 
ATOM      9  C   UNL     1       3.957   2.969  20.492  0.00  0.00    +0.000 A 
ATOM     10  O   UNL     1       3.819   1.964  21.190  0.00  0.00    +0.000 OA
ATOM     11  N   UNL     1       2.993   3.965  20.361  0.00  0.00    +0.000 N 
ATOM     12  C   UNL     1       1.732   3.864  21.067  0.00  0.00    +0.000 C 
ATOM     13  H   UNL     1       5.813   2.398  19.886  0.00  0.00    +0.000 HD
ENDROOT
BRANCH   2  14
ATOM     14  S   UNL     1       2.486   8.295  17.704  0.00  0.00    +0.000 S 
ATOM     15  C   UNL     1       1.484   8.955  19.054  0.00  0.00    +0.000 C 
ENDBRANCH   2  14
BRANCH   1  16
ATOM     16  C   UNL     1       5.279   6.769  17.122  0.00  0.00    +0.000 C 
BRANCH  16  19
ATOM     17  C   UNL     1       5.904   4.483  14.017  0.00  0.00    +0.000 C 
ATOM     18  C   UNL     1       6.065   5.202  15.318  0.00  0.00    +0.000 C 
ATOM     19  C   UNL     1       5.165   6.077  15.794  0.00  0.00    +0.000 C 
ENDBRANCH  16  19
ENDBRANCH   1  16
TORSDOF 3
ENDMDL
MODEL 4
REMARK VINA RESULT:      -6.2      2.859      5.687
REMARK  Name = 
REMARK  6 active torsions:
REMARK  status: ('A' for Active; 'I' for Inactive)
REMARK    1  A    between atoms: C_1  and  C_2
REMARK    2  A    between atoms: C_3  and  C_4
REMARK    3  A    between atoms: C_4  and  N_5
REMARK    4  A    between atoms: C_6  and  S_7
REMARK    5  A    between atoms: S_7  and  C_8
REMARK    6  A    between atoms: N_17  and  C_18
REMARK                            x       y       z     vdW  Elec       q    Type
REMARK                         _______ _______ _______ _____ _____    ______ ____
ROOT
ATOM      1  N   UNL     1       4.630   5.442  16.774  0.00  0.00    +0.000 N 
ATOM      2  C   UNL     1       5.121   4.188  16.476  0.00  0.00    +0.000 A 
ATOM      3  N   UNL     1       4.454   3.237  17.099  0.00  0.00    +0.000 NA
ATOM      4  C   UNL     1       3.506   3.897  17.816  0.00  0.00    +0.000 A 
ATOM      5  C   UNL     1       3.580   5.250  17.636  0.00  0.00    +0.000 A 
ATOM      6  C   UNL     1       2.699   6.157  18.288  0.00  0.00    +0.000 A 
ATOM      7  O   UNL     1       2.732   7.378  18.193  0.00  0.00    +0.000 OA
ATOM      8  N   UNL     1       1.783   5.514  19.090  0.00  0.00    +0.000 N 
ATOM      9  C   UNL     1       1.684   4.158  19.332  0.00  0.00    +0.000 A 
ATOM     10  O   UNL     1       0.830   3.757  20.124  0.00  0.00    +0.000 OA
ATOM     11  N   UNL     1       2.573   3.327  18.657  0.00  0.00    +0.000 N 
ATOM     12  C   UNL     1       2.535   1.892  18.860  0.00  0.00    +0.000 C 
ATOM     13  H   UNL     1       1.138   6.100  19.594  0.00  0.00    +0.000 HD
ENDROOT
BRANCH   2  14
ATOM     14  S   UNL     1       6.467   3.932  15.412  0.00  0.00    +0.000 S 
ATOM     15  C   UNL     1       5.664   3.996  13.795  0.00  0.00    +0.000 C 
ENDBRANCH   2  14
BRANCH   1  16
ATOM     16  C   UNL     1       5.146   6.734  16.345  0.00  0.00    +0.000 C 
BRANCH  16  19
ATOM     17  C   UNL     1       8.300   7.908  18.328  0.00  0.00    +0.000 C 
ATOM     18  C   UNL     1       7.401   7.238  17.339  0.00  0.00    +0.000 C 
ATOM     19  C   UNL     1       6.064   7.353  17.360  0.00  0.00    +0.000 C 
ENDBRANCH  16  19
ENDBRANCH   1  16
TORSDOF 3
ENDMDL
MODEL 5
REMARK VINA RESULT:      -6.2      2.580      3.732
REMARK  Name = 
REMARK  6 active torsions:
REMARK  status: ('A' for Active; 'I' for Inactive)
REMARK    1  A    between atoms: C_1  and  C_2
REMARK    2  A    between atoms: C_3  and  C_4
REMARK    3  A    between atoms: C_4  and  N_5
REMARK    4  A    between atoms: C_6  and  S_7
REMARK    5  A    between atoms: S_7  and  C_8
REMARK    6  A    between atoms: N_17  and  C_18
REMARK                            x       y       z     vdW  Elec       q    Type
REMARK                         _______ _______ _______ _____ _____    ______ ____
ROOT
ATOM      1  N   UNL     1       3.438   5.116  19.086  0.00  0.00    +0.000 N 
ATOM      2  C   UNL     1       4.019   3.949  19.535  0.00  0.00    +0.000 A 
ATOM      3  N   UNL     1       5.272   3.839  19.141  0.00  0.00    +0.000 NA
ATOM      4  C   UNL     1       5.505   4.968  18.420  0.00  0.00    +0.000 A 
ATOM      5  C   UNL     1       4.404   5.778  18.369  0.00  0.00    +0.000 A 
ATOM      6  C   UNL     1       4.396   7.014  17.664  0.00  0.00    +0.000 A 
ATOM      7  O   UNL     1       3.437   7.768  17.556  0.00  0.00    +0.000 OA
ATOM      8  N   UNL     1       5.607   7.286  17.069  0.00  0.00    +0.000 N 
ATOM      9  C   UNL     1       6.737   6.492  17.060  0.00  0.00    +0.000 A 
ATOM     10  O   UNL     1       7.724   6.870  16.429  0.00  0.00    +0.000 OA
ATOM     11  N   UNL     1       6.679   5.298  17.774  0.00  0.00    +0.000 N 
ATOM     12  C   UNL     1       7.822   4.408  17.811  0.00  0.00    +0.000 C 
ATOM     13  H   UNL     1       5.665   8.141  16.539  0.00  0.00    +0.000 HD
ENDROOT
BRANCH   2  14
ATOM     14  S   UNL     1       3.167   2.782  20.494  0.00  0.00    +0.000 S 
ATOM     15  C   UNL     1       2.117   1.994  19.252  0.00  0.00    +0.000 C 
ENDBRANCH   2  14
BRANCH   1  16
ATOM     16  C   UNL     1       2.059   5.554  19.247  0.00  0.00    +0.000 C 
BRANCH  16  19
ATOM     17  C   UNL     1       1.288   8.536  21.648  0.00  0.00    +0.000 C 
ATOM     18  C   UNL     1       1.529   7.713  20.424  0.00  0.00    +0.000 C 
ATOM     19  C   UNL     1       1.866   6.414  20.463  0.00  0.00    +0.000 C 
ENDBRANCH  16  19
ENDBRANCH   1  16
TORSDOF 3
ENDMDL
MODEL 6
REMARK VINA RESULT:      -6.1      1.297      1.418
REMARK  Name = 
REMARK  6 active torsions:
REMARK  status: ('A' for Active; 'I' for Inactive)
REMARK    1  A    between atoms: C_1  and  C_2
REMARK    2  A    between atoms: C_3  and  C_4
REMARK    3  A    between atoms: C_4  and  N_5
REMARK    4  A    between atoms: C_6  and  S_7
REMARK    5  A    between atoms: S_7  and  C_8
REMARK    6  A    between atoms: N_17  and  C_18
REMARK                            x       y       z     vdW  Elec       q    Type
REMARK                         _______ _______ _______ _____ _____    ______ ____
ROOT
ATOM      1  N   UNL     1       3.328   5.693  19.400  0.00  0.00    +0.000 N 
ATOM      2  C   UNL     1       3.129   6.888  18.741  0.00  0.00    +0.000 A 
ATOM      3  N   UNL     1       4.084   7.133  17.866  0.00  0.00    +0.000 NA
ATOM      4  C   UNL     1       4.920   6.066  17.964  0.00  0.00    +0.000 A 
ATOM      5  C   UNL     1       4.485   5.159  18.890  0.00  0.00    +0.000 A 
ATOM      6  C   UNL     1       5.196   3.961  19.180  0.00  0.00    +0.000 A 
ATOM      7  O   UNL     1       4.877   3.126  20.017  0.00  0.00    +0.000 OA
ATOM      8  N   UNL     1       6.337   3.831  18.421  0.00  0.00    +0.000 N 
ATOM      9  C   UNL     1       6.840   4.728  17.498  0.00  0.00    +0.000 A 
ATOM     10  O   UNL     1       7.909   4.473  16.944  0.00  0.00    +0.000 OA
ATOM     11  N   UNL     1       6.091   5.877  17.259  0.00  0.00    +0.000 N 
ATOM     12  C   UNL     1       6.552   6.868  16.307  0.00  0.00    +0.000 C 
ATOM     13  H   UNL     1       6.897   3.011  18.588  0.00  0.00    +0.000 HD
ENDROOT
BRANCH   2  14
ATOM     14  S   UNL     1       1.776   7.925  19.060  0.00  0.00    +0.000 S 
ATOM     15  C   UNL     1       2.019   9.222  17.827  0.00  0.00    +0.000 C 
ENDBRANCH   2  14
BRANCH   1  16
ATOM     16  C   UNL     1       2.539   5.120  20.481  0.00  0.00    +0.000 C 
BRANCH  16  19
ATOM     17  C   UNL     1       0.488   2.264  18.782  0.00  0.00    +0.000 C 
ATOM     18  C   UNL     1       1.607   3.152  19.223  0.00  0.00    +0.000 C 
ATOM     19  C   UNL     1       1.426   4.245  19.981  0.00  0.00    +0.000 C 
ENDBRANCH  16  19
ENDBRANCH   1  16
TORSDOF 3
ENDMDL
MODEL 7
REMARK VINA RESULT:      -6.1      2.441      5.209
REMARK  Name = 
REMARK  6 active torsions:
REMARK  status: ('A' for Active; 'I' for Inactive)
REMARK    1  A    between atoms: C_1  and  C_2
REMARK    2  A    between atoms: C_3  and  C_4
REMARK    3  A    between atoms: C_4  and  N_5
REMARK    4  A    between atoms: C_6  and  S_7
REMARK    5  A    between atoms: S_7  and  C_8
REMARK    6  A    between atoms: N_17  and  C_18
REMARK                            x       y       z     vdW  Elec       q    Type
REMARK                         _______ _______ _______ _____ _____    ______ ____
ROOT
ATOM      1  N   UNL     1       5.104   4.570  17.559  0.00  0.00    +0.000 N 
ATOM      2  C   UNL     1       5.161   5.900  17.919  0.00  0.00    +0.000 A 
ATOM      3  N   UNL     1       4.198   6.225  18.759  0.00  0.00    +0.000 NA
ATOM      4  C   UNL     1       3.503   5.072  18.945  0.00  0.00    +0.000 A 
ATOM      5  C   UNL     1       4.033   4.034  18.230  0.00  0.00    +0.000 A 
ATOM      6  C   UNL     1       3.474   2.726  18.253  0.00  0.00    +0.000 A 
ATOM      7  O   UNL     1       3.883   1.764  17.614  0.00  0.00    +0.000 OA
ATOM      8  N   UNL     1       2.372   2.640  19.074  0.00  0.00    +0.000 N 
ATOM      9  C   UNL     1       1.777   3.659  19.791  0.00  0.00    +0.000 A 
ATOM     10  O   UNL     1       0.758   3.414  20.438  0.00  0.00    +0.000 OA
ATOM     11  N   UNL     1       2.378   4.913  19.728  0.00  0.00    +0.000 N 
ATOM     12  C   UNL     1       1.811   6.035  20.450  0.00  0.00    +0.000 C 
ATOM     13  H   UNL     1       1.918   1.742  19.124  0.00  0.00    +0.000 HD
ENDROOT
BRANCH   2  14
ATOM     14  S   UNL     1       6.366   6.989  17.311  0.00  0.00    +0.000 S 
ATOM     15  C   UNL     1       7.764   6.619  18.394  0.00  0.00    +0.000 C 
ENDBRANCH   2  14
BRANCH   1  16
ATOM     16  C   UNL     1       5.940   3.861  16.601  0.00  0.00    +0.000 C 
BRANCH  16  19
ATOM     17  C   UNL     1       5.639   3.785  12.708  0.00  0.00    +0.000 C 
ATOM     18  C   UNL     1       6.169   3.687  14.103  0.00  0.00    +0.000 C 
ATOM     19  C   UNL     1       5.448   4.004  15.190  0.00  0.00    +0.000 C 
ENDBRANCH  16  19
ENDBRANCH   1  16
TORSDOF 3
ENDMDL
MODEL 8
REMARK VINA RESULT:      -6.0      1.849      4.637
REMARK  Name = 
REMARK  6 active torsions:
REMARK  status: ('A' for Active; 'I' for Inactive)
REMARK    1  A    between atoms: C_1  and  C_2
REMARK    2  A    between atoms: C_3  and  C_4
REMARK    3  A    between atoms: C_4  and  N_5
REMARK    4  A    between atoms: C_6  and  S_7
REMARK    5  A    between atoms: S_7  and  C_8
REMARK    6  A    between atoms: N_17  and  C_18
REMARK                            x       y       z     vdW  Elec       q    Type
REMARK                         _______ _______ _______ _____ _____    ______ ____
ROOT
ATOM      1  N   UNL     1       4.049   6.292  17.859  0.00  0.00    +0.000 N 
ATOM      2  C   UNL     1       2.913   6.854  18.402  0.00  0.00    +0.000 A 
ATOM      3  N   UNL     1       2.407   6.111  19.365  0.00  0.00    +0.000 NA
ATOM      4  C   UNL     1       3.241   5.040  19.445  0.00  0.00    +0.000 A 
ATOM      5  C   UNL     1       4.263   5.120  18.541  0.00  0.00    +0.000 A 
ATOM      6  C   UNL     1       5.262   4.114  18.425  0.00  0.00    +0.000 A 
ATOM      7  O   UNL     1       6.184   4.112  17.618  0.00  0.00    +0.000 OA
ATOM      8  N   UNL     1       5.079   3.086  19.323  0.00  0.00    +0.000 N 
ATOM      9  C   UNL     1       4.050   2.939  20.232  0.00  0.00    +0.000 A 
ATOM     10  O   UNL     1       4.014   1.923  20.928  0.00  0.00    +0.000 OA
ATOM     11  N   UNL     1       3.109   3.963  20.297  0.00  0.00    +0.000 N 
ATOM     12  C   UNL     1       1.998   3.881  21.224  0.00  0.00    +0.000 C 
ATOM     13  H   UNL     1       5.744   2.331  19.283  0.00  0.00    +0.000 HD
ENDROOT
BRANCH   2  14
ATOM     14  S   UNL     1       2.251   8.360  17.850  0.00  0.00    +0.000 S 
ATOM     15  C   UNL     1       1.445   8.969  19.347  0.00  0.00    +0.000 C 
ENDBRANCH   2  14
BRANCH   1  16
ATOM     16  C   UNL     1       4.841   6.772  16.735  0.00  0.00    +0.000 C 
BRANCH  16  19
ATOM     17  C   UNL     1       8.209   8.391  17.867  0.00  0.00    +0.000 C 
ATOM     18  C   UNL     1       7.150   7.399  17.508  0.00  0.00    +0.000 C 
ATOM     19  C   UNL     1       5.903   7.747  17.153  0.00  0.00    +0.000 C 
ENDBRANCH  16  19
ENDBRANCH   1  16
TORSDOF 3
ENDMDL
MODEL 9
REMARK VINA RESULT:      -5.9      2.908      5.470
REMARK  Name = 
REMARK  6 active torsions:
REMARK  status: ('A' for Active; 'I' for Inactive)
REMARK    1  A    between atoms: C_1  and  C_2
REMARK    2  A    between atoms: C_3  and  C_4
REMARK    3  A    between atoms: C_4  and  N_5
REMARK    4  A    between atoms: C_6  and  S_7
REMARK    5  A    between atoms: S_7  and  C_8
REMARK    6  A    between atoms: N_17  and  C_18
REMARK                            x       y       z     vdW  Elec       q    Type
REMARK                         _______ _______ _______ _____ _____    ______ ____
ROOT
ATOM      1  N   UNL     1       4.821   5.142  17.830  0.00  0.00    +0.000 N 
ATOM      2  C   UNL     1       5.884   4.477  18.404  0.00  0.00    +0.000 A 
ATOM      3  N   UNL     1       5.491   3.626  19.331  0.00  0.00    +0.000 NA
ATOM      4  C   UNL     1       4.137   3.746  19.354  0.00  0.00    +0.000 A 
ATOM      5  C   UNL     1       3.690   4.662  18.442  0.00  0.00    +0.000 A 
ATOM      6  C   UNL     1       2.310   4.971  18.283  0.00  0.00    +0.000 A 
ATOM      7  O   UNL     1       1.850   5.801  17.508  0.00  0.00    +0.000 OA
ATOM      8  N   UNL     1       1.508   4.242  19.130  0.00  0.00    +0.000 N 
ATOM      9  C   UNL     1       1.906   3.331  20.089  0.00  0.00    +0.000 A 
ATOM     10  O   UNL     1       1.050   2.805  20.800  0.00  0.00    +0.000 OA
ATOM     11  N   UNL     1       3.270   3.071  20.189  0.00  0.00    +0.000 N 
ATOM     12  C   UNL     1       3.768   2.130  21.172  0.00  0.00    +0.000 C 
ATOM     13  H   UNL     1       0.518   4.424  19.080  0.00  0.00    +0.000 HD
ENDROOT
BRANCH   2  14
ATOM     14  S   UNL     1       7.532   4.760  17.942  0.00  0.00    +0.000 S 
ATOM     15  C   UNL     1       7.923   6.244  18.896  0.00  0.00    +0.000 C 
ENDBRANCH   2  14
BRANCH   1  16
ATOM     16  C   UNL     1       4.857   6.203  16.834  0.00  0.00    +0.000 C 
BRANCH  16  19
ATOM     17  C   UNL     1       5.772   4.070  13.693  0.00  0.00    +0.000 C 
ATOM     18  C   UNL     1       5.262   4.496  15.032  0.00  0.00    +0.000 C 
ATOM     19  C   UNL     1       5.408   5.739  15.517  0.00  0.00    +0.000 C 
ENDBRANCH  16  19
ENDBRANCH   1  16
TORSDOF 3
ENDMDL
