MODEL 1
REMARK VINA RESULT:      -7.6      0.000      0.000
REMARK  Name = 
REMARK  11 active torsions:
REMARK  status: ('A' for Active; 'I' for Inactive)
REMARK    1  A    between atoms: C_1  and  C_2
REMARK    2  A    between atoms: C_2  and  O_3
REMARK    3  A    between atoms: O_3  and  C_4
REMARK    4  A    between atoms: C_4  and  C_6
REMARK    5  A    between atoms: C_6  and  O_7
REMARK    6  A    between atoms: O_7  and  C_8
REMARK    7  A    between atoms: C_14  and  C_15
REMARK    8  A    between atoms: C_16  and  C_17
REMARK    9  A    between atoms: C_19  and  O_20
REMARK   10  A    between atoms: C_22  and  O_23
REMARK   11  A    between atoms: C_24  and  N_25
REMARK                            x       y       z     vdW  Elec       q    Type
REMARK                         _______ _______ _______ _____ _____    ______ ____
ROOT
ATOM      1  C   UNL     1       3.358   6.332  18.536  0.00  0.00    +0.000 C 
ATOM      2  C   UNL     1       4.376   6.756  17.763  0.00  0.00    +0.000 C 
ENDROOT
BRANCH   1   9
ATOM      3  C   UNL     1       1.681   6.809  20.420  0.00  0.00    +0.000 A 
ATOM      4  C   UNL     1       0.791   7.715  21.018  0.00  0.00    +0.000 A 
ATOM      5  C   UNL     1       0.618   8.996  20.493  0.00  0.00    +0.000 A 
ATOM      6  C   UNL     1       1.332   9.377  19.366  0.00  0.00    +0.000 A 
ATOM      7 BR   UNL     1       1.147  11.132  18.691  0.00  0.00    +0.000 Br
ATOM      8  C   UNL     1       2.199   8.480  18.743  0.00  0.00    +0.000 A 
ATOM      9  C   UNL     1       2.376   7.180  19.249  0.00  0.00    +0.000 A 
BRANCH   3  10
ATOM     10  O   UNL     1       1.980   5.587  20.961  0.00  0.00    +0.000 OA
BRANCH  10  11
ATOM     11  C   UNL     1       1.147   4.491  20.601  0.00  0.00    +0.000 C 
BRANCH  11  12
ATOM     12  C   UNL     1       1.758   3.197  21.097  0.00  0.00    +0.000 C 
ATOM     13  O   UNL     1       2.257   3.010  22.198  0.00  0.00    +0.000 OA
BRANCH  12  14
ATOM     14  O   UNL     1       1.725   2.282  20.083  0.00  0.00    +0.000 OA
BRANCH  14  16
ATOM     15  C   UNL     1       2.429   2.400  17.810  0.00  0.00    +0.000 C 
ATOM     16  C   UNL     1       1.363   2.823  18.806  0.00  0.00    +0.000 C 
ENDBRANCH  14  16
ENDBRANCH  12  14
ENDBRANCH  11  12
ENDBRANCH  10  11
ENDBRANCH   3  10
ENDBRANCH   1   9
BRANCH   2  17
ATOM     17  C   UNL     1       5.292   5.821  17.073  0.00  0.00    +0.000 A 
ATOM     18  N   UNL     1       4.877   5.441  15.834  0.00  0.00    +0.000 NA
ATOM     19  C   UNL     1       5.682   4.620  15.158  0.00  0.00    +0.000 A 
ATOM     20  N   UNL     1       6.848   4.118  15.557  0.00  0.00    +0.000 NA
ATOM     21  C   UNL     1       7.212   4.500  16.790  0.00  0.00    +0.000 A 
ATOM     22  C   UNL     1       6.480   5.344  17.586  0.00  0.00    +0.000 A 
BRANCH  22  23
ATOM     23  N   UNL     1       6.907   5.610  18.921  0.00  0.00    +0.000 N 
ATOM     24  O   UNL     1       7.862   6.388  19.067  0.00  0.00    +0.000 OA
ATOM     25  O   UNL     1       6.273   5.077  19.840  0.00  0.00    +0.000 OA
ENDBRANCH  22  23
BRANCH  19  26
ATOM     26  O   UNL     1       5.227   4.262  13.930  0.00  0.00    +0.000 OA
ATOM     27  H   UNL     1       4.669   3.505  14.180  0.00  0.00    +0.000 HD
ENDBRANCH  19  26
BRANCH  21  28
ATOM     28  O   UNL     1       8.413   3.980  17.155  0.00  0.00    +0.000 OA
ATOM     29  H   UNL     1       8.139   3.197  17.668  0.00  0.00    +0.000 HD
ENDBRANCH  21  28
ENDBRANCH   2  17
TORSDOF 10
ENDMDL
MODEL 2
REMARK VINA RESULT:      -7.4      3.289      7.166
REMARK  Name = 
REMARK  11 active torsions:
REMARK  status: ('A' for Active; 'I' for Inactive)
REMARK    1  A    between atoms: C_1  and  C_2
REMARK    2  A    between atoms: C_2  and  O_3
REMARK    3  A    between atoms: O_3  and  C_4
REMARK    4  A    between atoms: C_4  and  C_6
REMARK    5  A    between atoms: C_6  and  O_7
REMARK    6  A    between atoms: O_7  and  C_8
REMARK    7  A    between atoms: C_14  and  C_15
REMARK    8  A    between atoms: C_16  and  C_17
REMARK    9  A    between atoms: C_19  and  O_20
REMARK   10  A    between atoms: C_22  and  O_23
REMARK   11  A    between atoms: C_24  and  N_25
REMARK                            x       y       z     vdW  Elec       q    Type
REMARK                         _______ _______ _______ _____ _____    ______ ____
ROOT
ATOM      1  C   UNL     1       4.866   4.881  16.488  0.00  0.00    +0.000 C 
ATOM      2  C   UNL     1       4.495   3.928  17.365  0.00  0.00    +0.000 C 
ENDROOT
BRANCH   1   9
ATOM      3  C   UNL     1       6.982   4.844  15.037  0.00  0.00    +0.000 A 
ATOM      4  C   UNL     1       7.559   4.595  13.781  0.00  0.00    +0.000 A 
ATOM      5  C   UNL     1       6.780   4.138  12.717  0.00  0.00    +0.000 A 
ATOM      6  C   UNL     1       5.420   3.932  12.902  0.00  0.00    +0.000 A 
ATOM      7 BR   UNL     1       4.376   3.255  11.481  0.00  0.00    +0.000 Br
ATOM      8  C   UNL     1       4.826   4.203  14.135  0.00  0.00    +0.000 A 
ATOM      9  C   UNL     1       5.592   4.676  15.215  0.00  0.00    +0.000 A 
BRANCH   3  10
ATOM     10  O   UNL     1       7.716   5.176  16.144  0.00  0.00    +0.000 OA
BRANCH  10  11
ATOM     11  C   UNL     1       7.317   6.330  16.873  0.00  0.00    +0.000 C 
BRANCH  11  12
ATOM     12  C   UNL     1       7.785   6.219  18.309  0.00  0.00    +0.000 C 
ATOM     13  O   UNL     1       7.724   5.221  19.013  0.00  0.00    +0.000 OA
BRANCH  12  14
ATOM     14  O   UNL     1       8.226   7.446  18.720  0.00  0.00    +0.000 OA
BRANCH  14  16
ATOM     15  C   UNL     1       8.669   9.752  18.326  0.00  0.00    +0.000 C 
ATOM     16  C   UNL     1       7.986   8.507  17.787  0.00  0.00    +0.000 C 
ENDBRANCH  14  16
ENDBRANCH  12  14
ENDBRANCH  11  12
ENDBRANCH  10  11
ENDBRANCH   3  10
ENDBRANCH   1   9
BRANCH   2  17
ATOM     17  C   UNL     1       3.748   4.237  18.604  0.00  0.00    +0.000 A 
ATOM     18  N   UNL     1       3.259   5.506  18.663  0.00  0.00    +0.000 NA
ATOM     19  C   UNL     1       2.553   5.826  19.748  0.00  0.00    +0.000 A 
ATOM     20  N   UNL     1       2.274   5.048  20.792  0.00  0.00    +0.000 NA
ATOM     21  C   UNL     1       2.789   3.813  20.705  0.00  0.00    +0.000 A 
ATOM     22  C   UNL     1       3.527   3.356  19.643  0.00  0.00    +0.000 A 
BRANCH  22  23
ATOM     23  N   UNL     1       4.113   2.057  19.692  0.00  0.00    +0.000 N 
ATOM     24  O   UNL     1       4.961   1.850  20.574  0.00  0.00    +0.000 OA
ATOM     25  O   UNL     1       3.710   1.216  18.879  0.00  0.00    +0.000 OA
ENDBRANCH  22  23
BRANCH  19  26
ATOM     26  O   UNL     1       2.091   7.102  19.769  0.00  0.00    +0.000 OA
ATOM     27  H   UNL     1       1.407   7.013  20.454  0.00  0.00    +0.000 HD
ENDBRANCH  19  26
BRANCH  21  28
ATOM     28  O   UNL     1       2.470   3.047  21.780  0.00  0.00    +0.000 OA
ATOM     29  H   UNL     1       2.715   3.635  22.519  0.00  0.00    +0.000 HD
ENDBRANCH  21  28
ENDBRANCH   2  17
TORSDOF 10
ENDMDL
MODEL 3
REMARK VINA RESULT:      -7.4      3.942      7.130
REMARK  Name = 
REMARK  11 active torsions:
REMARK  status: ('A' for Active; 'I' for Inactive)
REMARK    1  A    between atoms: C_1  and  C_2
REMARK    2  A    between atoms: C_2  and  O_3
REMARK    3  A    between atoms: O_3  and  C_4
REMARK    4  A    between atoms: C_4  and  C_6
REMARK    5  A    between atoms: C_6  and  O_7
REMARK    6  A    between atoms: O_7  and  C_8
REMARK    7  A    between atoms: C_14  and  C_15
REMARK    8  A    between atoms: C_16  and  C_17
REMARK    9  A    between atoms: C_19  and  O_20
REMARK   10  A    between atoms: C_22  and  O_23
REMARK   11  A    between atoms: C_24  and  N_25
REMARK                            x       y       z     vdW  Elec       q    Type
REMARK                         _______ _______ _______ _____ _____    ______ ____
ROOT
ATOM      1  C   UNL     1       2.664   7.306  18.688  0.00  0.00    +0.000 C 
ATOM      2  C   UNL     1       1.627   8.113  18.388  0.00  0.00    +0.000 C 
ENDROOT
BRANCH   1   9
ATOM      3  C   UNL     1       3.932   5.469  17.423  0.00  0.00    +0.000 A 
ATOM      4  C   UNL     1       4.024   4.112  17.073  0.00  0.00    +0.000 A 
ATOM      5  C   UNL     1       3.094   3.188  17.552  0.00  0.00    +0.000 A 
ATOM      6  C   UNL     1       2.065   3.617  18.380  0.00  0.00    +0.000 A 
ATOM      7 BR   UNL     1       0.842   2.358  19.079  0.00  0.00    +0.000 Br
ATOM      8  C   UNL     1       1.943   4.966  18.713  0.00  0.00    +0.000 A 
ATOM      9  C   UNL     1       2.863   5.914  18.229  0.00  0.00    +0.000 A 
BRANCH   3  10
ATOM     10  O   UNL     1       4.883   6.394  17.083  0.00  0.00    +0.000 OA
BRANCH  10  11
ATOM     11  C   UNL     1       6.188   6.220  17.622  0.00  0.00    +0.000 C 
BRANCH  11  12
ATOM     12  C   UNL     1       7.021   5.370  16.685  0.00  0.00    +0.000 C 
ATOM     13  O   UNL     1       7.818   4.502  17.014  0.00  0.00    +0.000 OA
BRANCH  12  14
ATOM     14  O   UNL     1       6.789   5.780  15.402  0.00  0.00    +0.000 OA
BRANCH  14  16
ATOM     15  C   UNL     1       5.761   4.160  13.992  0.00  0.00    +0.000 C 
ATOM     16  C   UNL     1       7.078   4.795  14.402  0.00  0.00    +0.000 C 
ENDBRANCH  14  16
ENDBRANCH  12  14
ENDBRANCH  11  12
ENDBRANCH  10  11
ENDBRANCH   3  10
ENDBRANCH   1   9
BRANCH   2  17
ATOM     17  C   UNL     1       1.535   9.504  18.883  0.00  0.00    +0.000 A 
ATOM     18  N   UNL     1       1.988  10.442  18.008  0.00  0.00    +0.000 NA
ATOM     19  C   UNL     1       1.899  11.715  18.395  0.00  0.00    +0.000 A 
ATOM     20  N   UNL     1       1.424  12.180  19.548  0.00  0.00    +0.000 NA
ATOM     21  C   UNL     1       1.006  11.224  20.390  0.00  0.00    +0.000 A 
ATOM     22  C   UNL     1       1.036   9.881  20.113  0.00  0.00    +0.000 A 
BRANCH  22  23
ATOM     23  N   UNL     1       0.660   8.939  21.116  0.00  0.00    +0.000 N 
ATOM     24  O   UNL     1      -0.539   8.629  21.182  0.00  0.00    +0.000 OA
ATOM     25  O   UNL     1       1.559   8.470  21.825  0.00  0.00    +0.000 OA
ENDBRANCH  22  23
BRANCH  19  26
ATOM     26  O   UNL     1       2.368  12.617  17.495  0.00  0.00    +0.000 OA
ATOM     27  H   UNL     1       3.086  13.008  18.020  0.00  0.00    +0.000 HD
ENDBRANCH  19  26
BRANCH  21  28
ATOM     28  O   UNL     1       0.514  11.738  21.548  0.00  0.00    +0.000 OA
ATOM     29  H   UNL     1       1.182  11.438  22.194  0.00  0.00    +0.000 HD
ENDBRANCH  21  28
ENDBRANCH   2  17
TORSDOF 10
ENDMDL
MODEL 4
REMARK VINA RESULT:      -7.3      3.938      7.162
REMARK  Name = 
REMARK  11 active torsions:
REMARK  status: ('A' for Active; 'I' for Inactive)
REMARK    1  A    between atoms: C_1  and  C_2
REMARK    2  A    between atoms: C_2  and  O_3
REMARK    3  A    between atoms: O_3  and  C_4
REMARK    4  A    between atoms: C_4  and  C_6
REMARK    5  A    between atoms: C_6  and  O_7
REMARK    6  A    between atoms: O_7  and  C_8
REMARK    7  A    between atoms: C_14  and  C_15
REMARK    8  A    between atoms: C_16  and  C_17
REMARK    9  A    between atoms: C_19  and  O_20
REMARK   10  A    between atoms: C_22  and  O_23
REMARK   11  A    between atoms: C_24  and  N_25
REMARK                            x       y       z     vdW  Elec       q    Type
REMARK                         _______ _______ _______ _____ _____    ______ ____
ROOT
ATOM      1  C   UNL     1       2.547   7.141  18.386  0.00  0.00    +0.000 C 
ATOM      2  C   UNL     1       1.969   7.745  19.443  0.00  0.00    +0.000 C 
ENDROOT
BRANCH   1   9
ATOM      3  C   UNL     1       4.163   5.190  17.974  0.00  0.00    +0.000 A 
ATOM      4  C   UNL     1       4.359   3.802  17.908  0.00  0.00    +0.000 A 
ATOM      5  C   UNL     1       3.309   2.921  18.170  0.00  0.00    +0.000 A 
ATOM      6  C   UNL     1       2.057   3.424  18.496  0.00  0.00    +0.000 A 
ATOM      7 BR   UNL     1       0.651   2.233  18.911  0.00  0.00    +0.000 Br
ATOM      8  C   UNL     1       1.839   4.801  18.538  0.00  0.00    +0.000 A 
ATOM      9  C   UNL     1       2.881   5.705  18.263  0.00  0.00    +0.000 A 
BRANCH   3  10
ATOM     10  O   UNL     1       5.183   6.096  17.847  0.00  0.00    +0.000 OA
BRANCH  10  11
ATOM     11  C   UNL     1       6.509   5.621  18.045  0.00  0.00    +0.000 C 
BRANCH  11  12
ATOM     12  C   UNL     1       7.358   5.948  16.835  0.00  0.00    +0.000 C 
ATOM     13  O   UNL     1       7.782   7.053  16.526  0.00  0.00    +0.000 OA
BRANCH  12  14
ATOM     14  O   UNL     1       7.518   4.809  16.095  0.00  0.00    +0.000 OA
BRANCH  14  16
ATOM     15  C   UNL     1       5.817   4.085  14.595  0.00  0.00    +0.000 C 
ATOM     16  C   UNL     1       7.079   4.917  14.735  0.00  0.00    +0.000 C 
ENDBRANCH  14  16
ENDBRANCH  12  14
ENDBRANCH  11  12
ENDBRANCH  10  11
ENDBRANCH   3  10
ENDBRANCH   1   9
BRANCH   2  17
ATOM     17  C   UNL     1       1.655   9.191  19.457  0.00  0.00    +0.000 A 
ATOM     18  N   UNL     1       2.138   9.879  18.388  0.00  0.00    +0.000 NA
ATOM     19  C   UNL     1       1.856  11.182  18.338  0.00  0.00    +0.000 A 
ATOM     20  N   UNL     1       1.161  11.896  19.221  0.00  0.00    +0.000 NA
ATOM     21  C   UNL     1       0.719  11.185  20.269  0.00  0.00    +0.000 A 
ATOM     22  C   UNL     1       0.933   9.840  20.437  0.00  0.00    +0.000 A 
BRANCH  22  23
ATOM     23  N   UNL     1       0.507   9.197  21.637  0.00  0.00    +0.000 N 
ATOM     24  O   UNL     1       1.141   9.450  22.673  0.00  0.00    +0.000 OA
ATOM     25  O   UNL     1      -0.488   8.464  21.570  0.00  0.00    +0.000 OA
ENDBRANCH  22  23
BRANCH  19  26
ATOM     26  O   UNL     1       2.362  11.832  17.260  0.00  0.00    +0.000 OA
ATOM     27  H   UNL     1       2.156  12.748  17.512  0.00  0.00    +0.000 HD
ENDBRANCH  19  26
BRANCH  21  28
ATOM     28  O   UNL     1       0.002  11.943  21.139  0.00  0.00    +0.000 OA
ATOM     29  H   UNL     1      -0.004  12.807  20.686  0.00  0.00    +0.000 HD
ENDBRANCH  21  28
ENDBRANCH   2  17
TORSDOF 10
ENDMDL
MODEL 5
REMARK VINA RESULT:      -7.2      3.997      7.284
REMARK  Name = 
REMARK  11 active torsions:
REMARK  status: ('A' for Active; 'I' for Inactive)
REMARK    1  A    between atoms: C_1  and  C_2
REMARK    2  A    between atoms: C_2  and  O_3
REMARK    3  A    between atoms: O_3  and  C_4
REMARK    4  A    between atoms: C_4  and  C_6
REMARK    5  A    between atoms: C_6  and  O_7
REMARK    6  A    between atoms: O_7  and  C_8
REMARK    7  A    between atoms: C_14  and  C_15
REMARK    8  A    between atoms: C_16  and  C_17
REMARK    9  A    between atoms: C_19  and  O_20
REMARK   10  A    between atoms: C_22  and  O_23
REMARK   11  A    between atoms: C_24  and  N_25
REMARK                            x       y       z     vdW  Elec       q    Type
REMARK                         _______ _______ _______ _____ _____    ______ ____
ROOT
ATOM      1  C   UNL     1       2.435   7.142  17.988  0.00  0.00    +0.000 C 
ATOM      2  C   UNL     1       2.179   7.749  19.163  0.00  0.00    +0.000 C 
ENDROOT
BRANCH   1   9
ATOM      3  C   UNL     1       3.908   5.221  17.134  0.00  0.00    +0.000 A 
ATOM      4  C   UNL     1       4.110   3.836  17.025  0.00  0.00    +0.000 A 
ATOM      5  C   UNL     1       3.206   2.937  17.590  0.00  0.00    +0.000 A 
ATOM      6  C   UNL     1       2.092   3.417  18.265  0.00  0.00    +0.000 A 
ATOM      7 BR   UNL     1       0.900   2.202  19.085  0.00  0.00    +0.000 Br
ATOM      8  C   UNL     1       1.861   4.789  18.358  0.00  0.00    +0.000 A 
ATOM      9  C   UNL     1       2.754   5.711  17.783  0.00  0.00    +0.000 A 
BRANCH   3  10
ATOM     10  O   UNL     1       4.822   6.147  16.706  0.00  0.00    +0.000 OA
BRANCH  10  11
ATOM     11  C   UNL     1       5.848   5.696  15.830  0.00  0.00    +0.000 C 
BRANCH  11  12
ATOM     12  C   UNL     1       7.172   5.665  16.563  0.00  0.00    +0.000 C 
ATOM     13  O   UNL     1       7.727   4.670  17.010  0.00  0.00    +0.000 OA
BRANCH  12  14
ATOM     14  O   UNL     1       7.621   6.948  16.709  0.00  0.00    +0.000 OA
BRANCH  14  16
ATOM     15  C   UNL     1       8.187   8.816  18.073  0.00  0.00    +0.000 C 
ATOM     16  C   UNL     1       7.931   7.319  18.058  0.00  0.00    +0.000 C 
ENDBRANCH  14  16
ENDBRANCH  12  14
ENDBRANCH  11  12
ENDBRANCH  10  11
ENDBRANCH   3  10
ENDBRANCH   1   9
BRANCH   2  17
ATOM     17  C   UNL     1       1.846   9.188  19.257  0.00  0.00    +0.000 A 
ATOM     18  N   UNL     1       2.329   9.943  18.234  0.00  0.00    +0.000 NA
ATOM     19  C   UNL     1       2.031  11.243  18.256  0.00  0.00    +0.000 A 
ATOM     20  N   UNL     1       1.319  11.896  19.173  0.00  0.00    +0.000 NA
ATOM     21  C   UNL     1       0.878  11.120  20.174  0.00  0.00    +0.000 A 
ATOM     22  C   UNL     1       1.108   9.771  20.266  0.00  0.00    +0.000 A 
BRANCH  22  23
ATOM     23  N   UNL     1       0.679   9.055  21.423  0.00  0.00    +0.000 N 
ATOM     24  O   UNL     1       1.501   8.918  22.342  0.00  0.00    +0.000 OA
ATOM     25  O   UNL     1      -0.491   8.653  21.446  0.00  0.00    +0.000 OA
ENDBRANCH  22  23
BRANCH  19  26
ATOM     26  O   UNL     1       2.538  11.960  17.222  0.00  0.00    +0.000 OA
ATOM     27  H   UNL     1       2.033  12.784  17.335  0.00  0.00    +0.000 HD
ENDBRANCH  19  26
BRANCH  21  28
ATOM     28  O   UNL     1       0.144  11.818  21.079  0.00  0.00    +0.000 OA
ATOM     29  H   UNL     1      -0.020  11.140  21.762  0.00  0.00    +0.000 HD
ENDBRANCH  21  28
ENDBRANCH   2  17
TORSDOF 10
ENDMDL
MODEL 6
REMARK VINA RESULT:      -7.2      4.116      7.316
REMARK  Name = 
REMARK  11 active torsions:
REMARK  status: ('A' for Active; 'I' for Inactive)
REMARK    1  A    between atoms: C_1  and  C_2
REMARK    2  A    between atoms: C_2  and  O_3
REMARK    3  A    between atoms: O_3  and  C_4
REMARK    4  A    between atoms: C_4  and  C_6
REMARK    5  A    between atoms: C_6  and  O_7
REMARK    6  A    between atoms: O_7  and  C_8
REMARK    7  A    between atoms: C_14  and  C_15
REMARK    8  A    between atoms: C_16  and  C_17
REMARK    9  A    between atoms: C_19  and  O_20
REMARK   10  A    between atoms: C_22  and  O_23
REMARK   11  A    between atoms: C_24  and  N_25
REMARK                            x       y       z     vdW  Elec       q    Type
REMARK                         _______ _______ _______ _____ _____    ______ ____
ROOT
ATOM      1  C   UNL     1       2.388   7.137  18.744  0.00  0.00    +0.000 C 
ATOM      2  C   UNL     1       1.934   7.898  19.760  0.00  0.00    +0.000 C 
ENDROOT
BRANCH   1   9
ATOM      3  C   UNL     1       3.655   5.050  17.955  0.00  0.00    +0.000 A 
ATOM      4  C   UNL     1       3.915   3.681  18.127  0.00  0.00    +0.000 A 
ATOM      5  C   UNL     1       3.304   2.962  19.155  0.00  0.00    +0.000 A 
ATOM      6  C   UNL     1       2.427   3.609  20.015  0.00  0.00    +0.000 A 
ATOM      7 BR   UNL     1       1.647   2.653  21.446  0.00  0.00    +0.000 Br
ATOM      8  C   UNL     1       2.136   4.962  19.841  0.00  0.00    +0.000 A 
ATOM      9  C   UNL     1       2.732   5.699  18.802  0.00  0.00    +0.000 A 
BRANCH   3  10
ATOM     10  O   UNL     1       4.317   5.828  17.043  0.00  0.00    +0.000 OA
BRANCH  10  11
ATOM     11  C   UNL     1       5.148   5.165  16.098  0.00  0.00    +0.000 C 
BRANCH  11  12
ATOM     12  C   UNL     1       6.598   5.518  16.353  0.00  0.00    +0.000 C 
ATOM     13  O   UNL     1       7.545   4.743  16.331  0.00  0.00    +0.000 OA
BRANCH  12  14
ATOM     14  O   UNL     1       6.673   6.842  16.684  0.00  0.00    +0.000 OA
BRANCH  14  16
ATOM     15  C   UNL     1       7.938   8.595  17.684  0.00  0.00    +0.000 C 
ATOM     16  C   UNL     1       7.546   7.131  17.784  0.00  0.00    +0.000 C 
ENDBRANCH  14  16
ENDBRANCH  12  14
ENDBRANCH  11  12
ENDBRANCH  10  11
ENDBRANCH   3  10
ENDBRANCH   1   9
BRANCH   2  17
ATOM     17  C   UNL     1       1.596   9.328  19.591  0.00  0.00    +0.000 A 
ATOM     18  N   UNL     1       2.174   9.917  18.509  0.00  0.00    +0.000 NA
ATOM     19  C   UNL     1       1.877  11.200  18.296  0.00  0.00    +0.000 A 
ATOM     20  N   UNL     1       1.084  11.981  19.026  0.00  0.00    +0.000 NA
ATOM     21  C   UNL     1       0.549  11.369  20.093  0.00  0.00    +0.000 A 
ATOM     22  C   UNL     1       0.768  10.055  20.421  0.00  0.00    +0.000 A 
BRANCH  22  23
ATOM     23  N   UNL     1       0.231   9.527  21.633  0.00  0.00    +0.000 N 
ATOM     24  O   UNL     1      -0.634   8.644  21.533  0.00  0.00    +0.000 OA
ATOM     25  O   UNL     1       0.693   9.958  22.697  0.00  0.00    +0.000 OA
ENDBRANCH  22  23
BRANCH  19  26
ATOM     26  O   UNL     1       2.480  11.749  17.211  0.00  0.00    +0.000 OA
ATOM     27  H   UNL     1       1.714  11.808  16.615  0.00  0.00    +0.000 HD
ENDBRANCH  19  26
BRANCH  21  28
ATOM     28  O   UNL     1      -0.265  12.193  20.803  0.00  0.00    +0.000 OA
ATOM     29  H   UNL     1      -0.686  11.565  21.421  0.00  0.00    +0.000 HD
ENDBRANCH  21  28
ENDBRANCH   2  17
TORSDOF 10
ENDMDL
MODEL 7
REMARK VINA RESULT:      -7.2      4.196      7.399
REMARK  Name = 
REMARK  11 active torsions:
REMARK  status: ('A' for Active; 'I' for Inactive)
REMARK    1  A    between atoms: C_1  and  C_2
REMARK    2  A    between atoms: C_2  and  O_3
REMARK    3  A    between atoms: O_3  and  C_4
REMARK    4  A    between atoms: C_4  and  C_6
REMARK    5  A    between atoms: C_6  and  O_7
REMARK    6  A    between atoms: O_7  and  C_8
REMARK    7  A    between atoms: C_14  and  C_15
REMARK    8  A    between atoms: C_16  and  C_17
REMARK    9  A    between atoms: C_19  and  O_20
REMARK   10  A    between atoms: C_22  and  O_23
REMARK   11  A    between atoms: C_24  and  N_25
REMARK                            x       y       z     vdW  Elec       q    Type
REMARK                         _______ _______ _______ _____ _____    ______ ____
ROOT
ATOM      1  C   UNL     1       2.230   7.266  19.462  0.00  0.00    +0.000 C 
ATOM      2  C   UNL     1       1.658   7.938  20.481  0.00  0.00    +0.000 C 
ENDROOT
BRANCH   1   9
ATOM      3  C   UNL     1       3.937   5.456  18.832  0.00  0.00    +0.000 A 
ATOM      4  C   UNL     1       4.367   4.127  18.973  0.00  0.00    +0.000 A 
ATOM      5  C   UNL     1       3.686   3.242  19.809  0.00  0.00    +0.000 A 
ATOM      6  C   UNL     1       2.569   3.680  20.506  0.00  0.00    +0.000 A 
ATOM      7 BR   UNL     1       1.682   2.501  21.687  0.00  0.00    +0.000 Br
ATOM      8  C   UNL     1       2.110   4.988  20.355  0.00  0.00    +0.000 A 
ATOM      9  C   UNL     1       2.776   5.891  19.506  0.00  0.00    +0.000 A 
BRANCH   3  10
ATOM     10  O   UNL     1       4.635   6.397  18.123  0.00  0.00    +0.000 OA
BRANCH  10  11
ATOM     11  C   UNL     1       4.948   6.096  16.768  0.00  0.00    +0.000 C 
BRANCH  11  12
ATOM     12  C   UNL     1       6.448   5.976  16.602  0.00  0.00    +0.000 C 
ATOM     13  O   UNL     1       7.247   6.901  16.563  0.00  0.00    +0.000 OA
BRANCH  12  14
ATOM     14  O   UNL     1       6.764   4.657  16.431  0.00  0.00    +0.000 OA
BRANCH  14  16
ATOM     15  C   UNL     1       6.381   4.048  14.161  0.00  0.00    +0.000 C 
ATOM     16  C   UNL     1       5.861   3.935  15.584  0.00  0.00    +0.000 C 
ENDBRANCH  14  16
ENDBRANCH  12  14
ENDBRANCH  11  12
ENDBRANCH  10  11
ENDBRANCH   3  10
ENDBRANCH   1   9
BRANCH   2  17
ATOM     17  C   UNL     1       1.121   9.308  20.326  0.00  0.00    +0.000 A 
ATOM     18  N   UNL     1       1.541   9.951  19.203  0.00  0.00    +0.000 NA
ATOM     19  C   UNL     1       1.062  11.179  19.002  0.00  0.00    +0.000 A 
ATOM     20  N   UNL     1       0.222  11.859  19.779  0.00  0.00    +0.000 NA
ATOM     21  C   UNL     1      -0.153  11.199  20.884  0.00  0.00    +0.000 A 
ATOM     22  C   UNL     1       0.261   9.931  21.206  0.00  0.00    +0.000 A 
BRANCH  22  23
ATOM     23  N   UNL     1      -0.118   9.355  22.455  0.00  0.00    +0.000 N 
ATOM     24  O   UNL     1       0.319   9.895  23.484  0.00  0.00    +0.000 OA
ATOM     25  O   UNL     1      -0.883   8.384  22.428  0.00  0.00    +0.000 OA
ENDBRANCH  22  23
BRANCH  19  26
ATOM     26  O   UNL     1       1.512  11.787  17.874  0.00  0.00    +0.000 OA
ATOM     27  H   UNL     1       1.383  12.716  18.130  0.00  0.00    +0.000 HD
ENDBRANCH  19  26
BRANCH  21  28
ATOM     28  O   UNL     1      -1.021  11.918  21.643  0.00  0.00    +0.000 OA
ATOM     29  H   UNL     1      -0.462  12.156  22.406  0.00  0.00    +0.000 HD
ENDBRANCH  21  28
ENDBRANCH   2  17
TORSDOF 10
ENDMDL
MODEL 8
REMARK VINA RESULT:      -7.1      3.590      7.448
REMARK  Name = 
REMARK  11 active torsions:
REMARK  status: ('A' for Active; 'I' for Inactive)
REMARK    1  A    between atoms: C_1  and  C_2
REMARK    2  A    between atoms: C_2  and  O_3
REMARK    3  A    between atoms: O_3  and  C_4
REMARK    4  A    between atoms: C_4  and  C_6
REMARK    5  A    between atoms: C_6  and  O_7
REMARK    6  A    between atoms: O_7  and  C_8
REMARK    7  A    between atoms: C_14  and  C_15
REMARK    8  A    between atoms: C_16  and  C_17
REMARK    9  A    between atoms: C_19  and  O_20
REMARK   10  A    between atoms: C_22  and  O_23
REMARK   11  A    between atoms: C_24  and  N_25
REMARK                            x       y       z     vdW  Elec       q    Type
REMARK                         _______ _______ _______ _____ _____    ______ ____
ROOT
ATOM      1  C   UNL     1       4.514   4.494  16.848  0.00  0.00    +0.000 C 
ATOM      2  C   UNL     1       4.816   4.608  18.156  0.00  0.00    +0.000 C 
ENDROOT
BRANCH   1   9
ATOM      3  C   UNL     1       6.709   5.231  15.740  0.00  0.00    +0.000 A 
ATOM      4  C   UNL     1       7.528   5.217  14.600  0.00  0.00    +0.000 A 
ATOM      5  C   UNL     1       7.142   4.524  13.453  0.00  0.00    +0.000 A 
ATOM      6  C   UNL     1       5.932   3.844  13.438  0.00  0.00    +0.000 A 
ATOM      7 BR   UNL     1       5.436   2.853  11.907  0.00  0.00    +0.000 Br
ATOM      8  C   UNL     1       5.093   3.871  14.551  0.00  0.00    +0.000 A 
ATOM      9  C   UNL     1       5.459   4.576  15.712  0.00  0.00    +0.000 A 
BRANCH   3  10
ATOM     10  O   UNL     1       7.091   5.791  16.930  0.00  0.00    +0.000 OA
BRANCH  10  11
ATOM     11  C   UNL     1       6.918   7.195  17.078  0.00  0.00    +0.000 C 
BRANCH  11  12
ATOM     12  C   UNL     1       7.944   7.739  18.050  0.00  0.00    +0.000 C 
ATOM     13  O   UNL     1       8.420   7.144  19.008  0.00  0.00    +0.000 OA
BRANCH  12  14
ATOM     14  O   UNL     1       8.206   9.041  17.724  0.00  0.00    +0.000 OA
BRANCH  14  16
ATOM     15  C   UNL     1       9.114  11.188  18.212  0.00  0.00    +0.000 C 
ATOM     16  C   UNL     1       8.935   9.768  18.721  0.00  0.00    +0.000 C 
ENDBRANCH  14  16
ENDBRANCH  12  14
ENDBRANCH  11  12
ENDBRANCH  10  11
ENDBRANCH   3  10
ENDBRANCH   1   9
BRANCH   2  17
ATOM     17  C   UNL     1       3.795   4.487  19.220  0.00  0.00    +0.000 A 
ATOM     18  N   UNL     1       3.201   5.662  19.564  0.00  0.00    +0.000 NA
ATOM     19  C   UNL     1       2.252   5.603  20.499  0.00  0.00    +0.000 A 
ATOM     20  N   UNL     1       1.819   4.523  21.147  0.00  0.00    +0.000 NA
ATOM     21  C   UNL     1       2.443   3.390  20.794  0.00  0.00    +0.000 A 
ATOM     22  C   UNL     1       3.429   3.312  19.844  0.00  0.00    +0.000 A 
BRANCH  22  23
ATOM     23  N   UNL     1       4.098   2.074  19.613  0.00  0.00    +0.000 N 
ATOM     24  O   UNL     1       4.992   1.755  20.411  0.00  0.00    +0.000 OA
ATOM     25  O   UNL     1       3.715   1.387  18.658  0.00  0.00    +0.000 OA
ENDBRANCH  22  23
BRANCH  19  26
ATOM     26  O   UNL     1       1.691   6.797  20.816  0.00  0.00    +0.000 OA
ATOM     27  H   UNL     1       1.846   7.273  19.983  0.00  0.00    +0.000 HD
ENDBRANCH  19  26
BRANCH  21  28
ATOM     28  O   UNL     1       1.963   2.310  21.466  0.00  0.00    +0.000 OA
ATOM     29  H   UNL     1       1.664   2.716  22.301  0.00  0.00    +0.000 HD
ENDBRANCH  21  28
ENDBRANCH   2  17
TORSDOF 10
ENDMDL
MODEL 9
REMARK VINA RESULT:      -7.1      4.265      7.465
REMARK  Name = 
REMARK  11 active torsions:
REMARK  status: ('A' for Active; 'I' for Inactive)
REMARK    1  A    between atoms: C_1  and  C_2
REMARK    2  A    between atoms: C_2  and  O_3
REMARK    3  A    between atoms: O_3  and  C_4
REMARK    4  A    between atoms: C_4  and  C_6
REMARK    5  A    between atoms: C_6  and  O_7
REMARK    6  A    between atoms: O_7  and  C_8
REMARK    7  A    between atoms: C_14  and  C_15
REMARK    8  A    between atoms: C_16  and  C_17
REMARK    9  A    between atoms: C_19  and  O_20
REMARK   10  A    between atoms: C_22  and  O_23
REMARK   11  A    between atoms: C_24  and  N_25
REMARK                            x       y       z     vdW  Elec       q    Type
REMARK                         _______ _______ _______ _____ _____    ______ ____
ROOT
ATOM      1  C   UNL     1       2.220   7.442  19.630  0.00  0.00    +0.000 C 
ATOM      2  C   UNL     1       1.287   7.904  20.485  0.00  0.00    +0.000 C 
ENDROOT
BRANCH   1   9
ATOM      3  C   UNL     1       3.834   5.647  18.759  0.00  0.00    +0.000 A 
ATOM      4  C   UNL     1       4.257   4.309  18.798  0.00  0.00    +0.000 A 
ATOM      5  C   UNL     1       3.644   3.392  19.652  0.00  0.00    +0.000 A 
ATOM      6  C   UNL     1       2.602   3.807  20.470  0.00  0.00    +0.000 A 
ATOM      7 BR   UNL     1       1.812   2.583  21.673  0.00  0.00    +0.000 Br
ATOM      8  C   UNL     1       2.151   5.126  20.423  0.00  0.00    +0.000 A 
ATOM      9  C   UNL     1       2.747   6.062  19.559  0.00  0.00    +0.000 A 
BRANCH   3  10
ATOM     10  O   UNL     1       4.476   6.614  18.032  0.00  0.00    +0.000 OA
BRANCH  10  11
ATOM     11  C   UNL     1       5.830   6.369  17.671  0.00  0.00    +0.000 C 
BRANCH  11  12
ATOM     12  C   UNL     1       5.974   6.408  16.164  0.00  0.00    +0.000 C 
ATOM     13  O   UNL     1       5.185   6.910  15.375  0.00  0.00    +0.000 OA
BRANCH  12  14
ATOM     14  O   UNL     1       7.105   5.723  15.816  0.00  0.00    +0.000 OA
BRANCH  14  16
ATOM     15  C   UNL     1       6.146   3.641  15.169  0.00  0.00    +0.000 C 
ATOM     16  C   UNL     1       6.945   4.842  14.696  0.00  0.00    +0.000 C 
ENDBRANCH  14  16
ENDBRANCH  12  14
ENDBRANCH  11  12
ENDBRANCH  10  11
ENDBRANCH   3  10
ENDBRANCH   1   9
BRANCH   2  17
ATOM     17  C   UNL     1       0.810   9.305  20.458  0.00  0.00    +0.000 A 
ATOM     18  N   UNL     1       0.549   9.785  19.213  0.00  0.00    +0.000 NA
ATOM     19  C   UNL     1       0.089  11.034  19.136  0.00  0.00    +0.000 A 
ATOM     20  N   UNL     1      -0.141  11.876  20.142  0.00  0.00    +0.000 NA
ATOM     21  C   UNL     1       0.146  11.373  21.351  0.00  0.00    +0.000 A 
ATOM     22  C   UNL     1       0.619  10.103  21.567  0.00  0.00    +0.000 A 
BRANCH  22  23
ATOM     23  N   UNL     1       0.988   9.697  22.884  0.00  0.00    +0.000 N 
ATOM     24  O   UNL     1       2.184   9.432  23.083  0.00  0.00    +0.000 OA
ATOM     25  O   UNL     1       0.099   9.675  23.745  0.00  0.00    +0.000 OA
ENDBRANCH  22  23
BRANCH  19  26
ATOM     26  O   UNL     1      -0.151  11.475  17.875  0.00  0.00    +0.000 OA
ATOM     27  H   UNL     1       0.695  11.240  17.459  0.00  0.00    +0.000 HD
ENDBRANCH  19  26
BRANCH  21  28
ATOM     28  O   UNL     1      -0.115  12.255  22.350  0.00  0.00    +0.000 OA
ATOM     29  H   UNL     1       0.098  11.723  23.140  0.00  0.00    +0.000 HD
ENDBRANCH  21  28
ENDBRANCH   2  17
TORSDOF 10
ENDMDL
