MODEL 1
REMARK VINA RESULT:      -7.2      0.000      0.000
REMARK  Name = 
REMARK  9 active torsions:
REMARK  status: ('A' for Active; 'I' for Inactive)
REMARK    1  A    between atoms: C_2  and  C_3
REMARK    2  A    between atoms: C_3  and  N_4
REMARK    3  A    between atoms: N_4  and  C_15
REMARK    4  A    between atoms: C_5  and  O_7
REMARK    5  A    between atoms: O_7  and  C_8
REMARK    6  A    between atoms: N_11  and  C_12
REMARK    7  A    between atoms: C_15  and  C_16
REMARK    8  A    between atoms: C_15  and  C_17
REMARK    9  A    between atoms: C_17  and  C_18
REMARK                            x       y       z     vdW  Elec       q    Type
REMARK                         _______ _______ _______ _____ _____    ______ ____
ROOT
ATOM      1  N   UNL     1       3.314   4.126  19.025  0.00  0.00    +0.000 N 
ATOM      2  C   UNL     1       2.557   5.263  18.787  0.00  0.00    +0.000 C 
ATOM      3  O   UNL     1       1.692   5.329  17.918  0.00  0.00    +0.000 OA
ENDROOT
BRANCH   1   4
ATOM      4  C   UNL     1       3.740   3.285  17.894  0.00  0.00    +0.000 C 
ATOM      5  C   UNL     1       2.602   2.428  17.337  0.00  0.00    +0.000 C 
BRANCH   4   6
ATOM      6  C   UNL     1       4.432   4.088  16.755  0.00  0.00    +0.000 C 
BRANCH   6   7
ATOM      7  C   UNL     1       5.535   5.047  17.167  0.00  0.00    +0.000 A 
ATOM      8  C   UNL     1       5.517   6.408  16.834  0.00  0.00    +0.000 A 
ATOM      9  C   UNL     1       6.558   7.255  17.226  0.00  0.00    +0.000 A 
ATOM     10  C   UNL     1       7.619   6.759  17.979  0.00  0.00    +0.000 A 
ATOM     11  C   UNL     1       7.635   5.418  18.351  0.00  0.00    +0.000 A 
ATOM     12  C   UNL     1       6.599   4.569  17.952  0.00  0.00    +0.000 A 
ENDBRANCH   6   7
ENDBRANCH   4   6
ENDBRANCH   1   4
BRANCH   1  13
ATOM     13  C   UNL     1       3.512   3.582  20.369  0.00  0.00    +0.000 C 
BRANCH  13  15
ATOM     14  C   UNL     1       1.337   2.689  21.638  0.00  0.00    +0.000 C 
ATOM     15  C   UNL     1       2.315   3.089  21.059  0.00  0.00    +0.000 C 
ENDBRANCH  13  15
ENDBRANCH   1  13
BRANCH   2  16
ATOM     16  O   UNL     1       3.012   6.325  19.530  0.00  0.00    +0.000 OA
BRANCH  16  17
ATOM     17  C   UNL     1       2.386   7.580  19.368  0.00  0.00    +0.000 C 
ATOM     18  C   UNL     1       1.566   8.052  20.309  0.00  0.00    +0.000 C 
ATOM     19  C   UNL     1       0.719   9.272  20.144  0.00  0.00    +0.000 C 
ATOM     20  N   UNL     1       0.764   9.956  18.858  0.00  0.00    +0.000 NA
ATOM     21  C   UNL     1      -0.537  10.174  18.252  0.00  0.00    +0.000 C 
ATOM     22  C   UNL     1       1.817   9.594  17.912  0.00  0.00    +0.000 C 
ATOM     23  C   UNL     1       2.521   8.232  18.035  0.00  0.00    +0.000 C 
ENDBRANCH  16  17
ENDBRANCH   2  16
TORSDOF 7
ENDMDL
MODEL 2
REMARK VINA RESULT:      -7.2      2.318      3.551
REMARK  Name = 
REMARK  9 active torsions:
REMARK  status: ('A' for Active; 'I' for Inactive)
REMARK    1  A    between atoms: C_2  and  C_3
REMARK    2  A    between atoms: C_3  and  N_4
REMARK    3  A    between atoms: N_4  and  C_15
REMARK    4  A    between atoms: C_5  and  O_7
REMARK    5  A    between atoms: O_7  and  C_8
REMARK    6  A    between atoms: N_11  and  C_12
REMARK    7  A    between atoms: C_15  and  C_16
REMARK    8  A    between atoms: C_15  and  C_17
REMARK    9  A    between atoms: C_17  and  C_18
REMARK                            x       y       z     vdW  Elec       q    Type
REMARK                         _______ _______ _______ _____ _____    ______ ____
ROOT
ATOM      1  N   UNL     1       4.455   5.090  17.883  0.00  0.00    +0.000 N 
ATOM      2  C   UNL     1       3.155   5.300  18.319  0.00  0.00    +0.000 C 
ATOM      3  O   UNL     1       2.165   4.914  17.703  0.00  0.00    +0.000 OA
ENDROOT
BRANCH   1   4
ATOM      4  C   UNL     1       4.758   5.156  16.443  0.00  0.00    +0.000 C 
ATOM      5  C   UNL     1       5.092   6.574  15.976  0.00  0.00    +0.000 C 
BRANCH   4   6
ATOM      6  C   UNL     1       5.864   4.156  16.000  0.00  0.00    +0.000 C 
BRANCH   6   7
ATOM      7  C   UNL     1       6.328   4.244  14.557  0.00  0.00    +0.000 A 
ATOM      8  C   UNL     1       7.427   5.018  14.161  0.00  0.00    +0.000 A 
ATOM      9  C   UNL     1       7.813   5.078  12.819  0.00  0.00    +0.000 A 
ATOM     10  C   UNL     1       7.124   4.346  11.857  0.00  0.00    +0.000 A 
ATOM     11  C   UNL     1       6.053   3.542  12.237  0.00  0.00    +0.000 A 
ATOM     12  C   UNL     1       5.661   3.488  13.578  0.00  0.00    +0.000 A 
ENDBRANCH   6   7
ENDBRANCH   4   6
ENDBRANCH   1   4
BRANCH   1  13
ATOM     13  C   UNL     1       5.502   4.566  18.760  0.00  0.00    +0.000 C 
BRANCH  13  15
ATOM     14  C   UNL     1       7.714   6.047  18.981  0.00  0.00    +0.000 C 
ATOM     15  C   UNL     1       6.721   5.373  18.880  0.00  0.00    +0.000 C 
ENDBRANCH  13  15
ENDBRANCH   1  13
BRANCH   2  16
ATOM     16  O   UNL     1       3.130   6.119  19.421  0.00  0.00    +0.000 OA
BRANCH  16  17
ATOM     17  C   UNL     1       2.530   7.392  19.302  0.00  0.00    +0.000 C 
ATOM     18  C   UNL     1       1.753   7.866  20.278  0.00  0.00    +0.000 C 
ATOM     19  C   UNL     1       0.931   9.108  20.164  0.00  0.00    +0.000 C 
ATOM     20  N   UNL     1       0.951   9.815  18.890  0.00  0.00    +0.000 NA
ATOM     21  C   UNL     1      -0.363  10.076  18.332  0.00  0.00    +0.000 C 
ATOM     22  C   UNL     1       1.964   9.446  17.903  0.00  0.00    +0.000 C 
ATOM     23  C   UNL     1       2.638   8.066  17.978  0.00  0.00    +0.000 C 
ENDBRANCH  16  17
ENDBRANCH   2  16
TORSDOF 7
ENDMDL
MODEL 3
REMARK VINA RESULT:      -7.2      2.370      3.808
REMARK  Name = 
REMARK  9 active torsions:
REMARK  status: ('A' for Active; 'I' for Inactive)
REMARK    1  A    between atoms: C_2  and  C_3
REMARK    2  A    between atoms: C_3  and  N_4
REMARK    3  A    between atoms: N_4  and  C_15
REMARK    4  A    between atoms: C_5  and  O_7
REMARK    5  A    between atoms: O_7  and  C_8
REMARK    6  A    between atoms: N_11  and  C_12
REMARK    7  A    between atoms: C_15  and  C_16
REMARK    8  A    between atoms: C_15  and  C_17
REMARK    9  A    between atoms: C_17  and  C_18
REMARK                            x       y       z     vdW  Elec       q    Type
REMARK                         _______ _______ _______ _____ _____    ______ ____
ROOT
ATOM      1  N   UNL     1       4.516   5.260  17.868  0.00  0.00    +0.000 N 
ATOM      2  C   UNL     1       3.218   5.455  18.317  0.00  0.00    +0.000 C 
ATOM      3  O   UNL     1       2.230   4.997  17.750  0.00  0.00    +0.000 OA
ENDROOT
BRANCH   1   4
ATOM      4  C   UNL     1       4.788   5.241  16.421  0.00  0.00    +0.000 C 
ATOM      5  C   UNL     1       5.040   6.637  15.850  0.00  0.00    +0.000 C 
BRANCH   4   6
ATOM      6  C   UNL     1       5.936   4.268  16.023  0.00  0.00    +0.000 C 
BRANCH   6   7
ATOM      7  C   UNL     1       6.329   4.238  14.556  0.00  0.00    +0.000 A 
ATOM      8  C   UNL     1       5.639   3.475  13.604  0.00  0.00    +0.000 A 
ATOM      9  C   UNL     1       6.041   3.469  12.265  0.00  0.00    +0.000 A 
ATOM     10  C   UNL     1       7.121   4.244  11.853  0.00  0.00    +0.000 A 
ATOM     11  C   UNL     1       7.794   5.037  12.778  0.00  0.00    +0.000 A 
ATOM     12  C   UNL     1       7.398   5.037  14.118  0.00  0.00    +0.000 A 
ENDBRANCH   6   7
ENDBRANCH   4   6
ENDBRANCH   1   4
BRANCH   1  13
ATOM     13  C   UNL     1       5.597   4.829  18.754  0.00  0.00    +0.000 C 
BRANCH  13  15
ATOM     14  C   UNL     1       7.815   6.317  18.762  0.00  0.00    +0.000 C 
ATOM     15  C   UNL     1       6.812   5.650  18.752  0.00  0.00    +0.000 C 
ENDBRANCH  13  15
ENDBRANCH   1  13
BRANCH   2  16
ATOM     16  O   UNL     1       3.187   6.344  19.364  0.00  0.00    +0.000 OA
BRANCH  16  17
ATOM     17  C   UNL     1       2.316   7.452  19.282  0.00  0.00    +0.000 C 
ATOM     18  C   UNL     1       2.246   8.174  18.161  0.00  0.00    +0.000 C 
ATOM     19  C   UNL     1       1.502   9.465  18.043  0.00  0.00    +0.000 C 
ATOM     20  N   UNL     1       0.852   9.980  19.241  0.00  0.00    +0.000 NA
ATOM     21  C   UNL     1       1.204  11.351  19.566  0.00  0.00    +0.000 C 
ATOM     22  C   UNL     1       0.723   9.099  20.399  0.00  0.00    +0.000 C 
ATOM     23  C   UNL     1       1.656   7.885  20.545  0.00  0.00    +0.000 C 
ENDBRANCH  16  17
ENDBRANCH   2  16
TORSDOF 7
ENDMDL
MODEL 4
REMARK VINA RESULT:      -7.2      3.575      7.287
REMARK  Name = 
REMARK  9 active torsions:
REMARK  status: ('A' for Active; 'I' for Inactive)
REMARK    1  A    between atoms: C_2  and  C_3
REMARK    2  A    between atoms: C_3  and  N_4
REMARK    3  A    between atoms: N_4  and  C_15
REMARK    4  A    between atoms: C_5  and  O_7
REMARK    5  A    between atoms: O_7  and  C_8
REMARK    6  A    between atoms: N_11  and  C_12
REMARK    7  A    between atoms: C_15  and  C_16
REMARK    8  A    between atoms: C_15  and  C_17
REMARK    9  A    between atoms: C_17  and  C_18
REMARK                            x       y       z     vdW  Elec       q    Type
REMARK                         _______ _______ _______ _____ _____    ______ ____
ROOT
ATOM      1  N   UNL     1       6.002   5.470  17.212  0.00  0.00    +0.000 N 
ATOM      2  C   UNL     1       6.063   6.048  15.953  0.00  0.00    +0.000 C 
ATOM      3  O   UNL     1       5.187   6.781  15.502  0.00  0.00    +0.000 OA
ENDROOT
BRANCH   1   4
ATOM      4  C   UNL     1       4.706   5.009  17.738  0.00  0.00    +0.000 C 
ATOM      5  C   UNL     1       4.259   3.680  17.125  0.00  0.00    +0.000 C 
BRANCH   4   6
ATOM      6  C   UNL     1       4.660   4.941  19.292  0.00  0.00    +0.000 C 
BRANCH   6   7
ATOM      7  C   UNL     1       3.438   4.287  19.912  0.00  0.00    +0.000 A 
ATOM      8  C   UNL     1       3.492   3.045  20.560  0.00  0.00    +0.000 A 
ATOM      9  C   UNL     1       2.341   2.474  21.109  0.00  0.00    +0.000 A 
ATOM     10  C   UNL     1       1.124   3.147  21.042  0.00  0.00    +0.000 A 
ATOM     11  C   UNL     1       1.059   4.397  20.435  0.00  0.00    +0.000 A 
ATOM     12  C   UNL     1       2.208   4.965  19.878  0.00  0.00    +0.000 A 
ENDBRANCH   6   7
ENDBRANCH   4   6
ENDBRANCH   1   4
BRANCH   1  13
ATOM     13  C   UNL     1       7.123   5.512  18.151  0.00  0.00    +0.000 C 
BRANCH  13  15
ATOM     14  C   UNL     1       8.342   7.867  18.466  0.00  0.00    +0.000 C 
ATOM     15  C   UNL     1       7.786   6.808  18.323  0.00  0.00    +0.000 C 
ENDBRANCH  13  15
ENDBRANCH   1  13
BRANCH   2  16
ATOM     16  O   UNL     1       7.134   5.566  15.240  0.00  0.00    +0.000 OA
BRANCH  16  17
ATOM     17  C   UNL     1       6.887   4.914  14.012  0.00  0.00    +0.000 C 
ATOM     18  C   UNL     1       5.933   3.985  13.920  0.00  0.00    +0.000 C 
ATOM     19  C   UNL     1       5.725   3.114  12.724  0.00  0.00    +0.000 C 
ATOM     20  N   UNL     1       6.655   3.264  11.612  0.00  0.00    +0.000 NA
ATOM     21  C   UNL     1       7.274   2.023  11.181  0.00  0.00    +0.000 C 
ATOM     22  C   UNL     1       7.548   4.421  11.600  0.00  0.00    +0.000 C 
ATOM     23  C   UNL     1       7.862   5.159  12.912  0.00  0.00    +0.000 C 
ENDBRANCH  16  17
ENDBRANCH   2  16
TORSDOF 7
ENDMDL
MODEL 5
REMARK VINA RESULT:      -7.1      0.627      1.618
REMARK  Name = 
REMARK  9 active torsions:
REMARK  status: ('A' for Active; 'I' for Inactive)
REMARK    1  A    between atoms: C_2  and  C_3
REMARK    2  A    between atoms: C_3  and  N_4
REMARK    3  A    between atoms: N_4  and  C_15
REMARK    4  A    between atoms: C_5  and  O_7
REMARK    5  A    between atoms: O_7  and  C_8
REMARK    6  A    between atoms: N_11  and  C_12
REMARK    7  A    between atoms: C_15  and  C_16
REMARK    8  A    between atoms: C_15  and  C_17
REMARK    9  A    between atoms: C_17  and  C_18
REMARK                            x       y       z     vdW  Elec       q    Type
REMARK                         _______ _______ _______ _____ _____    ______ ____
ROOT
ATOM      1  N   UNL     1       3.285   4.280  19.040  0.00  0.00    +0.000 N 
ATOM      2  C   UNL     1       2.552   5.386  18.635  0.00  0.00    +0.000 C 
ATOM      3  O   UNL     1       1.705   5.348  17.747  0.00  0.00    +0.000 OA
ENDROOT
BRANCH   1   4
ATOM      4  C   UNL     1       3.716   3.288  18.041  0.00  0.00    +0.000 C 
ATOM      5  C   UNL     1       2.552   2.462  17.491  0.00  0.00    +0.000 C 
BRANCH   4   6
ATOM      6  C   UNL     1       4.551   3.903  16.881  0.00  0.00    +0.000 C 
BRANCH   6   7
ATOM      7  C   UNL     1       5.614   4.917  17.266  0.00  0.00    +0.000 A 
ATOM      8  C   UNL     1       6.704   4.594  18.086  0.00  0.00    +0.000 A 
ATOM      9  C   UNL     1       7.655   5.562  18.423  0.00  0.00    +0.000 A 
ATOM     10  C   UNL     1       7.545   6.858  17.927  0.00  0.00    +0.000 A 
ATOM     11  C   UNL     1       6.489   7.185  17.082  0.00  0.00    +0.000 A 
ATOM     12  C   UNL     1       5.533   6.221  16.751  0.00  0.00    +0.000 A 
ENDBRANCH   6   7
ENDBRANCH   4   6
ENDBRANCH   1   4
BRANCH   1  13
ATOM     13  C   UNL     1       3.447   3.919  20.449  0.00  0.00    +0.000 C 
BRANCH  13  15
ATOM     14  C   UNL     1       1.355   2.740  21.618  0.00  0.00    +0.000 C 
ATOM     15  C   UNL     1       2.303   3.268  21.095  0.00  0.00    +0.000 C 
ENDBRANCH  13  15
ENDBRANCH   1  13
BRANCH   2  16
ATOM     16  O   UNL     1       3.013   6.531  19.239  0.00  0.00    +0.000 OA
BRANCH  16  17
ATOM     17  C   UNL     1       2.114   7.605  19.421  0.00  0.00    +0.000 C 
ATOM     18  C   UNL     1       1.999   8.554  18.489  0.00  0.00    +0.000 C 
ATOM     19  C   UNL     1       1.221   9.817  18.674  0.00  0.00    +0.000 C 
ATOM     20  N   UNL     1       0.592  10.037  19.969  0.00  0.00    +0.000 NA
ATOM     21  C   UNL     1       0.920  11.312  20.582  0.00  0.00    +0.000 C 
ATOM     22  C   UNL     1       0.513   8.919  20.907  0.00  0.00    +0.000 C 
ATOM     23  C   UNL     1       1.478   7.731  20.762  0.00  0.00    +0.000 C 
ENDBRANCH  16  17
ENDBRANCH   2  16
TORSDOF 7
ENDMDL
MODEL 6
REMARK VINA RESULT:      -7.1      3.584      7.294
REMARK  Name = 
REMARK  9 active torsions:
REMARK  status: ('A' for Active; 'I' for Inactive)
REMARK    1  A    between atoms: C_2  and  C_3
REMARK    2  A    between atoms: C_3  and  N_4
REMARK    3  A    between atoms: N_4  and  C_15
REMARK    4  A    between atoms: C_5  and  O_7
REMARK    5  A    between atoms: O_7  and  C_8
REMARK    6  A    between atoms: N_11  and  C_12
REMARK    7  A    between atoms: C_15  and  C_16
REMARK    8  A    between atoms: C_15  and  C_17
REMARK    9  A    between atoms: C_17  and  C_18
REMARK                            x       y       z     vdW  Elec       q    Type
REMARK                         _______ _______ _______ _____ _____    ______ ____
ROOT
ATOM      1  N   UNL     1       6.073   6.008  17.347  0.00  0.00    +0.000 N 
ATOM      2  C   UNL     1       6.056   6.203  15.974  0.00  0.00    +0.000 C 
ATOM      3  O   UNL     1       5.147   6.783  15.385  0.00  0.00    +0.000 OA
ENDROOT
BRANCH   1   4
ATOM      4  C   UNL     1       4.815   5.724  18.057  0.00  0.00    +0.000 C 
ATOM      5  C   UNL     1       3.780   6.838  17.891  0.00  0.00    +0.000 C 
BRANCH   4   6
ATOM      6  C   UNL     1       4.199   4.342  17.692  0.00  0.00    +0.000 C 
BRANCH   6   7
ATOM      7  C   UNL     1       3.055   3.852  18.562  0.00  0.00    +0.000 A 
ATOM      8  C   UNL     1       1.883   3.298  18.029  0.00  0.00    +0.000 A 
ATOM      9  C   UNL     1       0.851   2.867  18.867  0.00  0.00    +0.000 A 
ATOM     10  C   UNL     1       0.985   2.959  20.249  0.00  0.00    +0.000 A 
ATOM     11  C   UNL     1       2.157   3.471  20.797  0.00  0.00    +0.000 A 
ATOM     12  C   UNL     1       3.186   3.910  19.960  0.00  0.00    +0.000 A 
ENDBRANCH   6   7
ENDBRANCH   4   6
ENDBRANCH   1   4
BRANCH   1  13
ATOM     13  C   UNL     1       7.246   6.309  18.168  0.00  0.00    +0.000 C 
BRANCH  13  15
ATOM     14  C   UNL     1       8.260   8.772  17.965  0.00  0.00    +0.000 C 
ATOM     15  C   UNL     1       7.799   7.662  18.050  0.00  0.00    +0.000 C 
ENDBRANCH  13  15
ENDBRANCH   1  13
BRANCH   2  16
ATOM     16  O   UNL     1       7.089   5.532  15.367  0.00  0.00    +0.000 OA
BRANCH  16  17
ATOM     17  C   UNL     1       6.846   4.899  14.128  0.00  0.00    +0.000 C 
ATOM     18  C   UNL     1       5.916   3.946  14.028  0.00  0.00    +0.000 C 
ATOM     19  C   UNL     1       5.718   3.095  12.816  0.00  0.00    +0.000 C 
ATOM     20  N   UNL     1       6.630   3.293  11.697  0.00  0.00    +0.000 NA
ATOM     21  C   UNL     1       7.277   2.079  11.233  0.00  0.00    +0.000 C 
ATOM     22  C   UNL     1       7.492   4.474  11.699  0.00  0.00    +0.000 C 
ATOM     23  C   UNL     1       7.800   5.193  13.023  0.00  0.00    +0.000 C 
ENDBRANCH  16  17
ENDBRANCH   2  16
TORSDOF 7
ENDMDL
MODEL 7
REMARK VINA RESULT:      -7.1      2.346      3.860
REMARK  Name = 
REMARK  9 active torsions:
REMARK  status: ('A' for Active; 'I' for Inactive)
REMARK    1  A    between atoms: C_2  and  C_3
REMARK    2  A    between atoms: C_3  and  N_4
REMARK    3  A    between atoms: N_4  and  C_15
REMARK    4  A    between atoms: C_5  and  O_7
REMARK    5  A    between atoms: O_7  and  C_8
REMARK    6  A    between atoms: N_11  and  C_12
REMARK    7  A    between atoms: C_15  and  C_16
REMARK    8  A    between atoms: C_15  and  C_17
REMARK    9  A    between atoms: C_17  and  C_18
REMARK                            x       y       z     vdW  Elec       q    Type
REMARK                         _______ _______ _______ _____ _____    ______ ____
ROOT
ATOM      1  N   UNL     1       4.644   5.386  17.953  0.00  0.00    +0.000 N 
ATOM      2  C   UNL     1       3.363   5.452  18.481  0.00  0.00    +0.000 C 
ATOM      3  O   UNL     1       2.409   4.832  18.020  0.00  0.00    +0.000 OA
ENDROOT
BRANCH   1   4
ATOM      4  C   UNL     1       4.825   5.289  16.495  0.00  0.00    +0.000 C 
ATOM      5  C   UNL     1       5.035   6.653  15.835  0.00  0.00    +0.000 C 
BRANCH   4   6
ATOM      6  C   UNL     1       5.948   4.297  16.078  0.00  0.00    +0.000 C 
BRANCH   6   7
ATOM      7  C   UNL     1       6.361   4.307  14.617  0.00  0.00    +0.000 A 
ATOM      8  C   UNL     1       7.437   5.069  14.140  0.00  0.00    +0.000 A 
ATOM      9  C   UNL     1       7.777   5.056  12.784  0.00  0.00    +0.000 A 
ATOM     10  C   UNL     1       7.065   4.262  11.890  0.00  0.00    +0.000 A 
ATOM     11  C   UNL     1       6.018   3.470  12.352  0.00  0.00    +0.000 A 
ATOM     12  C   UNL     1       5.672   3.489  13.706  0.00  0.00    +0.000 A 
ENDBRANCH   6   7
ENDBRANCH   4   6
ENDBRANCH   1   4
BRANCH   1  13
ATOM     13  C   UNL     1       5.826   5.164  18.786  0.00  0.00    +0.000 C 
BRANCH  13  15
ATOM     14  C   UNL     1       7.907   6.790  18.383  0.00  0.00    +0.000 C 
ATOM     15  C   UNL     1       6.966   6.058  18.558  0.00  0.00    +0.000 C 
ENDBRANCH  13  15
ENDBRANCH   1  13
BRANCH   2  16
ATOM     16  O   UNL     1       3.283   6.408  19.464  0.00  0.00    +0.000 OA
BRANCH  16  17
ATOM     17  C   UNL     1       2.386   7.484  19.286  0.00  0.00    +0.000 C 
ATOM     18  C   UNL     1       2.344   8.144  18.127  0.00  0.00    +0.000 C 
ATOM     19  C   UNL     1       1.570   9.403  17.908  0.00  0.00    +0.000 C 
ATOM     20  N   UNL     1       0.856   9.962  19.048  0.00  0.00    +0.000 NA
ATOM     21  C   UNL     1       1.155  11.357  19.314  0.00  0.00    +0.000 C 
ATOM     22  C   UNL     1       0.701   9.139  20.246  0.00  0.00    +0.000 C 
ATOM     23  C   UNL     1       1.661   7.963  20.496  0.00  0.00    +0.000 C 
ENDBRANCH  16  17
ENDBRANCH   2  16
TORSDOF 7
ENDMDL
MODEL 8
REMARK VINA RESULT:      -7.1      2.270      3.026
REMARK  Name = 
REMARK  9 active torsions:
REMARK  status: ('A' for Active; 'I' for Inactive)
REMARK    1  A    between atoms: C_2  and  C_3
REMARK    2  A    between atoms: C_3  and  N_4
REMARK    3  A    between atoms: N_4  and  C_15
REMARK    4  A    between atoms: C_5  and  O_7
REMARK    5  A    between atoms: O_7  and  C_8
REMARK    6  A    between atoms: N_11  and  C_12
REMARK    7  A    between atoms: C_15  and  C_16
REMARK    8  A    between atoms: C_15  and  C_17
REMARK    9  A    between atoms: C_17  and  C_18
REMARK                            x       y       z     vdW  Elec       q    Type
REMARK                         _______ _______ _______ _____ _____    ______ ____
ROOT
ATOM      1  N   UNL     1       4.230   5.058  17.948  0.00  0.00    +0.000 N 
ATOM      2  C   UNL     1       2.919   5.331  18.308  0.00  0.00    +0.000 C 
ATOM      3  O   UNL     1       1.952   5.050  17.604  0.00  0.00    +0.000 OA
ENDROOT
BRANCH   1   4
ATOM      4  C   UNL     1       4.639   5.184  16.539  0.00  0.00    +0.000 C 
ATOM      5  C   UNL     1       4.952   6.629  16.143  0.00  0.00    +0.000 C 
BRANCH   4   6
ATOM      6  C   UNL     1       5.814   4.241  16.151  0.00  0.00    +0.000 C 
BRANCH   6   7
ATOM      7  C   UNL     1       6.234   4.237  14.692  0.00  0.00    +0.000 A 
ATOM      8  C   UNL     1       5.529   3.537  13.703  0.00  0.00    +0.000 A 
ATOM      9  C   UNL     1       5.957   3.553  12.373  0.00  0.00    +0.000 A 
ATOM     10  C   UNL     1       7.081   4.289  12.006  0.00  0.00    +0.000 A 
ATOM     11  C   UNL     1       7.771   5.020  12.968  0.00  0.00    +0.000 A 
ATOM     12  C   UNL     1       7.349   4.997  14.300  0.00  0.00    +0.000 A 
ENDBRANCH   6   7
ENDBRANCH   4   6
ENDBRANCH   1   4
BRANCH   1  13
ATOM     13  C   UNL     1       5.177   4.414  18.860  0.00  0.00    +0.000 C 
BRANCH  13  15
ATOM     14  C   UNL     1       4.315   2.208  20.095  0.00  0.00    +0.000 C 
ATOM     15  C   UNL     1       4.711   3.202  19.539  0.00  0.00    +0.000 C 
ENDBRANCH  13  15
ENDBRANCH   1  13
BRANCH   2  16
ATOM     16  O   UNL     1       2.868   6.087  19.454  0.00  0.00    +0.000 OA
BRANCH  16  17
ATOM     17  C   UNL     1       2.340   7.394  19.377  0.00  0.00    +0.000 C 
ATOM     18  C   UNL     1       1.657   7.907  20.403  0.00  0.00    +0.000 C 
ATOM     19  C   UNL     1       0.906   9.198  20.345  0.00  0.00    +0.000 C 
ATOM     20  N   UNL     1       0.888   9.911  19.075  0.00  0.00    +0.000 NA
ATOM     21  C   UNL     1      -0.441  10.254  18.602  0.00  0.00    +0.000 C 
ATOM     22  C   UNL     1       1.812   9.488  18.024  0.00  0.00    +0.000 C 
ATOM     23  C   UNL     1       2.405   8.070  18.052  0.00  0.00    +0.000 C 
ENDBRANCH  16  17
ENDBRANCH   2  16
TORSDOF 7
ENDMDL
MODEL 9
REMARK VINA RESULT:      -7.0      2.245      3.012
REMARK  Name = 
REMARK  9 active torsions:
REMARK  status: ('A' for Active; 'I' for Inactive)
REMARK    1  A    between atoms: C_2  and  C_3
REMARK    2  A    between atoms: C_3  and  N_4
REMARK    3  A    between atoms: N_4  and  C_15
REMARK    4  A    between atoms: C_5  and  O_7
REMARK    5  A    between atoms: O_7  and  C_8
REMARK    6  A    between atoms: N_11  and  C_12
REMARK    7  A    between atoms: C_15  and  C_16
REMARK    8  A    between atoms: C_15  and  C_17
REMARK    9  A    between atoms: C_17  and  C_18
REMARK                            x       y       z     vdW  Elec       q    Type
REMARK                         _______ _______ _______ _____ _____    ______ ____
ROOT
ATOM      1  N   UNL     1       4.213   5.131  17.983  0.00  0.00    +0.000 N 
ATOM      2  C   UNL     1       2.895   5.397  18.326  0.00  0.00    +0.000 C 
ATOM      3  O   UNL     1       1.939   5.110  17.611  0.00  0.00    +0.000 OA
ENDROOT
BRANCH   1   4
ATOM      4  C   UNL     1       4.638   5.259  16.579  0.00  0.00    +0.000 C 
ATOM      5  C   UNL     1       4.934   6.707  16.182  0.00  0.00    +0.000 C 
BRANCH   4   6
ATOM      6  C   UNL     1       5.832   4.332  16.209  0.00  0.00    +0.000 C 
BRANCH   6   7
ATOM      7  C   UNL     1       6.273   4.332  14.756  0.00  0.00    +0.000 A 
ATOM      8  C   UNL     1       7.400   5.036  14.308  0.00  0.00    +0.000 A 
ATOM      9  C   UNL     1       7.765   5.016  12.959  0.00  0.00    +0.000 A 
ATOM     10  C   UNL     1       7.026   4.274  12.043  0.00  0.00    +0.000 A 
ATOM     11  C   UNL     1       5.926   3.539  12.476  0.00  0.00    +0.000 A 
ATOM     12  C   UNL     1       5.555   3.565  13.823  0.00  0.00    +0.000 A 
ENDBRANCH   6   7
ENDBRANCH   4   6
ENDBRANCH   1   4
BRANCH   1  13
ATOM     13  C   UNL     1       5.151   4.493  18.906  0.00  0.00    +0.000 C 
BRANCH  13  15
ATOM     14  C   UNL     1       4.351   2.204  20.027  0.00  0.00    +0.000 C 
ATOM     15  C   UNL     1       4.710   3.240  19.528  0.00  0.00    +0.000 C 
ENDBRANCH  13  15
ENDBRANCH   1  13
BRANCH   2  16
ATOM     16  O   UNL     1       2.827   6.152  19.472  0.00  0.00    +0.000 OA
BRANCH  16  17
ATOM     17  C   UNL     1       2.299   7.459  19.387  0.00  0.00    +0.000 C 
ATOM     18  C   UNL     1       1.626   7.983  20.414  0.00  0.00    +0.000 C 
ATOM     19  C   UNL     1       0.875   9.273  20.351  0.00  0.00    +0.000 C 
ATOM     20  N   UNL     1       0.845   9.973  19.073  0.00  0.00    +0.000 NA
ATOM     21  C   UNL     1      -0.489  10.312  18.611  0.00  0.00    +0.000 C 
ATOM     22  C   UNL     1       1.757   9.540  18.017  0.00  0.00    +0.000 C 
ATOM     23  C   UNL     1       2.349   8.121  18.054  0.00  0.00    +0.000 C 
ENDBRANCH  16  17
ENDBRANCH   2  16
TORSDOF 7
ENDMDL
