MODEL 1
REMARK VINA RESULT:      -6.9      0.000      0.000
REMARK  Name = 
REMARK  3 active torsions:
REMARK  status: ('A' for Active; 'I' for Inactive)
REMARK    1  A    between atoms: C_1  and  C_2
REMARK    2  A    between atoms: C_9  and  N_10
REMARK    3  A    between atoms: N_13  and  O_14
REMARK                            x       y       z     vdW  Elec       q    Type
REMARK                         _______ _______ _______ _____ _____    ______ ____
ROOT
ATOM      1  C   UNL     1       2.441   7.303  18.456  0.00  0.00    +0.000 C 
ATOM      2  C   UNL     1       2.836   5.925  17.993  0.00  0.00    +0.000 A 
ATOM      3  C   UNL     1       1.885   4.895  18.046  0.00  0.00    +0.000 A 
ATOM      4  C   UNL     1       2.196   3.615  17.593  0.00  0.00    +0.000 A 
ATOM      5  C   UNL     1       3.460   3.348  17.077  0.00  0.00    +0.000 A 
ATOM      6  C   UNL     1       4.430   4.354  17.025  0.00  0.00    +0.000 A 
ATOM      7  C   UNL     1       4.129   5.648  17.498  0.00  0.00    +0.000 A 
ATOM      8  C   UNL     1       5.163   6.742  17.344  0.00  0.00    +0.000 C 
ATOM      9  C   UNL     1       6.595   6.210  17.352  0.00  0.00    +0.000 C 
ATOM     10  C   UNL     1       6.754   4.983  16.447  0.00  0.00    +0.000 C 
ATOM     11  O   UNL     1       7.788   4.744  15.815  0.00  0.00    +0.000 OA
ATOM     12  N   UNL     1       5.697   4.103  16.474  0.00  0.00    +0.000 N 
ENDROOT
BRANCH   9  13
ATOM     13  N   UNL     1       7.552   7.272  16.957  0.00  0.00    +0.000 NA
ATOM     14  H   UNL     1       8.299   6.854  16.400  0.00  0.00    +0.000 HD
ATOM     15  H   UNL     1       8.028   7.586  17.809  0.00  0.00    +0.000 HD
ENDBRANCH   9  13
BRANCH  12  16
ATOM     16  O   UNL     1       5.872   2.887  15.772  0.00  0.00    +0.000 OA
ATOM     17  H   UNL     1       5.432   3.088  14.920  0.00  0.00    +0.000 HD
ENDBRANCH  12  16
TORSDOF 2
ENDMDL
MODEL 2
REMARK VINA RESULT:      -6.5      2.683      4.313
REMARK  Name = 
REMARK  3 active torsions:
REMARK  status: ('A' for Active; 'I' for Inactive)
REMARK    1  A    between atoms: C_1  and  C_2
REMARK    2  A    between atoms: C_9  and  N_10
REMARK    3  A    between atoms: N_13  and  O_14
REMARK                            x       y       z     vdW  Elec       q    Type
REMARK                         _______ _______ _______ _____ _____    ______ ____
ROOT
ATOM      1  C   UNL     1       3.289   7.739  17.820  0.00  0.00    +0.000 C 
ATOM      2  C   UNL     1       3.812   6.403  17.363  0.00  0.00    +0.000 A 
ATOM      3  C   UNL     1       4.847   6.369  16.417  0.00  0.00    +0.000 A 
ATOM      4  C   UNL     1       5.386   5.156  15.994  0.00  0.00    +0.000 A 
ATOM      5  C   UNL     1       4.901   3.960  16.516  0.00  0.00    +0.000 A 
ATOM      6  C   UNL     1       3.862   3.967  17.451  0.00  0.00    +0.000 A 
ATOM      7  C   UNL     1       3.298   5.189  17.871  0.00  0.00    +0.000 A 
ATOM      8  C   UNL     1       2.239   5.174  18.952  0.00  0.00    +0.000 C 
ATOM      9  C   UNL     1       1.426   3.881  18.968  0.00  0.00    +0.000 C 
ATOM     10  C   UNL     1       2.321   2.642  18.866  0.00  0.00    +0.000 C 
ATOM     11  O   UNL     1       2.057   1.574  19.429  0.00  0.00    +0.000 OA
ATOM     12  N   UNL     1       3.389   2.767  18.009  0.00  0.00    +0.000 N 
ENDROOT
BRANCH   9  13
ATOM     13  N   UNL     1       0.578   3.809  20.182  0.00  0.00    +0.000 NA
ATOM     14  H   UNL     1       0.182   2.871  20.254  0.00  0.00    +0.000 HD
ATOM     15  H   UNL     1      -0.238   4.409  20.021  0.00  0.00    +0.000 HD
ENDBRANCH   9  13
BRANCH  12  16
ATOM     16  O   UNL     1       4.148   1.597  17.771  0.00  0.00    +0.000 OA
ATOM     17  H   UNL     1       3.570   0.906  18.158  0.00  0.00    +0.000 HD
ENDBRANCH  12  16
TORSDOF 2
ENDMDL
MODEL 3
REMARK VINA RESULT:      -6.5      2.955      4.280
REMARK  Name = 
REMARK  3 active torsions:
REMARK  status: ('A' for Active; 'I' for Inactive)
REMARK    1  A    between atoms: C_1  and  C_2
REMARK    2  A    between atoms: C_9  and  N_10
REMARK    3  A    between atoms: N_13  and  O_14
REMARK                            x       y       z     vdW  Elec       q    Type
REMARK                         _______ _______ _______ _____ _____    ______ ____
ROOT
ATOM      1  C   UNL     1       1.353   7.398  20.477  0.00  0.00    +0.000 C 
ATOM      2  C   UNL     1       2.385   6.835  19.536  0.00  0.00    +0.000 A 
ATOM      3  C   UNL     1       2.812   7.618  18.453  0.00  0.00    +0.000 A 
ATOM      4  C   UNL     1       3.792   7.151  17.580  0.00  0.00    +0.000 A 
ATOM      5  C   UNL     1       4.363   5.898  17.781  0.00  0.00    +0.000 A 
ATOM      6  C   UNL     1       3.946   5.093  18.845  0.00  0.00    +0.000 A 
ATOM      7  C   UNL     1       2.942   5.550  19.723  0.00  0.00    +0.000 A 
ATOM      8  C   UNL     1       2.575   4.702  20.921  0.00  0.00    +0.000 C 
ATOM      9  C   UNL     1       2.797   3.209  20.681  0.00  0.00    +0.000 C 
ATOM     10  C   UNL     1       4.158   2.931  20.034  0.00  0.00    +0.000 C 
ATOM     11  O   UNL     1       4.821   1.916  20.273  0.00  0.00    +0.000 OA
ATOM     12  N   UNL     1       4.541   3.842  19.077  0.00  0.00    +0.000 N 
ENDROOT
BRANCH   9  13
ATOM     13  N   UNL     1       2.661   2.448  21.947  0.00  0.00    +0.000 NA
ATOM     14  H   UNL     1       1.670   2.337  22.161  0.00  0.00    +0.000 HD
ATOM     15  H   UNL     1       3.011   3.046  22.702  0.00  0.00    +0.000 HD
ENDBRANCH   9  13
BRANCH  12  16
ATOM     16  O   UNL     1       5.715   3.536  18.349  0.00  0.00    +0.000 OA
ATOM     17  H   UNL     1       6.065   4.431  18.158  0.00  0.00    +0.000 HD
ENDBRANCH  12  16
TORSDOF 2
ENDMDL
MODEL 4
REMARK VINA RESULT:      -6.4      1.898      2.085
REMARK  Name = 
REMARK  3 active torsions:
REMARK  status: ('A' for Active; 'I' for Inactive)
REMARK    1  A    between atoms: C_1  and  C_2
REMARK    2  A    between atoms: C_9  and  N_10
REMARK    3  A    between atoms: N_13  and  O_14
REMARK                            x       y       z     vdW  Elec       q    Type
REMARK                         _______ _______ _______ _____ _____    ______ ____
ROOT
ATOM      1  C   UNL     1       2.514   8.395  17.656  0.00  0.00    +0.000 C 
ATOM      2  C   UNL     1       2.837   7.158  18.451  0.00  0.00    +0.000 A 
ATOM      3  C   UNL     1       1.891   6.676  19.367  0.00  0.00    +0.000 A 
ATOM      4  C   UNL     1       2.134   5.513  20.096  0.00  0.00    +0.000 A 
ATOM      5  C   UNL     1       3.324   4.815  19.915  0.00  0.00    +0.000 A 
ATOM      6  C   UNL     1       4.288   5.281  19.017  0.00  0.00    +0.000 A 
ATOM      7  C   UNL     1       4.059   6.467  18.289  0.00  0.00    +0.000 A 
ATOM      8  C   UNL     1       5.076   6.900  17.255  0.00  0.00    +0.000 C 
ATOM      9  C   UNL     1       6.494   6.438  17.589  0.00  0.00    +0.000 C 
ATOM     10  C   UNL     1       6.530   4.966  18.014  0.00  0.00    +0.000 C 
ATOM     11  O   UNL     1       7.478   4.216  17.758  0.00  0.00    +0.000 OA
ATOM     12  N   UNL     1       5.477   4.564  18.802  0.00  0.00    +0.000 N 
ENDROOT
BRANCH   9  13
ATOM     13  N   UNL     1       7.405   6.668  16.442  0.00  0.00    +0.000 NA
ATOM     14  H   UNL     1       6.871   6.593  15.575  0.00  0.00    +0.000 HD
ATOM     15  H   UNL     1       8.052   5.874  16.402  0.00  0.00    +0.000 HD
ENDBRANCH   9  13
BRANCH  12  16
ATOM     16  O   UNL     1       5.554   3.258  19.340  0.00  0.00    +0.000 OA
ATOM     17  H   UNL     1       4.671   3.165  19.756  0.00  0.00    +0.000 HD
ENDBRANCH  12  16
TORSDOF 2
ENDMDL
MODEL 5
REMARK VINA RESULT:      -6.3      2.008      3.333
REMARK  Name = 
REMARK  3 active torsions:
REMARK  status: ('A' for Active; 'I' for Inactive)
REMARK    1  A    between atoms: C_1  and  C_2
REMARK    2  A    between atoms: C_9  and  N_10
REMARK    3  A    between atoms: N_13  and  O_14
REMARK                            x       y       z     vdW  Elec       q    Type
REMARK                         _______ _______ _______ _____ _____    ______ ____
ROOT
ATOM      1  C   UNL     1       3.294   2.298  17.572  0.00  0.00    +0.000 C 
ATOM      2  C   UNL     1       4.098   3.550  17.807  0.00  0.00    +0.000 A 
ATOM      3  C   UNL     1       3.946   4.233  19.023  0.00  0.00    +0.000 A 
ATOM      4  C   UNL     1       4.698   5.374  19.298  0.00  0.00    +0.000 A 
ATOM      5  C   UNL     1       5.616   5.843  18.363  0.00  0.00    +0.000 A 
ATOM      6  C   UNL     1       5.777   5.188  17.139  0.00  0.00    +0.000 A 
ATOM      7  C   UNL     1       5.007   4.043  16.845  0.00  0.00    +0.000 A 
ATOM      8  C   UNL     1       5.267   3.298  15.554  0.00  0.00    +0.000 C 
ATOM      9  C   UNL     1       5.795   4.203  14.442  0.00  0.00    +0.000 C 
ATOM     10  C   UNL     1       6.912   5.126  14.939  0.00  0.00    +0.000 C 
ATOM     11  O   UNL     1       7.863   5.473  14.230  0.00  0.00    +0.000 OA
ATOM     12  N   UNL     1       6.725   5.634  16.203  0.00  0.00    +0.000 N 
ENDROOT
BRANCH   9  13
ATOM     13  N   UNL     1       6.263   3.398  13.288  0.00  0.00    +0.000 NA
ATOM     14  H   UNL     1       6.406   4.017  12.489  0.00  0.00    +0.000 HD
ATOM     15  H   UNL     1       5.484   2.798  12.998  0.00  0.00    +0.000 HD
ENDBRANCH   9  13
BRANCH  12  16
ATOM     16  O   UNL     1       7.655   6.608  16.636  0.00  0.00    +0.000 OA
ATOM     17  H   UNL     1       7.524   7.315  15.969  0.00  0.00    +0.000 HD
ENDBRANCH  12  16
TORSDOF 2
ENDMDL
MODEL 6
REMARK VINA RESULT:      -6.3      3.525      4.785
REMARK  Name = 
REMARK  3 active torsions:
REMARK  status: ('A' for Active; 'I' for Inactive)
REMARK    1  A    between atoms: C_1  and  C_2
REMARK    2  A    between atoms: C_9  and  N_10
REMARK    3  A    between atoms: N_13  and  O_14
REMARK                            x       y       z     vdW  Elec       q    Type
REMARK                         _______ _______ _______ _____ _____    ______ ____
ROOT
ATOM      1  C   UNL     1       5.464   5.426  15.917  0.00  0.00    +0.000 C 
ATOM      2  C   UNL     1       4.432   5.737  16.968  0.00  0.00    +0.000 A 
ATOM      3  C   UNL     1       4.075   7.075  17.191  0.00  0.00    +0.000 A 
ATOM      4  C   UNL     1       3.097   7.405  18.127  0.00  0.00    +0.000 A 
ATOM      5  C   UNL     1       2.459   6.401  18.849  0.00  0.00    +0.000 A 
ATOM      6  C   UNL     1       2.806   5.061  18.655  0.00  0.00    +0.000 A 
ATOM      7  C   UNL     1       3.807   4.719  17.723  0.00  0.00    +0.000 A 
ATOM      8  C   UNL     1       4.097   3.257  17.462  0.00  0.00    +0.000 C 
ATOM      9  C   UNL     1       3.807   2.370  18.673  0.00  0.00    +0.000 C 
ATOM     10  C   UNL     1       2.453   2.699  19.310  0.00  0.00    +0.000 C 
ATOM     11  O   UNL     1       1.734   1.844  19.837  0.00  0.00    +0.000 OA
ATOM     12  N   UNL     1       2.143   4.038  19.354  0.00  0.00    +0.000 N 
ENDROOT
BRANCH   9  13
ATOM     13  N   UNL     1       3.870   0.936  18.300  0.00  0.00    +0.000 NA
ATOM     14  H   UNL     1       4.536   0.464  18.912  0.00  0.00    +0.000 HD
ATOM     15  H   UNL     1       4.305   0.881  17.373  0.00  0.00    +0.000 HD
ENDBRANCH   9  13
BRANCH  12  16
ATOM     16  O   UNL     1       0.976   4.392  20.071  0.00  0.00    +0.000 OA
ATOM     17  H   UNL     1       0.730   5.237  19.640  0.00  0.00    +0.000 HD
ENDBRANCH  12  16
TORSDOF 2
ENDMDL
MODEL 7
REMARK VINA RESULT:      -6.3      2.930      4.429
REMARK  Name = 
REMARK  3 active torsions:
REMARK  status: ('A' for Active; 'I' for Inactive)
REMARK    1  A    between atoms: C_1  and  C_2
REMARK    2  A    between atoms: C_9  and  N_10
REMARK    3  A    between atoms: N_13  and  O_14
REMARK                            x       y       z     vdW  Elec       q    Type
REMARK                         _______ _______ _______ _____ _____    ______ ____
ROOT
ATOM      1  C   UNL     1       2.675   8.024  17.788  0.00  0.00    +0.000 C 
ATOM      2  C   UNL     1       3.671   6.895  17.810  0.00  0.00    +0.000 A 
ATOM      3  C   UNL     1       4.884   7.049  17.123  0.00  0.00    +0.000 A 
ATOM      4  C   UNL     1       5.850   6.045  17.149  0.00  0.00    +0.000 A 
ATOM      5  C   UNL     1       5.617   4.875  17.866  0.00  0.00    +0.000 A 
ATOM      6  C   UNL     1       4.411   4.692  18.549  0.00  0.00    +0.000 A 
ATOM      7  C   UNL     1       3.421   5.695  18.513  0.00  0.00    +0.000 A 
ATOM      8  C   UNL     1       2.164   5.514  19.336  0.00  0.00    +0.000 C 
ATOM      9  C   UNL     1       1.795   4.045  19.538  0.00  0.00    +0.000 C 
ATOM     10  C   UNL     1       3.008   3.201  19.942  0.00  0.00    +0.000 C 
ATOM     11  O   UNL     1       2.929   2.234  20.707  0.00  0.00    +0.000 OA
ATOM     12  N   UNL     1       4.181   3.529  19.303  0.00  0.00    +0.000 N 
ENDROOT
BRANCH   9  13
ATOM     13  N   UNL     1       0.712   3.909  20.542  0.00  0.00    +0.000 NA
ATOM     14  H   UNL     1      -0.072   3.413  20.118  0.00  0.00    +0.000 HD
ATOM     15  H   UNL     1       0.342   4.848  20.721  0.00  0.00    +0.000 HD
ENDBRANCH   9  13
BRANCH  12  16
ATOM     16  O   UNL     1       5.286   2.676  19.535  0.00  0.00    +0.000 OA
ATOM     17  H   UNL     1       5.024   1.876  19.033  0.00  0.00    +0.000 HD
ENDBRANCH  12  16
TORSDOF 2
ENDMDL
MODEL 8
REMARK VINA RESULT:      -6.2      2.730      4.336
REMARK  Name = 
REMARK  3 active torsions:
REMARK  status: ('A' for Active; 'I' for Inactive)
REMARK    1  A    between atoms: C_1  and  C_2
REMARK    2  A    between atoms: C_9  and  N_10
REMARK    3  A    between atoms: N_13  and  O_14
REMARK                            x       y       z     vdW  Elec       q    Type
REMARK                         _______ _______ _______ _____ _____    ______ ____
ROOT
ATOM      1  C   UNL     1       7.516   5.818  18.879  0.00  0.00    +0.000 C 
ATOM      2  C   UNL     1       6.583   5.174  17.888  0.00  0.00    +0.000 A 
ATOM      3  C   UNL     1       7.095   4.752  16.652  0.00  0.00    +0.000 A 
ATOM      4  C   UNL     1       6.275   4.117  15.721  0.00  0.00    +0.000 A 
ATOM      5  C   UNL     1       4.934   3.890  16.016  0.00  0.00    +0.000 A 
ATOM      6  C   UNL     1       4.397   4.313  17.235  0.00  0.00    +0.000 A 
ATOM      7  C   UNL     1       5.214   4.973  18.176  0.00  0.00    +0.000 A 
ATOM      8  C   UNL     1       4.633   5.336  19.524  0.00  0.00    +0.000 C 
ATOM      9  C   UNL     1       3.126   5.585  19.473  0.00  0.00    +0.000 C 
ATOM     10  C   UNL     1       2.394   4.499  18.679  0.00  0.00    +0.000 C 
ATOM     11  O   UNL     1       1.255   4.112  18.962  0.00  0.00    +0.000 OA
ATOM     12  N   UNL     1       3.052   4.059  17.555  0.00  0.00    +0.000 N 
ENDROOT
BRANCH   9  13
ATOM     13  N   UNL     1       2.565   5.694  20.841  0.00  0.00    +0.000 NA
ATOM     14  H   UNL     1       2.362   6.675  21.038  0.00  0.00    +0.000 HD
ATOM     15  H   UNL     1       3.316   5.461  21.499  0.00  0.00    +0.000 HD
ENDBRANCH   9  13
BRANCH  12  16
ATOM     16  O   UNL     1       2.342   3.170  16.714  0.00  0.00    +0.000 OA
ATOM     17  H   UNL     1       2.862   2.346  16.816  0.00  0.00    +0.000 HD
ENDBRANCH  12  16
TORSDOF 2
ENDMDL
MODEL 9
REMARK VINA RESULT:      -6.2      1.342      1.342
REMARK  Name = 
REMARK  3 active torsions:
REMARK  status: ('A' for Active; 'I' for Inactive)
REMARK    1  A    between atoms: C_1  and  C_2
REMARK    2  A    between atoms: C_9  and  N_10
REMARK    3  A    between atoms: N_13  and  O_14
REMARK                            x       y       z     vdW  Elec       q    Type
REMARK                         _______ _______ _______ _____ _____    ______ ____
ROOT
ATOM      1  C   UNL     1       2.571   6.297  20.059  0.00  0.00    +0.000 C 
ATOM      2  C   UNL     1       2.898   5.284  18.994  0.00  0.00    +0.000 A 
ATOM      3  C   UNL     1       1.853   4.552  18.412  0.00  0.00    +0.000 A 
ATOM      4  C   UNL     1       2.107   3.632  17.397  0.00  0.00    +0.000 A 
ATOM      5  C   UNL     1       3.409   3.435  16.947  0.00  0.00    +0.000 A 
ATOM      6  C   UNL     1       4.470   4.142  17.520  0.00  0.00    +0.000 A 
ATOM      7  C   UNL     1       4.225   5.062  18.561  0.00  0.00    +0.000 A 
ATOM      8  C   UNL     1       5.376   5.883  19.099  0.00  0.00    +0.000 C 
ATOM      9  C   UNL     1       6.721   5.170  18.975  0.00  0.00    +0.000 C 
ATOM     10  C   UNL     1       6.912   4.547  17.588  0.00  0.00    +0.000 C 
ATOM     11  O   UNL     1       8.013   4.471  17.032  0.00  0.00    +0.000 OA
ATOM     12  N   UNL     1       5.783   3.975  17.050  0.00  0.00    +0.000 N 
ENDROOT
BRANCH   9  13
ATOM     13  N   UNL     1       7.837   6.097  19.284  0.00  0.00    +0.000 NA
ATOM     14  H   UNL     1       7.928   6.771  18.523  0.00  0.00    +0.000 HD
ATOM     15  H   UNL     1       8.706   5.555  19.238  0.00  0.00    +0.000 HD
ENDBRANCH   9  13
BRANCH  12  16
ATOM     16  O   UNL     1       5.954   3.257  15.843  0.00  0.00    +0.000 OA
ATOM     17  H   UNL     1       5.198   2.634  15.876  0.00  0.00    +0.000 HD
ENDBRANCH  12  16
TORSDOF 2
ENDMDL
