MODEL 1
REMARK VINA RESULT:      -8.1      0.000      0.000
REMARK  Name = 
REMARK  6 active torsions:
REMARK  status: ('A' for Active; 'I' for Inactive)
REMARK    1  A    between atoms: C_1  and  C_2
REMARK    2  A    between atoms: C_2  and  C_3
REMARK    3  A    between atoms: C_8  and  N_9
REMARK    4  A    between atoms: C_10  and  C_12
REMARK    5  A    between atoms: N_21  and  S_22
REMARK    6  A    between atoms: S_22  and  C_23
REMARK                            x       y       z     vdW  Elec       q    Type
REMARK                         _______ _______ _______ _____ _____    ______ ____
ROOT
ATOM      1  C   UNL     1       2.383   7.595  18.817  0.00  0.00    +0.000 A 
ATOM      2  C   UNL     1       2.069   8.610  17.917  0.00  0.00    +0.000 A 
ATOM      3  C   UNL     1       1.218   9.654  18.330  0.00  0.00    +0.000 A 
ATOM      4  C   UNL     1       0.710   9.740  19.651  0.00  0.00    +0.000 A 
ATOM      5  C   UNL     1       1.133   8.754  20.549  0.00  0.00    +0.000 A 
ATOM      6  C   UNL     1       1.882   7.647  20.105  0.00  0.00    +0.000 A 
ATOM      7  C   UNL     1       1.014   8.892  22.022  0.00  0.00    +0.000 C 
ATOM      8  C   UNL     1       0.061   9.940  22.530  0.00  0.00    +0.000 C 
ATOM      9  C   UNL     1      -0.389  11.020  21.570  0.00  0.00    +0.000 C 
ATOM     10  N   UNL     1      -0.082  10.851  20.122  0.00  0.00    +0.000 N 
ENDROOT
BRANCH   1  12
ATOM     11  N   UNL     1       3.823   6.468  17.251  0.00  0.00    +0.000 N 
ATOM     12  C   UNL     1       3.352   6.506  18.551  0.00  0.00    +0.000 C 
ATOM     13  O   UNL     1       3.713   5.834  19.509  0.00  0.00    +0.000 OA
ATOM     14  H   UNL     1       3.401   7.118  16.601  0.00  0.00    +0.000 HD
BRANCH  11  20
ATOM     15  C   UNL     1       6.229   6.212  16.857  0.00  0.00    +0.000 A 
ATOM     16  C   UNL     1       7.309   5.422  16.401  0.00  0.00    +0.000 A 
ATOM     17  C   UNL     1       7.099   4.183  15.802  0.00  0.00    +0.000 A 
ATOM     18  C   UNL     1       5.806   3.698  15.681  0.00  0.00    +0.000 A 
ATOM     19  C   UNL     1       4.729   4.443  16.168  0.00  0.00    +0.000 A 
ATOM     20  C   UNL     1       4.914   5.706  16.756  0.00  0.00    +0.000 A 
BRANCH  15  22
ATOM     21  C   UNL     1       7.945   7.730  17.995  0.00  0.00    +0.000 C 
ATOM     22  C   UNL     1       6.576   7.604  17.341  0.00  0.00    +0.000 C 
ENDBRANCH  15  22
ENDBRANCH  11  20
ENDBRANCH   1  12
BRANCH  10  23
ATOM     23  S   UNL     1      -1.284  11.572  19.111  0.00  0.00    +0.000 S 
ATOM     24  C   UNL     1      -2.285  12.408  20.334  0.00  0.00    +0.000 C 
ATOM     25  O   UNL     1      -0.640  12.592  18.308  0.00  0.00    +0.000 OA
ATOM     26  O   UNL     1      -2.104  10.566  18.480  0.00  0.00    +0.000 OA
ENDBRANCH  10  23
TORSDOF 4
ENDMDL
MODEL 2
REMARK VINA RESULT:      -8.0      0.806      1.997
REMARK  Name = 
REMARK  6 active torsions:
REMARK  status: ('A' for Active; 'I' for Inactive)
REMARK    1  A    between atoms: C_1  and  C_2
REMARK    2  A    between atoms: C_2  and  C_3
REMARK    3  A    between atoms: C_8  and  N_9
REMARK    4  A    between atoms: C_10  and  C_12
REMARK    5  A    between atoms: N_21  and  S_22
REMARK    6  A    between atoms: S_22  and  C_23
REMARK                            x       y       z     vdW  Elec       q    Type
REMARK                         _______ _______ _______ _____ _____    ______ ____
ROOT
ATOM      1  C   UNL     1       2.102   7.830  19.091  0.00  0.00    +0.000 A 
ATOM      2  C   UNL     1       1.817   8.840  18.177  0.00  0.00    +0.000 A 
ATOM      3  C   UNL     1       0.954   9.886  18.558  0.00  0.00    +0.000 A 
ATOM      4  C   UNL     1       0.404   9.979  19.861  0.00  0.00    +0.000 A 
ATOM      5  C   UNL     1       0.799   8.997  20.778  0.00  0.00    +0.000 A 
ATOM      6  C   UNL     1       1.561   7.888  20.363  0.00  0.00    +0.000 A 
ATOM      7  C   UNL     1       0.633   9.142  22.246  0.00  0.00    +0.000 C 
ATOM      8  C   UNL     1      -0.335  10.192  22.717  0.00  0.00    +0.000 C 
ATOM      9  C   UNL     1      -0.755  11.268  21.738  0.00  0.00    +0.000 C 
ATOM     10  N   UNL     1      -0.402  11.092  20.302  0.00  0.00    +0.000 N 
ENDROOT
BRANCH   1  12
ATOM     11  N   UNL     1       3.653   6.745  17.603  0.00  0.00    +0.000 N 
ATOM     12  C   UNL     1       3.078   6.739  18.861  0.00  0.00    +0.000 C 
ATOM     13  O   UNL     1       3.354   6.025  19.817  0.00  0.00    +0.000 OA
ATOM     14  H   UNL     1       3.292   7.426  16.948  0.00  0.00    +0.000 HD
BRANCH  11  20
ATOM     15  C   UNL     1       4.610   4.631  16.812  0.00  0.00    +0.000 A 
ATOM     16  C   UNL     1       5.725   3.903  16.337  0.00  0.00    +0.000 A 
ATOM     17  C   UNL     1       6.989   4.480  16.266  0.00  0.00    +0.000 A 
ATOM     18  C   UNL     1       7.154   5.805  16.637  0.00  0.00    +0.000 A 
ATOM     19  C   UNL     1       6.055   6.555  17.065  0.00  0.00    +0.000 A 
ATOM     20  C   UNL     1       4.773   5.989  17.167  0.00  0.00    +0.000 A 
BRANCH  15  22
ATOM     21  C   UNL     1       3.469   2.567  17.806  0.00  0.00    +0.000 C 
ATOM     22  C   UNL     1       3.327   3.847  16.993  0.00  0.00    +0.000 C 
ENDBRANCH  15  22
ENDBRANCH  11  20
ENDBRANCH   1  12
BRANCH  10  23
ATOM     23  S   UNL     1      -1.571  11.808  19.250  0.00  0.00    +0.000 S 
ATOM     24  C   UNL     1      -2.645  12.599  20.441  0.00  0.00    +0.000 C 
ATOM     25  O   UNL     1      -0.913  12.857  18.497  0.00  0.00    +0.000 OA
ATOM     26  O   UNL     1      -2.339  10.799  18.563  0.00  0.00    +0.000 OA
ENDBRANCH  10  23
TORSDOF 4
ENDMDL
MODEL 3
REMARK VINA RESULT:      -8.0      3.003      8.365
REMARK  Name = 
REMARK  6 active torsions:
REMARK  status: ('A' for Active; 'I' for Inactive)
REMARK    1  A    between atoms: C_1  and  C_2
REMARK    2  A    between atoms: C_2  and  C_3
REMARK    3  A    between atoms: C_8  and  N_9
REMARK    4  A    between atoms: C_10  and  C_12
REMARK    5  A    between atoms: N_21  and  S_22
REMARK    6  A    between atoms: S_22  and  C_23
REMARK                            x       y       z     vdW  Elec       q    Type
REMARK                         _______ _______ _______ _____ _____    ______ ____
ROOT
ATOM      1  C   UNL     1       1.805   8.493  19.102  0.00  0.00    +0.000 A 
ATOM      2  C   UNL     1       2.370   8.716  17.850  0.00  0.00    +0.000 A 
ATOM      3  C   UNL     1       3.301   7.788  17.342  0.00  0.00    +0.000 A 
ATOM      4  C   UNL     1       3.644   6.602  18.038  0.00  0.00    +0.000 A 
ATOM      5  C   UNL     1       2.975   6.368  19.245  0.00  0.00    +0.000 A 
ATOM      6  C   UNL     1       2.140   7.352  19.809  0.00  0.00    +0.000 A 
ATOM      7  C   UNL     1       2.925   5.038  19.902  0.00  0.00    +0.000 C 
ATOM      8  C   UNL     1       3.945   4.025  19.458  0.00  0.00    +0.000 C 
ATOM      9  C   UNL     1       4.661   4.260  18.146  0.00  0.00    +0.000 C 
ATOM     10  N   UNL     1       4.519   5.591  17.493  0.00  0.00    +0.000 N 
ENDROOT
BRANCH   1  12
ATOM     11  N   UNL     1       0.100  10.168  18.806  0.00  0.00    +0.000 N 
ATOM     12  C   UNL     1       0.733   9.323  19.701  0.00  0.00    +0.000 C 
ATOM     13  O   UNL     1       0.447   9.107  20.872  0.00  0.00    +0.000 OA
ATOM     14  H   UNL     1       0.483  10.199  17.871  0.00  0.00    +0.000 HD
BRANCH  11  20
ATOM     15  C   UNL     1      -2.192  10.729  18.141  0.00  0.00    +0.000 A 
ATOM     16  C   UNL     1      -3.393  11.431  18.392  0.00  0.00    +0.000 A 
ATOM     17  C   UNL     1      -3.499  12.331  19.449  0.00  0.00    +0.000 A 
ATOM     18  C   UNL     1      -2.417  12.518  20.294  0.00  0.00    +0.000 A 
ATOM     19  C   UNL     1      -1.237  11.798  20.091  0.00  0.00    +0.000 A 
ATOM     20  C   UNL     1      -1.097  10.901  19.018  0.00  0.00    +0.000 A 
BRANCH  15  22
ATOM     21  C   UNL     1      -2.738  10.591  15.646  0.00  0.00    +0.000 C 
ATOM     22  C   UNL     1      -2.151   9.905  16.872  0.00  0.00    +0.000 C 
ENDBRANCH  15  22
ENDBRANCH  11  20
ENDBRANCH   1  12
BRANCH  10  23
ATOM     23  S   UNL     1       5.929   6.033  16.596  0.00  0.00    +0.000 S 
ATOM     24  C   UNL     1       6.853   4.502  16.661  0.00  0.00    +0.000 C 
ATOM     25  O   UNL     1       5.535   6.243  15.218  0.00  0.00    +0.000 OA
ATOM     26  O   UNL     1       6.693   7.040  17.291  0.00  0.00    +0.000 OA
ENDBRANCH  10  23
TORSDOF 4
ENDMDL
MODEL 4
REMARK VINA RESULT:      -7.9      2.119      2.738
REMARK  Name = 
REMARK  6 active torsions:
REMARK  status: ('A' for Active; 'I' for Inactive)
REMARK    1  A    between atoms: C_1  and  C_2
REMARK    2  A    between atoms: C_2  and  C_3
REMARK    3  A    between atoms: C_8  and  N_9
REMARK    4  A    between atoms: C_10  and  C_12
REMARK    5  A    between atoms: N_21  and  S_22
REMARK    6  A    between atoms: S_22  and  C_23
REMARK                            x       y       z     vdW  Elec       q    Type
REMARK                         _______ _______ _______ _____ _____    ______ ____
ROOT
ATOM      1  C   UNL     1       2.980   6.468  18.916  0.00  0.00    +0.000 A 
ATOM      2  C   UNL     1       2.303   6.133  20.085  0.00  0.00    +0.000 A 
ATOM      3  C   UNL     1       1.461   7.089  20.688  0.00  0.00    +0.000 A 
ATOM      4  C   UNL     1       1.234   8.367  20.117  0.00  0.00    +0.000 A 
ATOM      5  C   UNL     1       1.855   8.622  18.889  0.00  0.00    +0.000 A 
ATOM      6  C   UNL     1       2.790   7.716  18.351  0.00  0.00    +0.000 A 
ATOM      7  C   UNL     1       1.443   9.723  17.983  0.00  0.00    +0.000 C 
ATOM      8  C   UNL     1       0.605  10.818  18.585  0.00  0.00    +0.000 C 
ATOM      9  C   UNL     1      -0.084  10.545  19.905  0.00  0.00    +0.000 C 
ATOM     10  N   UNL     1       0.302   9.323  20.663  0.00  0.00    +0.000 N 
ENDROOT
BRANCH   1  12
ATOM     11  N   UNL     1       4.257   6.040  16.921  0.00  0.00    +0.000 N 
ATOM     12  C   UNL     1       3.802   5.525  18.121  0.00  0.00    +0.000 C 
ATOM     13  O   UNL     1       4.081   4.452  18.640  0.00  0.00    +0.000 OA
ATOM     14  H   UNL     1       3.917   6.958  16.668  0.00  0.00    +0.000 HD
BRANCH  11  20
ATOM     15  C   UNL     1       6.607   5.766  16.278  0.00  0.00    +0.000 A 
ATOM     16  C   UNL     1       7.577   5.163  15.445  0.00  0.00    +0.000 A 
ATOM     17  C   UNL     1       7.210   4.340  14.384  0.00  0.00    +0.000 A 
ATOM     18  C   UNL     1       5.868   4.078  14.159  0.00  0.00    +0.000 A 
ATOM     19  C   UNL     1       4.897   4.627  15.000  0.00  0.00    +0.000 A 
ATOM     20  C   UNL     1       5.240   5.479  16.064  0.00  0.00    +0.000 A 
BRANCH  15  22
ATOM     21  C   UNL     1       7.593   6.152  18.606  0.00  0.00    +0.000 C 
ATOM     22  C   UNL     1       7.123   6.763  17.293  0.00  0.00    +0.000 C 
ENDBRANCH  15  22
ENDBRANCH  11  20
ENDBRANCH   1  12
BRANCH  10  23
ATOM     23  S   UNL     1       0.162   9.543  22.372  0.00  0.00    +0.000 S 
ATOM     24  C   UNL     1      -0.581  11.169  22.434  0.00  0.00    +0.000 C 
ATOM     25  O   UNL     1      -0.820   8.599  22.866  0.00  0.00    +0.000 OA
ATOM     26  O   UNL     1       1.461   9.626  22.994  0.00  0.00    +0.000 OA
ENDBRANCH  10  23
TORSDOF 4
ENDMDL
MODEL 5
REMARK VINA RESULT:      -7.8      2.222      3.328
REMARK  Name = 
REMARK  6 active torsions:
REMARK  status: ('A' for Active; 'I' for Inactive)
REMARK    1  A    between atoms: C_1  and  C_2
REMARK    2  A    between atoms: C_2  and  C_3
REMARK    3  A    between atoms: C_8  and  N_9
REMARK    4  A    between atoms: C_10  and  C_12
REMARK    5  A    between atoms: N_21  and  S_22
REMARK    6  A    between atoms: S_22  and  C_23
REMARK                            x       y       z     vdW  Elec       q    Type
REMARK                         _______ _______ _______ _____ _____    ______ ____
ROOT
ATOM      1  C   UNL     1       1.909   8.230  18.879  0.00  0.00    +0.000 A 
ATOM      2  C   UNL     1       1.806   9.364  18.079  0.00  0.00    +0.000 A 
ATOM      3  C   UNL     1       1.086  10.477  18.556  0.00  0.00    +0.000 A 
ATOM      4  C   UNL     1       0.506  10.507  19.849  0.00  0.00    +0.000 A 
ATOM      5  C   UNL     1       0.721   9.384  20.657  0.00  0.00    +0.000 A 
ATOM      6  C   UNL     1       1.333   8.227  20.137  0.00  0.00    +0.000 A 
ATOM      7  C   UNL     1       0.522   9.392  22.128  0.00  0.00    +0.000 C 
ATOM      8  C   UNL     1      -0.305  10.514  22.694  0.00  0.00    +0.000 C 
ATOM      9  C   UNL     1      -0.529  11.739  21.833  0.00  0.00    +0.000 C 
ATOM     10  N   UNL     1      -0.150  11.671  20.395  0.00  0.00    +0.000 N 
ENDROOT
BRANCH   1  12
ATOM     11  N   UNL     1       2.202   5.843  19.004  0.00  0.00    +0.000 N 
ATOM     12  C   UNL     1       2.728   7.039  18.549  0.00  0.00    +0.000 C 
ATOM     13  O   UNL     1       3.705   7.214  17.832  0.00  0.00    +0.000 OA
ATOM     14  H   UNL     1       1.374   5.907  19.581  0.00  0.00    +0.000 HD
BRANCH  11  20
ATOM     15  C   UNL     1       2.055   3.414  19.306  0.00  0.00    +0.000 A 
ATOM     16  C   UNL     1       2.448   2.115  18.912  0.00  0.00    +0.000 A 
ATOM     17  C   UNL     1       3.421   1.916  17.937  0.00  0.00    +0.000 A 
ATOM     18  C   UNL     1       3.993   3.014  17.314  0.00  0.00    +0.000 A 
ATOM     19  C   UNL     1       3.584   4.305  17.655  0.00  0.00    +0.000 A 
ATOM     20  C   UNL     1       2.620   4.533  18.652  0.00  0.00    +0.000 A 
BRANCH  15  22
ATOM     21  C   UNL     1       1.495   2.634  21.677  0.00  0.00    +0.000 C 
ATOM     22  C   UNL     1       1.109   3.500  20.484  0.00  0.00    +0.000 C 
ENDBRANCH  15  22
ENDBRANCH  11  20
ENDBRANCH   1  12
BRANCH  10  23
ATOM     23  S   UNL     1      -1.164  12.659  19.404  0.00  0.00    +0.000 S 
ATOM     24  C   UNL     1      -2.052  13.577  20.656  0.00  0.00    +0.000 C 
ATOM     25  O   UNL     1      -0.318  13.600  18.696  0.00  0.00    +0.000 OA
ATOM     26  O   UNL     1      -2.121  11.860  18.679  0.00  0.00    +0.000 OA
ENDBRANCH  10  23
TORSDOF 4
ENDMDL
MODEL 6
REMARK VINA RESULT:      -7.8      2.261      3.407
REMARK  Name = 
REMARK  6 active torsions:
REMARK  status: ('A' for Active; 'I' for Inactive)
REMARK    1  A    between atoms: C_1  and  C_2
REMARK    2  A    between atoms: C_2  and  C_3
REMARK    3  A    between atoms: C_8  and  N_9
REMARK    4  A    between atoms: C_10  and  C_12
REMARK    5  A    between atoms: N_21  and  S_22
REMARK    6  A    between atoms: S_22  and  C_23
REMARK                            x       y       z     vdW  Elec       q    Type
REMARK                         _______ _______ _______ _____ _____    ______ ____
ROOT
ATOM      1  C   UNL     1       1.521   8.709  19.286  0.00  0.00    +0.000 A 
ATOM      2  C   UNL     1       1.281   9.891  18.591  0.00  0.00    +0.000 A 
ATOM      3  C   UNL     1       0.435  10.862  19.162  0.00  0.00    +0.000 A 
ATOM      4  C   UNL     1      -0.141  10.704  20.448  0.00  0.00    +0.000 A 
ATOM      5  C   UNL     1       0.209   9.547  21.152  0.00  0.00    +0.000 A 
ATOM      6  C   UNL     1       0.954   8.523  20.534  0.00  0.00    +0.000 A 
ATOM      7  C   UNL     1       0.015   9.396  22.616  0.00  0.00    +0.000 C 
ATOM      8  C   UNL     1      -0.938  10.356  23.275  0.00  0.00    +0.000 C 
ATOM      9  C   UNL     1      -1.309  11.619  22.528  0.00  0.00    +0.000 C 
ATOM     10  N   UNL     1      -0.929  11.727  21.092  0.00  0.00    +0.000 N 
ENDROOT
BRANCH   1  12
ATOM     11  N   UNL     1       2.718   6.687  19.809  0.00  0.00    +0.000 N 
ATOM     12  C   UNL     1       2.475   7.660  18.856  0.00  0.00    +0.000 C 
ATOM     13  O   UNL     1       2.858   7.694  17.693  0.00  0.00    +0.000 OA
ATOM     14  H   UNL     1       2.300   6.833  20.717  0.00  0.00    +0.000 HD
BRANCH  11  20
ATOM     15  C   UNL     1       2.730   4.238  19.936  0.00  0.00    +0.000 A 
ATOM     16  C   UNL     1       3.391   3.012  19.699  0.00  0.00    +0.000 A 
ATOM     17  C   UNL     1       4.697   2.974  19.217  0.00  0.00    +0.000 A 
ATOM     18  C   UNL     1       5.350   4.162  18.931  0.00  0.00    +0.000 A 
ATOM     19  C   UNL     1       4.696   5.383  19.114  0.00  0.00    +0.000 A 
ATOM     20  C   UNL     1       3.387   5.449  19.620  0.00  0.00    +0.000 A 
BRANCH  15  22
ATOM     21  C   UNL     1       1.171   2.910  21.469  0.00  0.00    +0.000 C 
ATOM     22  C   UNL     1       1.377   4.150  20.609  0.00  0.00    +0.000 C 
ENDBRANCH  15  22
ENDBRANCH  11  20
ENDBRANCH   1  12
BRANCH  10  23
ATOM     23  S   UNL     1      -2.058  12.674  20.188  0.00  0.00    +0.000 S 
ATOM     24  C   UNL     1      -3.179  13.179  21.486  0.00  0.00    +0.000 C 
ATOM     25  O   UNL     1      -1.371  13.863  19.722  0.00  0.00    +0.000 OA
ATOM     26  O   UNL     1      -2.796  11.855  19.258  0.00  0.00    +0.000 OA
ENDBRANCH  10  23
TORSDOF 4
ENDMDL
MODEL 7
REMARK VINA RESULT:      -7.8      3.035      8.488
REMARK  Name = 
REMARK  6 active torsions:
REMARK  status: ('A' for Active; 'I' for Inactive)
REMARK    1  A    between atoms: C_1  and  C_2
REMARK    2  A    between atoms: C_2  and  C_3
REMARK    3  A    between atoms: C_8  and  N_9
REMARK    4  A    between atoms: C_10  and  C_12
REMARK    5  A    between atoms: N_21  and  S_22
REMARK    6  A    between atoms: S_22  and  C_23
REMARK                            x       y       z     vdW  Elec       q    Type
REMARK                         _______ _______ _______ _____ _____    ______ ____
ROOT
ATOM      1  C   UNL     1       2.334   7.880  18.550  0.00  0.00    +0.000 A 
ATOM      2  C   UNL     1       2.166   7.101  19.692  0.00  0.00    +0.000 A 
ATOM      3  C   UNL     1       2.902   5.907  19.821  0.00  0.00    +0.000 A 
ATOM      4  C   UNL     1       3.852   5.493  18.854  0.00  0.00    +0.000 A 
ATOM      5  C   UNL     1       4.062   6.358  17.773  0.00  0.00    +0.000 A 
ATOM      6  C   UNL     1       3.240   7.486  17.582  0.00  0.00    +0.000 A 
ATOM      7  C   UNL     1       5.251   6.280  16.889  0.00  0.00    +0.000 C 
ATOM      8  C   UNL     1       6.038   4.998  16.923  0.00  0.00    +0.000 C 
ATOM      9  C   UNL     1       5.831   4.065  18.097  0.00  0.00    +0.000 C 
ATOM     10  N   UNL     1       4.687   4.327  19.014  0.00  0.00    +0.000 N 
ENDROOT
BRANCH   1  12
ATOM     11  N   UNL     1       0.621   9.461  19.152  0.00  0.00    +0.000 N 
ATOM     12  C   UNL     1       1.712   9.208  18.339  0.00  0.00    +0.000 C 
ATOM     13  O   UNL     1       2.276   9.973  17.567  0.00  0.00    +0.000 OA
ATOM     14  H   UNL     1       0.307   8.696  19.734  0.00  0.00    +0.000 HD
BRANCH  11  20
ATOM     15  C   UNL     1      -1.208  11.008  18.629  0.00  0.00    +0.000 A 
ATOM     16  C   UNL     1      -1.871  12.233  18.871  0.00  0.00    +0.000 A 
ATOM     17  C   UNL     1      -1.357  13.171  19.761  0.00  0.00    +0.000 A 
ATOM     18  C   UNL     1      -0.189  12.886  20.450  0.00  0.00    +0.000 A 
ATOM     19  C   UNL     1       0.456  11.661  20.260  0.00  0.00    +0.000 A 
ATOM     20  C   UNL     1      -0.031  10.707  19.350  0.00  0.00    +0.000 A 
BRANCH  15  22
ATOM     21  C   UNL     1      -2.571  10.902  16.466  0.00  0.00    +0.000 C 
ATOM     22  C   UNL     1      -1.779  10.145  17.524  0.00  0.00    +0.000 C 
ENDBRANCH  15  22
ENDBRANCH  11  20
ENDBRANCH   1  12
BRANCH  10  23
ATOM     23  S   UNL     1       4.051   2.872  19.697  0.00  0.00    +0.000 S 
ATOM     24  C   UNL     1       3.495   2.031  18.219  0.00  0.00    +0.000 C 
ATOM     25  O   UNL     1       5.159   2.110  20.237  0.00  0.00    +0.000 OA
ATOM     26  O   UNL     1       2.893   3.143  20.514  0.00  0.00    +0.000 OA
ENDBRANCH  10  23
TORSDOF 4
ENDMDL
MODEL 8
REMARK VINA RESULT:      -7.8      3.055      8.319
REMARK  Name = 
REMARK  6 active torsions:
REMARK  status: ('A' for Active; 'I' for Inactive)
REMARK    1  A    between atoms: C_1  and  C_2
REMARK    2  A    between atoms: C_2  and  C_3
REMARK    3  A    between atoms: C_8  and  N_9
REMARK    4  A    between atoms: C_10  and  C_12
REMARK    5  A    between atoms: N_21  and  S_22
REMARK    6  A    between atoms: S_22  and  C_23
REMARK                            x       y       z     vdW  Elec       q    Type
REMARK                         _______ _______ _______ _____ _____    ______ ____
ROOT
ATOM      1  C   UNL     1       2.058   8.096  19.213  0.00  0.00    +0.000 A 
ATOM      2  C   UNL     1       2.579   8.326  17.943  0.00  0.00    +0.000 A 
ATOM      3  C   UNL     1       3.452   7.375  17.378  0.00  0.00    +0.000 A 
ATOM      4  C   UNL     1       3.777   6.161  18.033  0.00  0.00    +0.000 A 
ATOM      5  C   UNL     1       3.150   5.925  19.262  0.00  0.00    +0.000 A 
ATOM      6  C   UNL     1       2.378   6.928  19.881  0.00  0.00    +0.000 A 
ATOM      7  C   UNL     1       3.075   4.584  19.893  0.00  0.00    +0.000 C 
ATOM      8  C   UNL     1       4.036   3.543  19.386  0.00  0.00    +0.000 C 
ATOM      9  C   UNL     1       4.706   3.780  18.050  0.00  0.00    +0.000 C 
ATOM     10  N   UNL     1       4.589   5.130  17.431  0.00  0.00    +0.000 N 
ENDROOT
BRANCH   1  12
ATOM     11  N   UNL     1       0.612  10.018  19.105  0.00  0.00    +0.000 N 
ATOM     12  C   UNL     1       1.045   8.953  19.874  0.00  0.00    +0.000 C 
ATOM     13  O   UNL     1       0.622   8.581  20.961  0.00  0.00    +0.000 OA
ATOM     14  H   UNL     1       1.085  10.156  18.221  0.00  0.00    +0.000 HD
BRANCH  11  20
ATOM     15  C   UNL     1      -1.632  10.812  18.515  0.00  0.00    +0.000 A 
ATOM     16  C   UNL     1      -2.749  11.627  18.808  0.00  0.00    +0.000 A 
ATOM     17  C   UNL     1      -2.734  12.520  19.874  0.00  0.00    +0.000 A 
ATOM     18  C   UNL     1      -1.614  12.589  20.688  0.00  0.00    +0.000 A 
ATOM     19  C   UNL     1      -0.517  11.758  20.443  0.00  0.00    +0.000 A 
ATOM     20  C   UNL     1      -0.499  10.864  19.359  0.00  0.00    +0.000 A 
BRANCH  15  22
ATOM     21  C   UNL     1      -3.102   9.904  16.628  0.00  0.00    +0.000 C 
ATOM     22  C   UNL     1      -1.710  10.001  17.238  0.00  0.00    +0.000 C 
ENDBRANCH  15  22
ENDBRANCH  11  20
ENDBRANCH   1  12
BRANCH  10  23
ATOM     23  S   UNL     1       5.977   5.538  16.486  0.00  0.00    +0.000 S 
ATOM     24  C   UNL     1       6.884   6.548  17.650  0.00  0.00    +0.000 C 
ATOM     25  O   UNL     1       6.745   4.327  16.273  0.00  0.00    +0.000 OA
ATOM     26  O   UNL     1       5.617   6.371  15.364  0.00  0.00    +0.000 OA
ENDBRANCH  10  23
TORSDOF 4
ENDMDL
MODEL 9
REMARK VINA RESULT:      -7.8      3.201      8.173
REMARK  Name = 
REMARK  6 active torsions:
REMARK  status: ('A' for Active; 'I' for Inactive)
REMARK    1  A    between atoms: C_1  and  C_2
REMARK    2  A    between atoms: C_2  and  C_3
REMARK    3  A    between atoms: C_8  and  N_9
REMARK    4  A    between atoms: C_10  and  C_12
REMARK    5  A    between atoms: N_21  and  S_22
REMARK    6  A    between atoms: S_22  and  C_23
REMARK                            x       y       z     vdW  Elec       q    Type
REMARK                         _______ _______ _______ _____ _____    ______ ____
ROOT
ATOM      1  C   UNL     1       1.742   7.871  19.804  0.00  0.00    +0.000 A 
ATOM      2  C   UNL     1       1.550   6.829  20.707  0.00  0.00    +0.000 A 
ATOM      3  C   UNL     1       2.057   5.551  20.397  0.00  0.00    +0.000 A 
ATOM      4  C   UNL     1       2.805   5.298  19.220  0.00  0.00    +0.000 A 
ATOM      5  C   UNL     1       3.061   6.397  18.392  0.00  0.00    +0.000 A 
ATOM      6  C   UNL     1       2.452   7.643  18.639  0.00  0.00    +0.000 A 
ATOM      7  C   UNL     1       4.116   6.400  17.348  0.00  0.00    +0.000 C 
ATOM      8  C   UNL     1       4.645   5.060  16.916  0.00  0.00    +0.000 C 
ATOM      9  C   UNL     1       4.388   3.868  17.813  0.00  0.00    +0.000 C 
ATOM     10  N   UNL     1       3.416   4.023  18.931  0.00  0.00    +0.000 N 
ENDROOT
BRANCH   1  12
ATOM     11  N   UNL     1       1.338  10.074  18.922  0.00  0.00    +0.000 N 
ATOM     12  C   UNL     1       1.364   9.282  20.056  0.00  0.00    +0.000 C 
ATOM     13  O   UNL     1       1.015   9.573  21.193  0.00  0.00    +0.000 OA
ATOM     14  H   UNL     1       1.659   9.644  18.066  0.00  0.00    +0.000 HD
BRANCH  11  20
ATOM     15  C   UNL     1      -0.599  11.558  18.676  0.00  0.00    +0.000 A 
ATOM     16  C   UNL     1      -1.125  12.868  18.603  0.00  0.00    +0.000 A 
ATOM     17  C   UNL     1      -0.294  13.983  18.595  0.00  0.00    +0.000 A 
ATOM     18  C   UNL     1       1.078  13.810  18.694  0.00  0.00    +0.000 A 
ATOM     19  C   UNL     1       1.614  12.525  18.814  0.00  0.00    +0.000 A 
ATOM     20  C   UNL     1       0.798  11.382  18.802  0.00  0.00    +0.000 A 
BRANCH  15  22
ATOM     21  C   UNL     1      -1.871  10.021  17.073  0.00  0.00    +0.000 C 
ATOM     22  C   UNL     1      -1.592  10.427  18.515  0.00  0.00    +0.000 C 
ENDBRANCH  15  22
ENDBRANCH  11  20
ENDBRANCH   1  12
BRANCH  10  23
ATOM     23  S   UNL     1       2.591   2.546  19.287  0.00  0.00    +0.000 S 
ATOM     24  C   UNL     1       3.630   1.372  18.426  0.00  0.00    +0.000 C 
ATOM     25  O   UNL     1       2.729   2.288  20.706  0.00  0.00    +0.000 OA
ATOM     26  O   UNL     1       1.287   2.518  18.671  0.00  0.00    +0.000 OA
ENDBRANCH  10  23
TORSDOF 4
ENDMDL
