MODEL 1
REMARK VINA RESULT:      -7.1      0.000      0.000
REMARK  Name = 
REMARK  6 active torsions:
REMARK  status: ('A' for Active; 'I' for Inactive)
REMARK    1  A    between atoms: C_1  and  C_2
REMARK    2  A    between atoms: C_6  and  N_7
REMARK    3  A    between atoms: C_8  and  C_10
REMARK    4  A    between atoms: C_10  and  S_11
REMARK    5  A    between atoms: S_11  and  C_12
REMARK    6  A    between atoms: C_15  and  C_16
REMARK                            x       y       z     vdW  Elec       q    Type
REMARK                         _______ _______ _______ _____ _____    ______ ____
ROOT
ATOM      1  N   UNL     1       2.732   5.832  20.444  0.00  0.00    +0.000 N 
ATOM      2  C   UNL     1       2.058   4.619  20.425  0.00  0.00    +0.000 C 
ATOM      3  O   UNL     1       0.942   4.430  19.942  0.00  0.00    +0.000 OA
ATOM      4  H   UNL     1       3.570   5.903  21.006  0.00  0.00    +0.000 HD
ENDROOT
BRANCH   1  10
ATOM      5  C   UNL     1      -0.315  12.351  19.054  0.00  0.00    +0.000 C 
ATOM      6  C   UNL     1       0.374  11.041  19.108  0.00  0.00    +0.000 A 
ATOM      7  N   UNL     1       0.431  10.229  20.141  0.00  0.00    +0.000 NA
ATOM      8  C   UNL     1       1.175   9.153  19.726  0.00  0.00    +0.000 A 
ATOM      9  C   UNL     1       1.552   8.002  20.434  0.00  0.00    +0.000 A 
ATOM     10  C   UNL     1       2.315   7.018  19.791  0.00  0.00    +0.000 A 
ATOM     11  C   UNL     1       2.672   7.188  18.444  0.00  0.00    +0.000 A 
ATOM     12  C   UNL     1       2.321   8.342  17.722  0.00  0.00    +0.000 A 
ATOM     13  C   UNL     1       1.570   9.301  18.404  0.00  0.00    +0.000 A 
ATOM     14  N   UNL     1       1.056  10.518  18.036  0.00  0.00    +0.000 N 
ATOM     15  H   UNL     1       1.155  10.954  17.131  0.00  0.00    +0.000 HD
ENDBRANCH   1  10
BRANCH   2  16
ATOM     16  C   UNL     1       2.795   3.485  21.121  0.00  0.00    +0.000 C 
BRANCH  16  17
ATOM     17  S   UNL     1       3.490   2.334  19.897  0.00  0.00    +0.000 S 
BRANCH  17  18
ATOM     18  C   UNL     1       4.309   3.460  18.843  0.00  0.00    +0.000 A 
ATOM     19  N   UNL     1       5.371   4.134  19.228  0.00  0.00    +0.000 NA
ATOM     20  N   UNL     1       5.872   4.933  18.218  0.00  0.00    +0.000 NA
ATOM     21  C   UNL     1       5.167   4.826  17.109  0.00  0.00    +0.000 A 
ATOM     22  C   UNL     1       5.460   5.544  15.843  0.00  0.00    +0.000 C 
ATOM     23  S   UNL     1       3.835   3.747  17.223  0.00  0.00    +0.000 S 
ENDBRANCH  17  18
ENDBRANCH  16  17
ENDBRANCH   2  16
TORSDOF 4
ENDMDL
MODEL 2
REMARK VINA RESULT:      -7.1      2.283      2.978
REMARK  Name = 
REMARK  6 active torsions:
REMARK  status: ('A' for Active; 'I' for Inactive)
REMARK    1  A    between atoms: C_1  and  C_2
REMARK    2  A    between atoms: C_6  and  N_7
REMARK    3  A    between atoms: C_8  and  C_10
REMARK    4  A    between atoms: C_10  and  S_11
REMARK    5  A    between atoms: S_11  and  C_12
REMARK    6  A    between atoms: C_15  and  C_16
REMARK                            x       y       z     vdW  Elec       q    Type
REMARK                         _______ _______ _______ _____ _____    ______ ____
ROOT
ATOM      1  N   UNL     1       3.353   6.270  18.454  0.00  0.00    +0.000 N 
ATOM      2  C   UNL     1       2.913   5.113  17.825  0.00  0.00    +0.000 C 
ATOM      3  O   UNL     1       1.736   4.786  17.673  0.00  0.00    +0.000 OA
ATOM      4  H   UNL     1       4.339   6.355  18.658  0.00  0.00    +0.000 HD
ENDROOT
BRANCH   1  10
ATOM      5  C   UNL     1      -0.753  10.633  22.675  0.00  0.00    +0.000 C 
ATOM      6  C   UNL     1       0.027   9.906  21.647  0.00  0.00    +0.000 A 
ATOM      7  N   UNL     1       0.684   8.779  21.815  0.00  0.00    +0.000 NA
ATOM      8  C   UNL     1       1.253   8.495  20.599  0.00  0.00    +0.000 A 
ATOM      9  C   UNL     1       2.066   7.416  20.223  0.00  0.00    +0.000 A 
ATOM     10  C   UNL     1       2.527   7.329  18.903  0.00  0.00    +0.000 A 
ATOM     11  C   UNL     1       2.151   8.310  17.972  0.00  0.00    +0.000 A 
ATOM     12  C   UNL     1       1.353   9.410  18.331  0.00  0.00    +0.000 A 
ATOM     13  C   UNL     1       0.924   9.462  19.659  0.00  0.00    +0.000 A 
ATOM     14  N   UNL     1       0.151  10.356  20.355  0.00  0.00    +0.000 N 
ATOM     15  H   UNL     1      -0.261  11.198  19.983  0.00  0.00    +0.000 HD
ENDBRANCH   1  10
BRANCH   2  16
ATOM     16  C   UNL     1       4.031   4.197  17.350  0.00  0.00    +0.000 C 
BRANCH  16  17
ATOM     17  S   UNL     1       5.652   4.957  17.668  0.00  0.00    +0.000 S 
BRANCH  17  18
ATOM     18  C   UNL     1       6.314   4.962  16.053  0.00  0.00    +0.000 A 
ATOM     19  N   UNL     1       7.383   5.661  15.736  0.00  0.00    +0.000 NA
ATOM     20  N   UNL     1       7.747   5.482  14.415  0.00  0.00    +0.000 NA
ATOM     21  C   UNL     1       6.937   4.652  13.789  0.00  0.00    +0.000 A 
ATOM     22  C   UNL     1       7.070   4.243  12.368  0.00  0.00    +0.000 C 
ATOM     23  S   UNL     1       5.667   4.035  14.769  0.00  0.00    +0.000 S 
ENDBRANCH  17  18
ENDBRANCH  16  17
ENDBRANCH   2  16
TORSDOF 4
ENDMDL
MODEL 3
REMARK VINA RESULT:      -6.9      1.773      2.185
REMARK  Name = 
REMARK  6 active torsions:
REMARK  status: ('A' for Active; 'I' for Inactive)
REMARK    1  A    between atoms: C_1  and  C_2
REMARK    2  A    between atoms: C_6  and  N_7
REMARK    3  A    between atoms: C_8  and  C_10
REMARK    4  A    between atoms: C_10  and  S_11
REMARK    5  A    between atoms: S_11  and  C_12
REMARK    6  A    between atoms: C_15  and  C_16
REMARK                            x       y       z     vdW  Elec       q    Type
REMARK                         _______ _______ _______ _____ _____    ______ ____
ROOT
ATOM      1  N   UNL     1       3.226   6.213  19.522  0.00  0.00    +0.000 N 
ATOM      2  C   UNL     1       2.886   4.993  18.953  0.00  0.00    +0.000 C 
ATOM      3  O   UNL     1       1.770   4.688  18.533  0.00  0.00    +0.000 OA
ATOM      4  H   UNL     1       4.128   6.292  19.973  0.00  0.00    +0.000 HD
ENDROOT
BRANCH   1  10
ATOM      5  C   UNL     1      -1.282  11.450  21.963  0.00  0.00    +0.000 C 
ATOM      6  C   UNL     1      -0.385  10.504  21.260  0.00  0.00    +0.000 A 
ATOM      7  N   UNL     1       0.185   9.436  21.775  0.00  0.00    +0.000 NA
ATOM      8  C   UNL     1       0.922   8.882  20.759  0.00  0.00    +0.000 A 
ATOM      9  C   UNL     1       1.733   7.738  20.764  0.00  0.00    +0.000 A 
ATOM     10  C   UNL     1       2.390   7.354  19.588  0.00  0.00    +0.000 A 
ATOM     11  C   UNL     1       2.210   8.106  18.417  0.00  0.00    +0.000 A 
ATOM     12  C   UNL     1       1.417   9.267  18.393  0.00  0.00    +0.000 A 
ATOM     13  C   UNL     1       0.790   9.618  19.589  0.00  0.00    +0.000 A 
ATOM     14  N   UNL     1      -0.041  10.653  19.938  0.00  0.00    +0.000 N 
ATOM     15  H   UNL     1      -0.350  11.395  19.329  0.00  0.00    +0.000 HD
ENDBRANCH   1  10
BRANCH   2  16
ATOM     16  C   UNL     1       4.020   3.980  18.923  0.00  0.00    +0.000 C 
BRANCH  16  17
ATOM     17  S   UNL     1       5.628   4.825  18.995  0.00  0.00    +0.000 S 
BRANCH  17  18
ATOM     18  C   UNL     1       6.126   4.686  17.328  0.00  0.00    +0.000 A 
ATOM     19  N   UNL     1       7.344   4.987  16.933  0.00  0.00    +0.000 NA
ATOM     20  N   UNL     1       7.522   4.763  15.581  0.00  0.00    +0.000 NA
ATOM     21  C   UNL     1       6.427   4.299  15.011  0.00  0.00    +0.000 A 
ATOM     22  C   UNL     1       6.301   3.946  13.575  0.00  0.00    +0.000 C 
ATOM     23  S   UNL     1       5.099   4.110  16.085  0.00  0.00    +0.000 S 
ENDBRANCH  17  18
ENDBRANCH  16  17
ENDBRANCH   2  16
TORSDOF 4
ENDMDL
MODEL 4
REMARK VINA RESULT:      -6.7      1.723      2.013
REMARK  Name = 
REMARK  6 active torsions:
REMARK  status: ('A' for Active; 'I' for Inactive)
REMARK    1  A    between atoms: C_1  and  C_2
REMARK    2  A    between atoms: C_6  and  N_7
REMARK    3  A    between atoms: C_8  and  C_10
REMARK    4  A    between atoms: C_10  and  S_11
REMARK    5  A    between atoms: S_11  and  C_12
REMARK    6  A    between atoms: C_15  and  C_16
REMARK                            x       y       z     vdW  Elec       q    Type
REMARK                         _______ _______ _______ _____ _____    ______ ____
ROOT
ATOM      1  N   UNL     1       3.059   6.308  19.711  0.00  0.00    +0.000 N 
ATOM      2  C   UNL     1       2.676   5.020  19.365  0.00  0.00    +0.000 C 
ATOM      3  O   UNL     1       1.556   4.688  18.978  0.00  0.00    +0.000 OA
ATOM      4  H   UNL     1       3.955   6.433  20.163  0.00  0.00    +0.000 HD
ENDROOT
BRANCH   1  10
ATOM      5  C   UNL     1      -1.430  11.956  20.996  0.00  0.00    +0.000 C 
ATOM      6  C   UNL     1      -0.511  10.900  20.513  0.00  0.00    +0.000 A 
ATOM      7  N   UNL     1      -0.044   9.889  21.214  0.00  0.00    +0.000 NA
ATOM      8  C   UNL     1       0.766   9.187  20.357  0.00  0.00    +0.000 A 
ATOM      9  C   UNL     1       1.520   8.027  20.591  0.00  0.00    +0.000 A 
ATOM     10  C   UNL     1       2.273   7.475  19.546  0.00  0.00    +0.000 A 
ATOM     11  C   UNL     1       2.245   8.076  18.279  0.00  0.00    +0.000 A 
ATOM     12  C   UNL     1       1.511   9.248  18.027  0.00  0.00    +0.000 A 
ATOM     13  C   UNL     1       0.784   9.770  19.099  0.00  0.00    +0.000 A 
ATOM     14  N   UNL     1      -0.030  10.867  19.227  0.00  0.00    +0.000 N 
ATOM     15  H   UNL     1      -0.244  11.534  18.501  0.00  0.00    +0.000 HD
ENDBRANCH   1  10
BRANCH   2  16
ATOM     16  C   UNL     1       3.765   3.974  19.550  0.00  0.00    +0.000 C 
BRANCH  16  17
ATOM     17  S   UNL     1       4.447   3.477  17.939  0.00  0.00    +0.000 S 
BRANCH  17  18
ATOM     18  C   UNL     1       5.367   4.905  17.538  0.00  0.00    +0.000 A 
ATOM     19  N   UNL     1       5.138   5.603  16.447  0.00  0.00    +0.000 NA
ATOM     20  N   UNL     1       5.958   6.711  16.358  0.00  0.00    +0.000 NA
ATOM     21  C   UNL     1       6.774   6.805  17.389  0.00  0.00    +0.000 A 
ATOM     22  C   UNL     1       7.765   7.891  17.593  0.00  0.00    +0.000 C 
ATOM     23  S   UNL     1       6.601   5.540  18.540  0.00  0.00    +0.000 S 
ENDBRANCH  17  18
ENDBRANCH  16  17
ENDBRANCH   2  16
TORSDOF 4
ENDMDL
MODEL 5
REMARK VINA RESULT:      -6.7      2.486      3.105
REMARK  Name = 
REMARK  6 active torsions:
REMARK  status: ('A' for Active; 'I' for Inactive)
REMARK    1  A    between atoms: C_1  and  C_2
REMARK    2  A    between atoms: C_6  and  N_7
REMARK    3  A    between atoms: C_8  and  C_10
REMARK    4  A    between atoms: C_10  and  S_11
REMARK    5  A    between atoms: S_11  and  C_12
REMARK    6  A    between atoms: C_15  and  C_16
REMARK                            x       y       z     vdW  Elec       q    Type
REMARK                         _______ _______ _______ _____ _____    ______ ____
ROOT
ATOM      1  N   UNL     1       2.944   6.335  18.760  0.00  0.00    +0.000 N 
ATOM      2  C   UNL     1       4.148   6.250  18.075  0.00  0.00    +0.000 C 
ATOM      3  O   UNL     1       4.704   7.179  17.490  0.00  0.00    +0.000 OA
ATOM      4  H   UNL     1       2.508   5.475  19.065  0.00  0.00    +0.000 HD
ENDROOT
BRANCH   1  10
ATOM      5  C   UNL     1      -0.684  11.716  22.164  0.00  0.00    +0.000 C 
ATOM      6  C   UNL     1       0.011  10.755  21.277  0.00  0.00    +0.000 A 
ATOM      7  N   UNL     1       0.566   9.618  21.638  0.00  0.00    +0.000 NA
ATOM      8  C   UNL     1       1.088   9.079  20.489  0.00  0.00    +0.000 A 
ATOM      9  C   UNL     1       1.794   7.881  20.304  0.00  0.00    +0.000 A 
ATOM     10  C   UNL     1       2.225   7.527  19.019  0.00  0.00    +0.000 A 
ATOM     11  C   UNL     1       1.925   8.363  17.933  0.00  0.00    +0.000 A 
ATOM     12  C   UNL     1       1.235   9.577  18.097  0.00  0.00    +0.000 A 
ATOM     13  C   UNL     1       0.834   9.896  19.396  0.00  0.00    +0.000 A 
ATOM     14  N   UNL     1       0.155  10.963  19.927  0.00  0.00    +0.000 N 
ATOM     15  H   UNL     1      -0.185  11.763  19.415  0.00  0.00    +0.000 HD
ENDBRANCH   1  10
BRANCH   2  16
ATOM     16  C   UNL     1       4.751   4.853  18.043  0.00  0.00    +0.000 C 
BRANCH  16  17
ATOM     17  S   UNL     1       6.561   4.947  17.889  0.00  0.00    +0.000 S 
BRANCH  17  18
ATOM     18  C   UNL     1       6.730   4.836  16.155  0.00  0.00    +0.000 A 
ATOM     19  N   UNL     1       7.561   5.602  15.482  0.00  0.00    +0.000 NA
ATOM     20  N   UNL     1       7.557   5.311  14.132  0.00  0.00    +0.000 NA
ATOM     21  C   UNL     1       6.722   4.333  13.841  0.00  0.00    +0.000 A 
ATOM     22  C   UNL     1       6.501   3.780  12.481  0.00  0.00    +0.000 C 
ATOM     23  S   UNL     1       5.877   3.703  15.198  0.00  0.00    +0.000 S 
ENDBRANCH  17  18
ENDBRANCH  16  17
ENDBRANCH   2  16
TORSDOF 4
ENDMDL
MODEL 6
REMARK VINA RESULT:      -6.7      2.213      2.920
REMARK  Name = 
REMARK  6 active torsions:
REMARK  status: ('A' for Active; 'I' for Inactive)
REMARK    1  A    between atoms: C_1  and  C_2
REMARK    2  A    between atoms: C_6  and  N_7
REMARK    3  A    between atoms: C_8  and  C_10
REMARK    4  A    between atoms: C_10  and  S_11
REMARK    5  A    between atoms: S_11  and  C_12
REMARK    6  A    between atoms: C_15  and  C_16
REMARK                            x       y       z     vdW  Elec       q    Type
REMARK                         _______ _______ _______ _____ _____    ______ ____
ROOT
ATOM      1  N   UNL     1       3.697   5.682  18.283  0.00  0.00    +0.000 N 
ATOM      2  C   UNL     1       3.202   4.528  17.692  0.00  0.00    +0.000 C 
ATOM      3  O   UNL     1       2.011   4.271  17.514  0.00  0.00    +0.000 OA
ATOM      4  H   UNL     1       4.680   5.712  18.519  0.00  0.00    +0.000 HD
ENDROOT
BRANCH   1  10
ATOM      5  C   UNL     1      -0.419  10.401  22.092  0.00  0.00    +0.000 C 
ATOM      6  C   UNL     1       0.397   9.607  21.145  0.00  0.00    +0.000 A 
ATOM      7  N   UNL     1       0.924   8.422  21.369  0.00  0.00    +0.000 NA
ATOM      8  C   UNL     1       1.593   8.090  20.218  0.00  0.00    +0.000 A 
ATOM      9  C   UNL     1       2.337   6.940  19.918  0.00  0.00    +0.000 A 
ATOM     10  C   UNL     1       2.930   6.814  18.654  0.00  0.00    +0.000 A 
ATOM     11  C   UNL     1       2.751   7.828  17.701  0.00  0.00    +0.000 A 
ATOM     12  C   UNL     1       2.025   8.997  17.986  0.00  0.00    +0.000 A 
ATOM     13  C   UNL     1       1.461   9.086  19.260  0.00  0.00    +0.000 A 
ATOM     14  N   UNL     1       0.703  10.047  19.880  0.00  0.00    +0.000 N 
ATOM     15  H   UNL     1       0.414  10.925  19.476  0.00  0.00    +0.000 HD
ENDBRANCH   1  10
BRANCH   2  16
ATOM     16  C   UNL     1       4.271   3.519  17.300  0.00  0.00    +0.000 C 
BRANCH  16  17
ATOM     17  S   UNL     1       5.160   4.081  15.817  0.00  0.00    +0.000 S 
BRANCH  17  18
ATOM     18  C   UNL     1       6.037   5.438  16.477  0.00  0.00    +0.000 A 
ATOM     19  N   UNL     1       5.773   6.679  16.129  0.00  0.00    +0.000 NA
ATOM     20  N   UNL     1       6.563   7.588  16.807  0.00  0.00    +0.000 NA
ATOM     21  C   UNL     1       7.392   6.993  17.642  0.00  0.00    +0.000 A 
ATOM     22  C   UNL     1       8.358   7.694  18.524  0.00  0.00    +0.000 C 
ATOM     23  S   UNL     1       7.270   5.279  17.654  0.00  0.00    +0.000 S 
ENDBRANCH  17  18
ENDBRANCH  16  17
ENDBRANCH   2  16
TORSDOF 4
ENDMDL
MODEL 7
REMARK VINA RESULT:      -6.7      6.981      7.618
REMARK  Name = 
REMARK  6 active torsions:
REMARK  status: ('A' for Active; 'I' for Inactive)
REMARK    1  A    between atoms: C_1  and  C_2
REMARK    2  A    between atoms: C_6  and  N_7
REMARK    3  A    between atoms: C_8  and  C_10
REMARK    4  A    between atoms: C_10  and  S_11
REMARK    5  A    between atoms: S_11  and  C_12
REMARK    6  A    between atoms: C_15  and  C_16
REMARK                            x       y       z     vdW  Elec       q    Type
REMARK                         _______ _______ _______ _____ _____    ______ ____
ROOT
ATOM      1  N   UNL     1       8.966   8.849  19.138  0.00  0.00    +0.000 N 
ATOM      2  C   UNL     1       8.088   8.316  18.204  0.00  0.00    +0.000 C 
ATOM      3  O   UNL     1       7.424   8.964  17.396  0.00  0.00    +0.000 OA
ATOM      4  H   UNL     1       9.333   8.234  19.851  0.00  0.00    +0.000 HD
ENDROOT
BRANCH   1  10
ATOM      5  C   UNL     1      10.521  15.524  21.731  0.00  0.00    +0.000 C 
ATOM      6  C   UNL     1      10.266  14.266  20.994  0.00  0.00    +0.000 A 
ATOM      7  N   UNL     1       9.832  13.134  21.505  0.00  0.00    +0.000 NA
ATOM      8  C   UNL     1       9.754  12.257  20.453  0.00  0.00    +0.000 A 
ATOM      9  C   UNL     1       9.360  10.911  20.439  0.00  0.00    +0.000 A 
ATOM     10  C   UNL     1       9.350  10.209  19.226  0.00  0.00    +0.000 A 
ATOM     11  C   UNL     1       9.713  10.868  18.041  0.00  0.00    +0.000 A 
ATOM     12  C   UNL     1      10.129  12.211  18.035  0.00  0.00    +0.000 A 
ATOM     13  C   UNL     1      10.134  12.868  19.266  0.00  0.00    +0.000 A 
ATOM     14  N   UNL     1      10.466  14.146  19.640  0.00  0.00    +0.000 N 
ATOM     15  H   UNL     1      10.796  14.876  19.027  0.00  0.00    +0.000 HD
ENDBRANCH   1  10
BRANCH   2  16
ATOM     16  C   UNL     1       7.946   6.802  18.274  0.00  0.00    +0.000 C 
BRANCH  16  17
ATOM     17  S   UNL     1       6.243   6.306  17.872  0.00  0.00    +0.000 S 
BRANCH  17  18
ATOM     18  C   UNL     1       6.487   5.625  16.283  0.00  0.00    +0.000 A 
ATOM     19  N   UNL     1       7.562   5.878  15.570  0.00  0.00    +0.000 NA
ATOM     20  N   UNL     1       7.557   5.201  14.365  0.00  0.00    +0.000 NA
ATOM     21  C   UNL     1       6.476   4.460  14.221  0.00  0.00    +0.000 A 
ATOM     22  C   UNL     1       6.183   3.604  13.045  0.00  0.00    +0.000 C 
ATOM     23  S   UNL     1       5.383   4.545  15.544  0.00  0.00    +0.000 S 
ENDBRANCH  17  18
ENDBRANCH  16  17
ENDBRANCH   2  16
TORSDOF 4
ENDMDL
MODEL 8
REMARK VINA RESULT:      -6.6      6.812      7.700
REMARK  Name = 
REMARK  6 active torsions:
REMARK  status: ('A' for Active; 'I' for Inactive)
REMARK    1  A    between atoms: C_1  and  C_2
REMARK    2  A    between atoms: C_6  and  N_7
REMARK    3  A    between atoms: C_8  and  C_10
REMARK    4  A    between atoms: C_10  and  S_11
REMARK    5  A    between atoms: S_11  and  C_12
REMARK    6  A    between atoms: C_15  and  C_16
REMARK                            x       y       z     vdW  Elec       q    Type
REMARK                         _______ _______ _______ _____ _____    ______ ____
ROOT
ATOM      1  N   UNL     1       8.903   8.835  19.161  0.00  0.00    +0.000 N 
ATOM      2  C   UNL     1       8.116   8.246  18.182  0.00  0.00    +0.000 C 
ATOM      3  O   UNL     1       7.574   8.839  17.249  0.00  0.00    +0.000 OA
ATOM      4  H   UNL     1       9.164   8.276  19.963  0.00  0.00    +0.000 HD
ENDROOT
BRANCH   1  10
ATOM      5  C   UNL     1      11.293  15.439  17.069  0.00  0.00    +0.000 C 
ATOM      6  C   UNL     1      10.808  14.196  17.712  0.00  0.00    +0.000 A 
ATOM      7  N   UNL     1      10.557  13.052  17.114  0.00  0.00    +0.000 NA
ATOM      8  C   UNL     1      10.128  12.203  18.102  0.00  0.00    +0.000 A 
ATOM      9  C   UNL     1       9.720  10.864  18.014  0.00  0.00    +0.000 A 
ATOM     10  C   UNL     1       9.328  10.186  19.176  0.00  0.00    +0.000 A 
ATOM     11  C   UNL     1       9.371  10.848  20.412  0.00  0.00    +0.000 A 
ATOM     12  C   UNL     1       9.758  12.195  20.521  0.00  0.00    +0.000 A 
ATOM     13  C   UNL     1      10.130  12.835  19.337  0.00  0.00    +0.000 A 
ATOM     14  N   UNL     1      10.557  14.109  19.060  0.00  0.00    +0.000 N 
ATOM     15  H   UNL     1      10.673  14.854  19.730  0.00  0.00    +0.000 HD
ENDBRANCH   1  10
BRANCH   2  16
ATOM     16  C   UNL     1       7.907   6.750  18.364  0.00  0.00    +0.000 C 
BRANCH  16  17
ATOM     17  S   UNL     1       7.003   6.058  16.946  0.00  0.00    +0.000 S 
BRANCH  17  18
ATOM     18  C   UNL     1       6.004   4.881  17.761  0.00  0.00    +0.000 A 
ATOM     19  N   UNL     1       6.179   4.568  19.027  0.00  0.00    +0.000 NA
ATOM     20  N   UNL     1       5.250   3.647  19.468  0.00  0.00    +0.000 NA
ATOM     21  C   UNL     1       4.407   3.302  18.515  0.00  0.00    +0.000 A 
ATOM     22  C   UNL     1       3.285   2.344  18.677  0.00  0.00    +0.000 C 
ATOM     23  S   UNL     1       4.695   4.076  17.007  0.00  0.00    +0.000 S 
ENDBRANCH  17  18
ENDBRANCH  16  17
ENDBRANCH   2  16
TORSDOF 4
ENDMDL
MODEL 9
REMARK VINA RESULT:      -6.6      1.607      2.409
REMARK  Name = 
REMARK  6 active torsions:
REMARK  status: ('A' for Active; 'I' for Inactive)
REMARK    1  A    between atoms: C_1  and  C_2
REMARK    2  A    between atoms: C_6  and  N_7
REMARK    3  A    between atoms: C_8  and  C_10
REMARK    4  A    between atoms: C_10  and  S_11
REMARK    5  A    between atoms: S_11  and  C_12
REMARK    6  A    between atoms: C_15  and  C_16
REMARK                            x       y       z     vdW  Elec       q    Type
REMARK                         _______ _______ _______ _____ _____    ______ ____
ROOT
ATOM      1  N   UNL     1       3.280   6.154  19.339  0.00  0.00    +0.000 N 
ATOM      2  C   UNL     1       2.920   4.920  18.815  0.00  0.00    +0.000 C 
ATOM      3  O   UNL     1       1.768   4.549  18.590  0.00  0.00    +0.000 OA
ATOM      4  H   UNL     1       4.240   6.287  19.628  0.00  0.00    +0.000 HD
ENDROOT
BRANCH   1  10
ATOM      5  C   UNL     1      -0.645  12.284  18.483  0.00  0.00    +0.000 C 
ATOM      6  C   UNL     1       0.051  11.036  18.874  0.00  0.00    +0.000 A 
ATOM      7  N   UNL     1       0.910  10.358  18.145  0.00  0.00    +0.000 NA
ATOM      8  C   UNL     1       1.281   9.282  18.912  0.00  0.00    +0.000 A 
ATOM      9  C   UNL     1       2.167   8.236  18.615  0.00  0.00    +0.000 A 
ATOM     10  C   UNL     1       2.401   7.240  19.572  0.00  0.00    +0.000 A 
ATOM     11  C   UNL     1       1.764   7.315  20.820  0.00  0.00    +0.000 A 
ATOM     12  C   UNL     1       0.859   8.344  21.132  0.00  0.00    +0.000 A 
ATOM     13  C   UNL     1       0.647   9.309  20.146  0.00  0.00    +0.000 A 
ATOM     14  N   UNL     1      -0.140  10.431  20.093  0.00  0.00    +0.000 N 
ATOM     15  H   UNL     1      -0.752  10.761  20.824  0.00  0.00    +0.000 HD
ENDBRANCH   1  10
BRANCH   2  16
ATOM     16  C   UNL     1       4.091   3.981  18.569  0.00  0.00    +0.000 C 
BRANCH  16  17
ATOM     17  S   UNL     1       5.665   4.880  18.703  0.00  0.00    +0.000 S 
BRANCH  17  18
ATOM     18  C   UNL     1       6.187   4.843  17.038  0.00  0.00    +0.000 A 
ATOM     19  N   UNL     1       7.291   5.434  16.636  0.00  0.00    +0.000 NA
ATOM     20  N   UNL     1       7.523   5.239  15.288  0.00  0.00    +0.000 NA
ATOM     21  C   UNL     1       6.583   4.505  14.727  0.00  0.00    +0.000 A 
ATOM     22  C   UNL     1       6.555   4.106  13.298  0.00  0.00    +0.000 C 
ATOM     23  S   UNL     1       5.343   4.005  15.807  0.00  0.00    +0.000 S 
ENDBRANCH  17  18
ENDBRANCH  16  17
ENDBRANCH   2  16
TORSDOF 4
ENDMDL
