MODEL 1
REMARK VINA RESULT:      -7.8      0.000      0.000
REMARK  Name = 
REMARK  13 active torsions:
REMARK  status: ('A' for Active; 'I' for Inactive)
REMARK    1  A    between atoms: C_1  and  C_2
REMARK    2  A    between atoms: C_2  and  S_3
REMARK    3  A    between atoms: S_3  and  C_4
REMARK    4  A    between atoms: C_7  and  C_8
REMARK    5  A    between atoms: C_10  and  C_11
REMARK    6  A    between atoms: C_11  and  C_12
REMARK    7  A    between atoms: C_11  and  C_13
REMARK    8  A    between atoms: C_11  and  C_14
REMARK    9  A    between atoms: C_15  and  O_16
REMARK   10  A    between atoms: C_17  and  C_18
REMARK   11  A    between atoms: C_18  and  C_19
REMARK   12  A    between atoms: C_18  and  C_20
REMARK   13  A    between atoms: C_18  and  C_21
REMARK                            x       y       z     vdW  Elec       q    Type
REMARK                         _______ _______ _______ _____ _____    ______ ____
ROOT
ATOM      1  C   UNL     1       3.003   6.891  18.206  0.00  0.00    +0.000 A 
ATOM      2  C   UNL     1       4.264   6.751  17.623  0.00  0.00    +0.000 A 
ATOM      3  C   UNL     1       4.928   5.507  17.552  0.00  0.00    +0.000 A 
ATOM      4  C   UNL     1       4.238   4.389  18.092  0.00  0.00    +0.000 A 
ATOM      5  C   UNL     1       2.978   4.482  18.720  0.00  0.00    +0.000 A 
ATOM      6  C   UNL     1       2.377   5.756  18.737  0.00  0.00    +0.000 A 
ENDROOT
BRANCH   1  10
ATOM      7  C   UNL     1       0.688   9.737  19.014  0.00  0.00    +0.000 A 
ATOM      8  N   UNL     1       1.199  10.021  17.839  0.00  0.00    +0.000 NA
ATOM      9  N   UNL     1       2.182   9.116  17.484  0.00  0.00    +0.000 NA
ATOM     10  C   UNL     1       2.362   8.191  18.412  0.00  0.00    +0.000 A 
ATOM     11  S   UNL     1       1.521   8.526  19.880  0.00  0.00    +0.000 S 
BRANCH   7  12
ATOM     12  S   UNL     1      -0.775  10.471  19.614  0.00  0.00    +0.000 S 
BRANCH  12  14
ATOM     13  C   UNL     1      -2.740   9.890  17.697  0.00  0.00    +0.000 C 
ATOM     14  C   UNL     1      -1.604  10.846  18.030  0.00  0.00    +0.000 C 
ENDBRANCH  12  14
ENDBRANCH   7  12
ENDBRANCH   1  10
BRANCH   3  15
ATOM     15  C   UNL     1       6.384   5.472  17.015  0.00  0.00    +0.000 C 
ATOM     16  C   UNL     1       6.878   6.933  16.927  0.00  0.00    +0.000 C 
ATOM     17  C   UNL     1       7.380   4.671  17.882  0.00  0.00    +0.000 C 
ATOM     18  C   UNL     1       6.488   4.852  15.594  0.00  0.00    +0.000 C 
ENDBRANCH   3  15
BRANCH   5  19
ATOM     19  C   UNL     1       2.226   3.335  19.443  0.00  0.00    +0.000 C 
ATOM     20  C   UNL     1       3.007   2.594  20.549  0.00  0.00    +0.000 C 
ATOM     21  C   UNL     1       0.956   3.908  20.126  0.00  0.00    +0.000 C 
ATOM     22  C   UNL     1       1.795   2.263  18.415  0.00  0.00    +0.000 C 
ENDBRANCH   5  19
BRANCH   4  23
ATOM     23  O   UNL     1       4.824   3.167  18.005  0.00  0.00    +0.000 OA
ATOM     24  H   UNL     1       5.755   3.290  18.251  0.00  0.00    +0.000 HD
ENDBRANCH   4  23
TORSDOF 6
ENDMDL
MODEL 2
REMARK VINA RESULT:      -7.7      1.047      1.688
REMARK  Name = 
REMARK  13 active torsions:
REMARK  status: ('A' for Active; 'I' for Inactive)
REMARK    1  A    between atoms: C_1  and  C_2
REMARK    2  A    between atoms: C_2  and  S_3
REMARK    3  A    between atoms: S_3  and  C_4
REMARK    4  A    between atoms: C_7  and  C_8
REMARK    5  A    between atoms: C_10  and  C_11
REMARK    6  A    between atoms: C_11  and  C_12
REMARK    7  A    between atoms: C_11  and  C_13
REMARK    8  A    between atoms: C_11  and  C_14
REMARK    9  A    between atoms: C_15  and  O_16
REMARK   10  A    between atoms: C_17  and  C_18
REMARK   11  A    between atoms: C_18  and  C_19
REMARK   12  A    between atoms: C_18  and  C_20
REMARK   13  A    between atoms: C_18  and  C_21
REMARK                            x       y       z     vdW  Elec       q    Type
REMARK                         _______ _______ _______ _____ _____    ______ ____
ROOT
ATOM      1  C   UNL     1       3.000   6.890  18.223  0.00  0.00    +0.000 A 
ATOM      2  C   UNL     1       4.253   6.779  17.617  0.00  0.00    +0.000 A 
ATOM      3  C   UNL     1       4.921   5.542  17.485  0.00  0.00    +0.000 A 
ATOM      4  C   UNL     1       4.242   4.400  17.989  0.00  0.00    +0.000 A 
ATOM      5  C   UNL     1       2.991   4.462  18.638  0.00  0.00    +0.000 A 
ATOM      6  C   UNL     1       2.387   5.731  18.716  0.00  0.00    +0.000 A 
ENDROOT
BRANCH   1  10
ATOM      7  C   UNL     1       0.726   9.693  19.266  0.00  0.00    +0.000 A 
ATOM      8  N   UNL     1       1.100   9.979  18.040  0.00  0.00    +0.000 NA
ATOM      9  N   UNL     1       2.058   9.092  17.585  0.00  0.00    +0.000 NA
ATOM     10  C   UNL     1       2.357   8.177  18.492  0.00  0.00    +0.000 A 
ATOM     11  S   UNL     1       1.675   8.506  20.041  0.00  0.00    +0.000 S 
BRANCH   7  12
ATOM     12  S   UNL     1      -0.677  10.400  20.018  0.00  0.00    +0.000 S 
BRANCH  12  14
ATOM     13  C   UNL     1      -0.559  10.032  22.798  0.00  0.00    +0.000 C 
ATOM     14  C   UNL     1       0.030  10.833  21.646  0.00  0.00    +0.000 C 
ENDBRANCH  12  14
ENDBRANCH   7  12
ENDBRANCH   1  10
BRANCH   3  15
ATOM     15  C   UNL     1       6.369   5.535  16.926  0.00  0.00    +0.000 C 
ATOM     16  C   UNL     1       6.903   6.983  17.011  0.00  0.00    +0.000 C 
ATOM     17  C   UNL     1       7.352   4.607  17.673  0.00  0.00    +0.000 C 
ATOM     18  C   UNL     1       6.439   5.093  15.438  0.00  0.00    +0.000 C 
ENDBRANCH   3  15
BRANCH   5  19
ATOM     19  C   UNL     1       2.254   3.283  19.324  0.00  0.00    +0.000 C 
ATOM     20  C   UNL     1       1.825   2.117  18.409  0.00  0.00    +0.000 C 
ATOM     21  C   UNL     1       3.178   2.663  20.405  0.00  0.00    +0.000 C 
ATOM     22  C   UNL     1       0.968   3.800  20.009  0.00  0.00    +0.000 C 
ENDBRANCH   5  19
BRANCH   4  23
ATOM     23  O   UNL     1       4.832   3.185  17.843  0.00  0.00    +0.000 OA
ATOM     24  H   UNL     1       4.677   2.703  18.671  0.00  0.00    +0.000 HD
ENDBRANCH   4  23
TORSDOF 6
ENDMDL
MODEL 3
REMARK VINA RESULT:      -7.7      0.539      1.024
REMARK  Name = 
REMARK  13 active torsions:
REMARK  status: ('A' for Active; 'I' for Inactive)
REMARK    1  A    between atoms: C_1  and  C_2
REMARK    2  A    between atoms: C_2  and  S_3
REMARK    3  A    between atoms: S_3  and  C_4
REMARK    4  A    between atoms: C_7  and  C_8
REMARK    5  A    between atoms: C_10  and  C_11
REMARK    6  A    between atoms: C_11  and  C_12
REMARK    7  A    between atoms: C_11  and  C_13
REMARK    8  A    between atoms: C_11  and  C_14
REMARK    9  A    between atoms: C_15  and  O_16
REMARK   10  A    between atoms: C_17  and  C_18
REMARK   11  A    between atoms: C_18  and  C_19
REMARK   12  A    between atoms: C_18  and  C_20
REMARK   13  A    between atoms: C_18  and  C_21
REMARK                            x       y       z     vdW  Elec       q    Type
REMARK                         _______ _______ _______ _____ _____    ______ ____
ROOT
ATOM      1  C   UNL     1       2.935   6.611  18.189  0.00  0.00    +0.000 A 
ATOM      2  C   UNL     1       4.078   6.366  17.426  0.00  0.00    +0.000 A 
ATOM      3  C   UNL     1       4.651   5.080  17.316  0.00  0.00    +0.000 A 
ATOM      4  C   UNL     1       3.991   4.032  18.012  0.00  0.00    +0.000 A 
ATOM      5  C   UNL     1       2.853   4.231  18.821  0.00  0.00    +0.000 A 
ATOM      6  C   UNL     1       2.336   5.540  18.867  0.00  0.00    +0.000 A 
ENDROOT
BRANCH   1  10
ATOM      7  C   UNL     1       0.889   9.628  19.098  0.00  0.00    +0.000 A 
ATOM      8  N   UNL     1       1.379   9.879  17.907  0.00  0.00    +0.000 NA
ATOM      9  N   UNL     1       2.272   8.901  17.511  0.00  0.00    +0.000 NA
ATOM     10  C   UNL     1       2.409   7.956  18.426  0.00  0.00    +0.000 A 
ATOM     11  S   UNL     1       1.652   8.345  19.926  0.00  0.00    +0.000 S 
BRANCH   7  12
ATOM     12  S   UNL     1      -0.486  10.472  19.755  0.00  0.00    +0.000 S 
BRANCH  12  14
ATOM     13  C   UNL     1      -2.318  10.002  17.682  0.00  0.00    +0.000 C 
ATOM     14  C   UNL     1      -1.294  11.000  18.204  0.00  0.00    +0.000 C 
ENDBRANCH  12  14
ENDBRANCH   7  12
ENDBRANCH   1  10
BRANCH   3  15
ATOM     15  C   UNL     1       6.000   4.930  16.563  0.00  0.00    +0.000 C 
ATOM     16  C   UNL     1       6.301   6.283  15.882  0.00  0.00    +0.000 C 
ATOM     17  C   UNL     1       7.205   4.551  17.453  0.00  0.00    +0.000 C 
ATOM     18  C   UNL     1       5.954   3.843  15.453  0.00  0.00    +0.000 C 
ENDBRANCH   3  15
BRANCH   5  19
ATOM     19  C   UNL     1       2.160   3.166  19.709  0.00  0.00    +0.000 C 
ATOM     20  C   UNL     1       0.984   3.658  20.579  0.00  0.00    +0.000 C 
ATOM     21  C   UNL     1       1.584   2.044  18.805  0.00  0.00    +0.000 C 
ATOM     22  C   UNL     1       3.191   2.541  20.677  0.00  0.00    +0.000 C 
ENDBRANCH   5  19
BRANCH   4  23
ATOM     23  O   UNL     1       4.486   2.772  17.897  0.00  0.00    +0.000 OA
ATOM     24  H   UNL     1       4.797   2.681  16.982  0.00  0.00    +0.000 HD
ENDBRANCH   4  23
TORSDOF 6
ENDMDL
MODEL 4
REMARK VINA RESULT:      -7.7      0.721      3.894
REMARK  Name = 
REMARK  13 active torsions:
REMARK  status: ('A' for Active; 'I' for Inactive)
REMARK    1  A    between atoms: C_1  and  C_2
REMARK    2  A    between atoms: C_2  and  S_3
REMARK    3  A    between atoms: S_3  and  C_4
REMARK    4  A    between atoms: C_7  and  C_8
REMARK    5  A    between atoms: C_10  and  C_11
REMARK    6  A    between atoms: C_11  and  C_12
REMARK    7  A    between atoms: C_11  and  C_13
REMARK    8  A    between atoms: C_11  and  C_14
REMARK    9  A    between atoms: C_15  and  O_16
REMARK   10  A    between atoms: C_17  and  C_18
REMARK   11  A    between atoms: C_18  and  C_19
REMARK   12  A    between atoms: C_18  and  C_20
REMARK   13  A    between atoms: C_18  and  C_21
REMARK                            x       y       z     vdW  Elec       q    Type
REMARK                         _______ _______ _______ _____ _____    ______ ____
ROOT
ATOM      1  C   UNL     1       2.951   6.734  18.513  0.00  0.00    +0.000 A 
ATOM      2  C   UNL     1       2.395   5.681  19.241  0.00  0.00    +0.000 A 
ATOM      3  C   UNL     1       2.877   4.357  19.142  0.00  0.00    +0.000 A 
ATOM      4  C   UNL     1       3.977   4.148  18.268  0.00  0.00    +0.000 A 
ATOM      5  C   UNL     1       4.555   5.171  17.486  0.00  0.00    +0.000 A 
ATOM      6  C   UNL     1       4.026   6.465  17.655  0.00  0.00    +0.000 A 
ENDROOT
BRANCH   1  10
ATOM      7  C   UNL     1       0.764   9.779  18.756  0.00  0.00    +0.000 A 
ATOM      8  N   UNL     1       1.384   9.880  17.603  0.00  0.00    +0.000 NA
ATOM      9  N   UNL     1       2.332   8.886  17.450  0.00  0.00    +0.000 NA
ATOM     10  C   UNL     1       2.379   8.081  18.498  0.00  0.00    +0.000 A 
ATOM     11  S   UNL     1       1.449   8.649  19.835  0.00  0.00    +0.000 S 
BRANCH   7  12
ATOM     12  S   UNL     1      -0.691  10.661  19.130  0.00  0.00    +0.000 S 
BRANCH  12  14
ATOM     13  C   UNL     1      -2.389  11.194  16.961  0.00  0.00    +0.000 C 
ATOM     14  C   UNL     1      -1.767  10.071  17.777  0.00  0.00    +0.000 C 
ENDBRANCH  12  14
ENDBRANCH   7  12
ENDBRANCH   1  10
BRANCH   3  15
ATOM     15  C   UNL     1       2.107   3.229  19.880  0.00  0.00    +0.000 C 
ATOM     16  C   UNL     1       0.783   3.836  20.396  0.00  0.00    +0.000 C 
ATOM     17  C   UNL     1       1.774   1.993  19.016  0.00  0.00    +0.000 C 
ATOM     18  C   UNL     1       2.881   2.674  21.107  0.00  0.00    +0.000 C 
ENDBRANCH   3  15
BRANCH   5  19
ATOM     19  C   UNL     1       5.667   4.994  16.421  0.00  0.00    +0.000 C 
ATOM     20  C   UNL     1       5.652   3.670  15.627  0.00  0.00    +0.000 C 
ATOM     21  C   UNL     1       5.550   6.127  15.368  0.00  0.00    +0.000 C 
ATOM     22  C   UNL     1       7.055   5.085  17.095  0.00  0.00    +0.000 C 
ENDBRANCH   5  19
BRANCH   4  23
ATOM     23  O   UNL     1       4.498   2.897  18.177  0.00  0.00    +0.000 OA
ATOM     24  H   UNL     1       5.337   2.913  18.664  0.00  0.00    +0.000 HD
ENDBRANCH   4  23
TORSDOF 6
ENDMDL
MODEL 5
REMARK VINA RESULT:      -7.6      1.043      1.666
REMARK  Name = 
REMARK  13 active torsions:
REMARK  status: ('A' for Active; 'I' for Inactive)
REMARK    1  A    between atoms: C_1  and  C_2
REMARK    2  A    between atoms: C_2  and  S_3
REMARK    3  A    between atoms: S_3  and  C_4
REMARK    4  A    between atoms: C_7  and  C_8
REMARK    5  A    between atoms: C_10  and  C_11
REMARK    6  A    between atoms: C_11  and  C_12
REMARK    7  A    between atoms: C_11  and  C_13
REMARK    8  A    between atoms: C_11  and  C_14
REMARK    9  A    between atoms: C_15  and  O_16
REMARK   10  A    between atoms: C_17  and  C_18
REMARK   11  A    between atoms: C_18  and  C_19
REMARK   12  A    between atoms: C_18  and  C_20
REMARK   13  A    between atoms: C_18  and  C_21
REMARK                            x       y       z     vdW  Elec       q    Type
REMARK                         _______ _______ _______ _____ _____    ______ ____
ROOT
ATOM      1  C   UNL     1       3.040   6.929  18.193  0.00  0.00    +0.000 A 
ATOM      2  C   UNL     1       4.308   6.837  17.617  0.00  0.00    +0.000 A 
ATOM      3  C   UNL     1       4.999   5.610  17.504  0.00  0.00    +0.000 A 
ATOM      4  C   UNL     1       4.327   4.458  17.993  0.00  0.00    +0.000 A 
ATOM      5  C   UNL     1       3.059   4.501  18.611  0.00  0.00    +0.000 A 
ATOM      6  C   UNL     1       2.433   5.760  18.673  0.00  0.00    +0.000 A 
ENDROOT
BRANCH   1  10
ATOM      7  C   UNL     1       0.723   9.700  19.225  0.00  0.00    +0.000 A 
ATOM      8  N   UNL     1       1.049   9.958  17.980  0.00  0.00    +0.000 NA
ATOM      9  N   UNL     1       2.017   9.083  17.520  0.00  0.00    +0.000 NA
ATOM     10  C   UNL     1       2.370   8.206  18.444  0.00  0.00    +0.000 A 
ATOM     11  S   UNL     1       1.728   8.563  20.004  0.00  0.00    +0.000 S 
BRANCH   7  12
ATOM     12  S   UNL     1      -0.676  10.392  20.001  0.00  0.00    +0.000 S 
BRANCH  12  14
ATOM     13  C   UNL     1      -0.537   9.984  22.774  0.00  0.00    +0.000 C 
ATOM     14  C   UNL     1       0.045  10.800  21.629  0.00  0.00    +0.000 C 
ENDBRANCH  12  14
ENDBRANCH   7  12
ENDBRANCH   1  10
BRANCH   3  15
ATOM     15  C   UNL     1       6.460   5.626  16.980  0.00  0.00    +0.000 C 
ATOM     16  C   UNL     1       6.424   5.189  15.498  0.00  0.00    +0.000 C 
ATOM     17  C   UNL     1       7.170   6.995  17.069  0.00  0.00    +0.000 C 
ATOM     18  C   UNL     1       7.384   4.635  17.741  0.00  0.00    +0.000 C 
ENDBRANCH   3  15
BRANCH   5  19
ATOM     19  C   UNL     1       2.324   3.312  19.282  0.00  0.00    +0.000 C 
ATOM     20  C   UNL     1       3.094   2.571  20.396  0.00  0.00    +0.000 C 
ATOM     21  C   UNL     1       1.013   3.823  19.933  0.00  0.00    +0.000 C 
ATOM     22  C   UNL     1       1.967   2.250  18.215  0.00  0.00    +0.000 C 
ENDBRANCH   5  19
BRANCH   4  23
ATOM     23  O   UNL     1       4.938   3.252  17.863  0.00  0.00    +0.000 OA
ATOM     24  H   UNL     1       4.975   2.866  18.753  0.00  0.00    +0.000 HD
ENDBRANCH   4  23
TORSDOF 6
ENDMDL
MODEL 6
REMARK VINA RESULT:      -7.6      1.163      1.675
REMARK  Name = 
REMARK  13 active torsions:
REMARK  status: ('A' for Active; 'I' for Inactive)
REMARK    1  A    between atoms: C_1  and  C_2
REMARK    2  A    between atoms: C_2  and  S_3
REMARK    3  A    between atoms: S_3  and  C_4
REMARK    4  A    between atoms: C_7  and  C_8
REMARK    5  A    between atoms: C_10  and  C_11
REMARK    6  A    between atoms: C_11  and  C_12
REMARK    7  A    between atoms: C_11  and  C_13
REMARK    8  A    between atoms: C_11  and  C_14
REMARK    9  A    between atoms: C_15  and  O_16
REMARK   10  A    between atoms: C_17  and  C_18
REMARK   11  A    between atoms: C_18  and  C_19
REMARK   12  A    between atoms: C_18  and  C_20
REMARK   13  A    between atoms: C_18  and  C_21
REMARK                            x       y       z     vdW  Elec       q    Type
REMARK                         _______ _______ _______ _____ _____    ______ ____
ROOT
ATOM      1  C   UNL     1       2.906   6.612  18.242  0.00  0.00    +0.000 A 
ATOM      2  C   UNL     1       4.039   6.361  17.466  0.00  0.00    +0.000 A 
ATOM      3  C   UNL     1       4.609   5.073  17.358  0.00  0.00    +0.000 A 
ATOM      4  C   UNL     1       3.958   4.031  18.071  0.00  0.00    +0.000 A 
ATOM      5  C   UNL     1       2.830   4.237  18.893  0.00  0.00    +0.000 A 
ATOM      6  C   UNL     1       2.315   5.547  18.935  0.00  0.00    +0.000 A 
ENDROOT
BRANCH   1  10
ATOM      7  C   UNL     1       0.885   9.638  19.176  0.00  0.00    +0.000 A 
ATOM      8  N   UNL     1       1.328   9.870  17.962  0.00  0.00    +0.000 NA
ATOM      9  N   UNL     1       2.208   8.888  17.550  0.00  0.00    +0.000 NA
ATOM     10  C   UNL     1       2.384   7.960  18.475  0.00  0.00    +0.000 A 
ATOM     11  S   UNL     1       1.684   8.373  19.996  0.00  0.00    +0.000 S 
BRANCH   7  12
ATOM     12  S   UNL     1      -0.467  10.490  19.871  0.00  0.00    +0.000 S 
BRANCH  12  14
ATOM     13  C   UNL     1      -0.537  10.163  22.657  0.00  0.00    +0.000 C 
ATOM     14  C   UNL     1       0.213  10.852  21.527  0.00  0.00    +0.000 C 
ENDBRANCH  12  14
ENDBRANCH   7  12
ENDBRANCH   1  10
BRANCH   3  15
ATOM     15  C   UNL     1       5.948   4.916  16.590  0.00  0.00    +0.000 C 
ATOM     16  C   UNL     1       7.046   4.611  17.633  0.00  0.00    +0.000 C 
ATOM     17  C   UNL     1       5.962   3.797  15.525  0.00  0.00    +0.000 C 
ATOM     18  C   UNL     1       6.364   6.207  15.831  0.00  0.00    +0.000 C 
ENDBRANCH   3  15
BRANCH   5  19
ATOM     19  C   UNL     1       2.147   3.179  19.797  0.00  0.00    +0.000 C 
ATOM     20  C   UNL     1       3.034   2.529  20.881  0.00  0.00    +0.000 C 
ATOM     21  C   UNL     1       0.963   3.840  20.551  0.00  0.00    +0.000 C 
ATOM     22  C   UNL     1       1.599   2.024  18.928  0.00  0.00    +0.000 C 
ENDBRANCH   5  19
BRANCH   4  23
ATOM     23  O   UNL     1       4.449   2.769  17.959  0.00  0.00    +0.000 OA
ATOM     24  H   UNL     1       4.697   2.653  17.027  0.00  0.00    +0.000 HD
ENDBRANCH   4  23
TORSDOF 6
ENDMDL
MODEL 7
REMARK VINA RESULT:      -7.6      0.672      3.868
REMARK  Name = 
REMARK  13 active torsions:
REMARK  status: ('A' for Active; 'I' for Inactive)
REMARK    1  A    between atoms: C_1  and  C_2
REMARK    2  A    between atoms: C_2  and  S_3
REMARK    3  A    between atoms: S_3  and  C_4
REMARK    4  A    between atoms: C_7  and  C_8
REMARK    5  A    between atoms: C_10  and  C_11
REMARK    6  A    between atoms: C_11  and  C_12
REMARK    7  A    between atoms: C_11  and  C_13
REMARK    8  A    between atoms: C_11  and  C_14
REMARK    9  A    between atoms: C_15  and  O_16
REMARK   10  A    between atoms: C_17  and  C_18
REMARK   11  A    between atoms: C_18  and  C_19
REMARK   12  A    between atoms: C_18  and  C_20
REMARK   13  A    between atoms: C_18  and  C_21
REMARK                            x       y       z     vdW  Elec       q    Type
REMARK                         _______ _______ _______ _____ _____    ______ ____
ROOT
ATOM      1  C   UNL     1       3.034   6.645  18.593  0.00  0.00    +0.000 A 
ATOM      2  C   UNL     1       2.445   5.596  19.302  0.00  0.00    +0.000 A 
ATOM      3  C   UNL     1       2.958   4.280  19.267  0.00  0.00    +0.000 A 
ATOM      4  C   UNL     1       4.123   4.076  18.481  0.00  0.00    +0.000 A 
ATOM      5  C   UNL     1       4.738   5.094  17.721  0.00  0.00    +0.000 A 
ATOM      6  C   UNL     1       4.173   6.380  17.822  0.00  0.00    +0.000 A 
ENDROOT
BRANCH   1  10
ATOM      7  C   UNL     1       0.781   9.651  18.618  0.00  0.00    +0.000 A 
ATOM      8  N   UNL     1       1.471   9.736  17.504  0.00  0.00    +0.000 NA
ATOM      9  N   UNL     1       2.445   8.757  17.439  0.00  0.00    +0.000 NA
ATOM     10  C   UNL     1       2.439   7.980  18.508  0.00  0.00    +0.000 A 
ATOM     11  S   UNL     1       1.415   8.561  19.768  0.00  0.00    +0.000 S 
BRANCH   7  12
ATOM     12  S   UNL     1      -0.712  10.512  18.876  0.00  0.00    +0.000 S 
BRANCH  12  14
ATOM     13  C   UNL     1      -3.103   9.771  17.608  0.00  0.00    +0.000 C 
ATOM     14  C   UNL     1      -1.620  10.016  17.371  0.00  0.00    +0.000 C 
ENDBRANCH  12  14
ENDBRANCH   7  12
ENDBRANCH   1  10
BRANCH   3  15
ATOM     15  C   UNL     1       2.157   3.153  19.971  0.00  0.00    +0.000 C 
ATOM     16  C   UNL     1       1.917   2.037  18.929  0.00  0.00    +0.000 C 
ATOM     17  C   UNL     1       2.852   2.530  21.203  0.00  0.00    +0.000 C 
ATOM     18  C   UNL     1       0.768   3.627  20.482  0.00  0.00    +0.000 C 
ENDBRANCH   3  15
BRANCH   5  19
ATOM     19  C   UNL     1       5.928   4.918  16.744  0.00  0.00    +0.000 C 
ATOM     20  C   UNL     1       7.286   4.548  17.377  0.00  0.00    +0.000 C 
ATOM     21  C   UNL     1       5.599   3.783  15.738  0.00  0.00    +0.000 C 
ATOM     22  C   UNL     1       6.154   6.229  15.955  0.00  0.00    +0.000 C 
ENDBRANCH   5  19
BRANCH   4  23
ATOM     23  O   UNL     1       4.673   2.834  18.455  0.00  0.00    +0.000 OA
ATOM     24  H   UNL     1       4.131   2.307  17.846  0.00  0.00    +0.000 HD
ENDBRANCH   4  23
TORSDOF 6
ENDMDL
MODEL 8
REMARK VINA RESULT:      -7.6      0.618      1.002
REMARK  Name = 
REMARK  13 active torsions:
REMARK  status: ('A' for Active; 'I' for Inactive)
REMARK    1  A    between atoms: C_1  and  C_2
REMARK    2  A    between atoms: C_2  and  S_3
REMARK    3  A    between atoms: S_3  and  C_4
REMARK    4  A    between atoms: C_7  and  C_8
REMARK    5  A    between atoms: C_10  and  C_11
REMARK    6  A    between atoms: C_11  and  C_12
REMARK    7  A    between atoms: C_11  and  C_13
REMARK    8  A    between atoms: C_11  and  C_14
REMARK    9  A    between atoms: C_15  and  O_16
REMARK   10  A    between atoms: C_17  and  C_18
REMARK   11  A    between atoms: C_18  and  C_19
REMARK   12  A    between atoms: C_18  and  C_20
REMARK   13  A    between atoms: C_18  and  C_21
REMARK                            x       y       z     vdW  Elec       q    Type
REMARK                         _______ _______ _______ _____ _____    ______ ____
ROOT
ATOM      1  C   UNL     1       2.954   6.608  18.177  0.00  0.00    +0.000 A 
ATOM      2  C   UNL     1       4.093   6.334  17.417  0.00  0.00    +0.000 A 
ATOM      3  C   UNL     1       4.649   5.039  17.330  0.00  0.00    +0.000 A 
ATOM      4  C   UNL     1       3.978   4.012  18.047  0.00  0.00    +0.000 A 
ATOM      5  C   UNL     1       2.844   4.241  18.854  0.00  0.00    +0.000 A 
ATOM      6  C   UNL     1       2.344   5.557  18.876  0.00  0.00    +0.000 A 
ENDROOT
BRANCH   1  10
ATOM      7  C   UNL     1       0.938   9.667  19.008  0.00  0.00    +0.000 A 
ATOM      8  N   UNL     1       1.463   9.900  17.828  0.00  0.00    +0.000 NA
ATOM      9  N   UNL     1       2.349   8.903  17.464  0.00  0.00    +0.000 NA
ATOM     10  C   UNL     1       2.446   7.963  18.389  0.00  0.00    +0.000 A 
ATOM     11  S   UNL     1       1.656   8.378  19.866  0.00  0.00    +0.000 S 
BRANCH   7  12
ATOM     12  S   UNL     1      -0.440  10.540  19.621  0.00  0.00    +0.000 S 
BRANCH  12  14
ATOM     13  C   UNL     1      -2.094  11.596  17.616  0.00  0.00    +0.000 C 
ATOM     14  C   UNL     1      -1.603  10.295  18.234  0.00  0.00    +0.000 C 
ENDBRANCH  12  14
ENDBRANCH   7  12
ENDBRANCH   1  10
BRANCH   3  15
ATOM     15  C   UNL     1       5.995   4.857  16.578  0.00  0.00    +0.000 C 
ATOM     16  C   UNL     1       7.079   4.556  17.637  0.00  0.00    +0.000 C 
ATOM     17  C   UNL     1       6.008   3.724  15.529  0.00  0.00    +0.000 C 
ATOM     18  C   UNL     1       6.431   6.134  15.807  0.00  0.00    +0.000 C 
ENDBRANCH   3  15
BRANCH   5  19
ATOM     19  C   UNL     1       2.139   3.201  19.763  0.00  0.00    +0.000 C 
ATOM     20  C   UNL     1       3.001   2.567  20.875  0.00  0.00    +0.000 C 
ATOM     21  C   UNL     1       0.942   3.879  20.481  0.00  0.00    +0.000 C 
ATOM     22  C   UNL     1       1.604   2.033  18.903  0.00  0.00    +0.000 C 
ENDBRANCH   5  19
BRANCH   4  23
ATOM     23  O   UNL     1       4.456   2.744  17.955  0.00  0.00    +0.000 OA
ATOM     24  H   UNL     1       5.419   2.820  17.855  0.00  0.00    +0.000 HD
ENDBRANCH   4  23
TORSDOF 6
ENDMDL
MODEL 9
REMARK VINA RESULT:      -7.6      1.245      1.788
REMARK  Name = 
REMARK  13 active torsions:
REMARK  status: ('A' for Active; 'I' for Inactive)
REMARK    1  A    between atoms: C_1  and  C_2
REMARK    2  A    between atoms: C_2  and  S_3
REMARK    3  A    between atoms: S_3  and  C_4
REMARK    4  A    between atoms: C_7  and  C_8
REMARK    5  A    between atoms: C_10  and  C_11
REMARK    6  A    between atoms: C_11  and  C_12
REMARK    7  A    between atoms: C_11  and  C_13
REMARK    8  A    between atoms: C_11  and  C_14
REMARK    9  A    between atoms: C_15  and  O_16
REMARK   10  A    between atoms: C_17  and  C_18
REMARK   11  A    between atoms: C_18  and  C_19
REMARK   12  A    between atoms: C_18  and  C_20
REMARK   13  A    between atoms: C_18  and  C_21
REMARK                            x       y       z     vdW  Elec       q    Type
REMARK                         _______ _______ _______ _____ _____    ______ ____
ROOT
ATOM      1  C   UNL     1       2.823   6.706  18.200  0.00  0.00    +0.000 A 
ATOM      2  C   UNL     1       3.934   6.501  17.381  0.00  0.00    +0.000 A 
ATOM      3  C   UNL     1       4.513   5.225  17.200  0.00  0.00    +0.000 A 
ATOM      4  C   UNL     1       3.894   4.146  17.886  0.00  0.00    +0.000 A 
ATOM      5  C   UNL     1       2.790   4.304  18.750  0.00  0.00    +0.000 A 
ATOM      6  C   UNL     1       2.264   5.606  18.865  0.00  0.00    +0.000 A 
ENDROOT
BRANCH   1  10
ATOM      7  C   UNL     1       0.830   9.666  19.377  0.00  0.00    +0.000 A 
ATOM      8  N   UNL     1       1.154   9.930  18.132  0.00  0.00    +0.000 NA
ATOM      9  N   UNL     1       2.014   8.976  17.621  0.00  0.00    +0.000 NA
ATOM     10  C   UNL     1       2.295   8.036  18.507  0.00  0.00    +0.000 A 
ATOM     11  S   UNL     1       1.730   8.406  20.094  0.00  0.00    +0.000 S 
BRANCH   7  12
ATOM     12  S   UNL     1      -0.470  10.472  20.209  0.00  0.00    +0.000 S 
BRANCH  12  14
ATOM     13  C   UNL     1      -0.976  10.672  22.962  0.00  0.00    +0.000 C 
ATOM     14  C   UNL     1      -0.021  10.081  21.936  0.00  0.00    +0.000 C 
ENDBRANCH  12  14
ENDBRANCH   7  12
ENDBRANCH   1  10
BRANCH   3  15
ATOM     15  C   UNL     1       5.830   5.116  16.385  0.00  0.00    +0.000 C 
ATOM     16  C   UNL     1       6.204   6.542  15.920  0.00  0.00    +0.000 C 
ATOM     17  C   UNL     1       7.029   4.523  17.158  0.00  0.00    +0.000 C 
ATOM     18  C   UNL     1       5.682   4.230  15.117  0.00  0.00    +0.000 C 
ENDBRANCH   3  15
BRANCH   5  19
ATOM     19  C   UNL     1       2.146   3.201  19.628  0.00  0.00    +0.000 C 
ATOM     20  C   UNL     1       1.026   3.656  20.588  0.00  0.00    +0.000 C 
ATOM     21  C   UNL     1       1.514   2.122  18.711  0.00  0.00    +0.000 C 
ATOM     22  C   UNL     1       3.230   2.533  20.505  0.00  0.00    +0.000 C 
ENDBRANCH   5  19
BRANCH   4  23
ATOM     23  O   UNL     1       4.395   2.896  17.705  0.00  0.00    +0.000 OA
ATOM     24  H   UNL     1       5.331   2.936  17.958  0.00  0.00    +0.000 HD
ENDBRANCH   4  23
TORSDOF 6
ENDMDL
