MODEL 1
REMARK VINA RESULT:      -8.0      0.000      0.000
REMARK  Name = 
REMARK  12 active torsions:
REMARK  status: ('A' for Active; 'I' for Inactive)
REMARK    1  A    between atoms: C_1  and  C_2
REMARK    2  A    between atoms: C_4  and  C_5
REMARK    3  A    between atoms: C_8  and  O_9
REMARK    4  A    between atoms: O_9  and  C_10
REMARK    5  A    between atoms: C_10  and  C_11
REMARK    6  A    between atoms: C_11  and  C_12
REMARK    7  A    between atoms: C_11  and  N_13
REMARK    8  A    between atoms: C_11  and  C_14
REMARK    9  A    between atoms: C_14  and  C_15
REMARK   10  A    between atoms: C_15  and  C_16
REMARK   11  A    between atoms: C_15  and  C_17
REMARK   12  A    between atoms: C_18  and  C_19
REMARK                            x       y       z     vdW  Elec       q    Type
REMARK                         _______ _______ _______ _____ _____    ______ ____
ROOT
ATOM      1  C   UNL     1       2.068   7.969  19.195  0.00  0.00    +0.000 A 
ATOM      2  C   UNL     1       2.665   8.352  17.990  0.00  0.00    +0.000 A 
ATOM      3  C   UNL     1       3.467   7.470  17.269  0.00  0.00    +0.000 A 
ATOM      4  C   UNL     1       3.685   6.161  17.715  0.00  0.00    +0.000 A 
ATOM      5  C   UNL     1       3.155   5.763  18.947  0.00  0.00    +0.000 A 
ATOM      6  C   UNL     1       2.346   6.675  19.666  0.00  0.00    +0.000 A 
ENDROOT
BRANCH   1  10
ATOM      7  C   UNL     1      -0.139   9.478  23.439  0.00  0.00    +0.000 C 
ATOM      8  C   UNL     1       0.118   9.631  21.969  0.00  0.00    +0.000 A 
ATOM      9  C   UNL     1       0.982   8.765  21.307  0.00  0.00    +0.000 A 
ATOM     10  C   UNL     1       1.185   8.898  19.925  0.00  0.00    +0.000 A 
ATOM     11  C   UNL     1       0.505   9.934  19.274  0.00  0.00    +0.000 A 
ATOM     12  C   UNL     1      -0.325  10.761  20.012  0.00  0.00    +0.000 A 
ATOM     13  N   UNL     1      -0.536  10.630  21.338  0.00  0.00    +0.000 NA
ENDBRANCH   1  10
BRANCH   5  14
ATOM     14  C   UNL     1       3.375   4.403  19.563  0.00  0.00    +0.000 C 
ATOM     15  F   UNL     1       4.666   3.990  19.671  0.00  0.00    +0.000 F 
ATOM     16  F   UNL     1       2.857   4.331  20.826  0.00  0.00    +0.000 F 
ATOM     17  F   UNL     1       2.736   3.419  18.862  0.00  0.00    +0.000 F 
ENDBRANCH   5  14
BRANCH   4  18
ATOM     18  O   UNL     1       4.406   5.255  16.979  0.00  0.00    +0.000 OA
BRANCH  18  19
ATOM     19  C   UNL     1       5.326   5.851  16.042  0.00  0.00    +0.000 C 
BRANCH  19  20
ATOM     20  C   UNL     1       6.578   4.956  15.818  0.00  0.00    +0.000 C 
ATOM     21  C   UNL     1       6.138   3.534  15.441  0.00  0.00    +0.000 C 
BRANCH  20  22
ATOM     22  N   UNL     1       7.347   5.540  14.705  0.00  0.00    +0.000 NA
ATOM     23  H   UNL     1       8.263   5.822  15.070  0.00  0.00    +0.000 HD
ATOM     24  H   UNL     1       6.917   6.413  14.405  0.00  0.00    +0.000 HD
ENDBRANCH  20  22
BRANCH  20  25
ATOM     25  C   UNL     1       7.386   4.971  17.150  0.00  0.00    +0.000 C 
BRANCH  25  26
ATOM     26  C   UNL     1       7.129   6.082  18.192  0.00  0.00    +0.000 C 
ATOM     27  C   UNL     1       7.686   5.768  19.579  0.00  0.00    +0.000 C 
ATOM     28  C   UNL     1       7.766   7.390  17.696  0.00  0.00    +0.000 C 
ENDBRANCH  25  26
ENDBRANCH  20  25
ENDBRANCH  19  20
ENDBRANCH  18  19
ENDBRANCH   4  18
TORSDOF 8
ENDMDL
MODEL 2
REMARK VINA RESULT:      -8.0      0.377      1.464
REMARK  Name = 
REMARK  12 active torsions:
REMARK  status: ('A' for Active; 'I' for Inactive)
REMARK    1  A    between atoms: C_1  and  C_2
REMARK    2  A    between atoms: C_4  and  C_5
REMARK    3  A    between atoms: C_8  and  O_9
REMARK    4  A    between atoms: O_9  and  C_10
REMARK    5  A    between atoms: C_10  and  C_11
REMARK    6  A    between atoms: C_11  and  C_12
REMARK    7  A    between atoms: C_11  and  N_13
REMARK    8  A    between atoms: C_11  and  C_14
REMARK    9  A    between atoms: C_14  and  C_15
REMARK   10  A    between atoms: C_15  and  C_16
REMARK   11  A    between atoms: C_15  and  C_17
REMARK   12  A    between atoms: C_18  and  C_19
REMARK                            x       y       z     vdW  Elec       q    Type
REMARK                         _______ _______ _______ _____ _____    ______ ____
ROOT
ATOM      1  C   UNL     1       2.094   7.805  19.413  0.00  0.00    +0.000 A 
ATOM      2  C   UNL     1       2.612   8.275  18.202  0.00  0.00    +0.000 A 
ATOM      3  C   UNL     1       3.367   7.452  17.371  0.00  0.00    +0.000 A 
ATOM      4  C   UNL     1       3.615   6.116  17.708  0.00  0.00    +0.000 A 
ATOM      5  C   UNL     1       3.166   5.628  18.940  0.00  0.00    +0.000 A 
ATOM      6  C   UNL     1       2.403   6.483  19.772  0.00  0.00    +0.000 A 
ENDROOT
BRANCH   1  10
ATOM      7  C   UNL     1      -1.097  11.639  19.937  0.00  0.00    +0.000 C 
ATOM      8  C   UNL     1      -0.282  10.522  20.520  0.00  0.00    +0.000 A 
ATOM      9  C   UNL     1       0.472   9.692  19.699  0.00  0.00    +0.000 A 
ATOM     10  C   UNL     1       1.258   8.675  20.261  0.00  0.00    +0.000 A 
ATOM     11  C   UNL     1       1.223   8.534  21.653  0.00  0.00    +0.000 A 
ATOM     12  C   UNL     1       0.431   9.394  22.396  0.00  0.00    +0.000 A 
ATOM     13  N   UNL     1      -0.314  10.383  21.863  0.00  0.00    +0.000 NA
ENDBRANCH   1  10
BRANCH   5  14
ATOM     14  C   UNL     1       3.426   4.230  19.443  0.00  0.00    +0.000 C 
ATOM     15  F   UNL     1       2.900   3.215  18.706  0.00  0.00    +0.000 F 
ATOM     16  F   UNL     1       4.764   3.966  19.532  0.00  0.00    +0.000 F 
ATOM     17  F   UNL     1       2.945   4.048  20.709  0.00  0.00    +0.000 F 
ENDBRANCH   5  14
BRANCH   4  18
ATOM     18  O   UNL     1       4.288   5.267  16.865  0.00  0.00    +0.000 OA
BRANCH  18  19
ATOM     19  C   UNL     1       5.295   5.911  16.057  0.00  0.00    +0.000 C 
BRANCH  19  20
ATOM     20  C   UNL     1       6.520   4.983  15.819  0.00  0.00    +0.000 C 
ATOM     21  C   UNL     1       6.038   3.572  15.455  0.00  0.00    +0.000 C 
BRANCH  20  22
ATOM     22  N   UNL     1       7.288   5.543  14.692  0.00  0.00    +0.000 NA
ATOM     23  H   UNL     1       6.801   6.385  14.368  0.00  0.00    +0.000 HD
ATOM     24  H   UNL     1       7.248   4.909  13.895  0.00  0.00    +0.000 HD
ENDBRANCH  20  22
BRANCH  20  25
ATOM     25  C   UNL     1       7.348   4.983  17.139  0.00  0.00    +0.000 C 
BRANCH  25  26
ATOM     26  C   UNL     1       7.095   6.072  18.204  0.00  0.00    +0.000 C 
ATOM     27  C   UNL     1       7.553   5.680  19.608  0.00  0.00    +0.000 C 
ATOM     28  C   UNL     1       7.832   7.356  17.793  0.00  0.00    +0.000 C 
ENDBRANCH  25  26
ENDBRANCH  20  25
ENDBRANCH  19  20
ENDBRANCH  18  19
ENDBRANCH   4  18
TORSDOF 8
ENDMDL
MODEL 3
REMARK VINA RESULT:      -7.6      0.239      1.038
REMARK  Name = 
REMARK  12 active torsions:
REMARK  status: ('A' for Active; 'I' for Inactive)
REMARK    1  A    between atoms: C_1  and  C_2
REMARK    2  A    between atoms: C_4  and  C_5
REMARK    3  A    between atoms: C_8  and  O_9
REMARK    4  A    between atoms: O_9  and  C_10
REMARK    5  A    between atoms: C_10  and  C_11
REMARK    6  A    between atoms: C_11  and  C_12
REMARK    7  A    between atoms: C_11  and  N_13
REMARK    8  A    between atoms: C_11  and  C_14
REMARK    9  A    between atoms: C_14  and  C_15
REMARK   10  A    between atoms: C_15  and  C_16
REMARK   11  A    between atoms: C_15  and  C_17
REMARK   12  A    between atoms: C_18  and  C_19
REMARK                            x       y       z     vdW  Elec       q    Type
REMARK                         _______ _______ _______ _____ _____    ______ ____
ROOT
ATOM      1  C   UNL     1       2.098   7.960  19.177  0.00  0.00    +0.000 A 
ATOM      2  C   UNL     1       2.758   8.336  18.003  0.00  0.00    +0.000 A 
ATOM      3  C   UNL     1       3.557   7.435  17.303  0.00  0.00    +0.000 A 
ATOM      4  C   UNL     1       3.710   6.114  17.739  0.00  0.00    +0.000 A 
ATOM      5  C   UNL     1       3.115   5.719  18.943  0.00  0.00    +0.000 A 
ATOM      6  C   UNL     1       2.310   6.652  19.641  0.00  0.00    +0.000 A 
ENDROOT
BRANCH   1  10
ATOM      7  C   UNL     1      -0.145   9.554  23.370  0.00  0.00    +0.000 C 
ATOM      8  C   UNL     1       0.135   9.685  21.902  0.00  0.00    +0.000 A 
ATOM      9  C   UNL     1       0.994   8.799  21.263  0.00  0.00    +0.000 A 
ATOM     10  C   UNL     1       1.219   8.911  19.883  0.00  0.00    +0.000 A 
ATOM     11  C   UNL     1       0.564   9.949  19.209  0.00  0.00    +0.000 A 
ATOM     12  C   UNL     1      -0.263  10.798  19.926  0.00  0.00    +0.000 A 
ATOM     13  N   UNL     1      -0.495  10.686  21.250  0.00  0.00    +0.000 NA
ENDBRANCH   1  10
BRANCH   5  14
ATOM     14  C   UNL     1       3.261   4.345  19.548  0.00  0.00    +0.000 C 
ATOM     15  F   UNL     1       2.641   3.327  18.893  0.00  0.00    +0.000 F 
ATOM     16  F   UNL     1       4.572   3.974  19.650  0.00  0.00    +0.000 F 
ATOM     17  F   UNL     1       2.780   4.300  20.827  0.00  0.00    +0.000 F 
ENDBRANCH   5  14
BRANCH   4  18
ATOM     18  O   UNL     1       4.427   5.191  17.021  0.00  0.00    +0.000 OA
BRANCH  18  19
ATOM     19  C   UNL     1       5.334   5.766  16.057  0.00  0.00    +0.000 C 
BRANCH  19  20
ATOM     20  C   UNL     1       6.577   4.860  15.827  0.00  0.00    +0.000 C 
ATOM     21  C   UNL     1       6.147   3.553  15.145  0.00  0.00    +0.000 C 
BRANCH  20  22
ATOM     22  N   UNL     1       7.500   5.591  14.941  0.00  0.00    +0.000 NA
ATOM     23  H   UNL     1       8.452   5.453  15.296  0.00  0.00    +0.000 HD
ATOM     24  H   UNL     1       7.344   6.594  15.027  0.00  0.00    +0.000 HD
ENDBRANCH  20  22
BRANCH  20  25
ATOM     25  C   UNL     1       7.207   4.595  17.227  0.00  0.00    +0.000 C 
BRANCH  25  26
ATOM     26  C   UNL     1       7.768   5.774  18.052  0.00  0.00    +0.000 C 
ATOM     27  C   UNL     1       7.387   7.148  17.503  0.00  0.00    +0.000 C 
ATOM     28  C   UNL     1       7.252   5.666  19.495  0.00  0.00    +0.000 C 
ENDBRANCH  25  26
ENDBRANCH  20  25
ENDBRANCH  19  20
ENDBRANCH  18  19
ENDBRANCH   4  18
TORSDOF 8
ENDMDL
MODEL 4
REMARK VINA RESULT:      -7.5      1.477      2.118
REMARK  Name = 
REMARK  12 active torsions:
REMARK  status: ('A' for Active; 'I' for Inactive)
REMARK    1  A    between atoms: C_1  and  C_2
REMARK    2  A    between atoms: C_4  and  C_5
REMARK    3  A    between atoms: C_8  and  O_9
REMARK    4  A    between atoms: O_9  and  C_10
REMARK    5  A    between atoms: C_10  and  C_11
REMARK    6  A    between atoms: C_11  and  C_12
REMARK    7  A    between atoms: C_11  and  N_13
REMARK    8  A    between atoms: C_11  and  C_14
REMARK    9  A    between atoms: C_14  and  C_15
REMARK   10  A    between atoms: C_15  and  C_16
REMARK   11  A    between atoms: C_15  and  C_17
REMARK   12  A    between atoms: C_18  and  C_19
REMARK                            x       y       z     vdW  Elec       q    Type
REMARK                         _______ _______ _______ _____ _____    ______ ____
ROOT
ATOM      1  C   UNL     1       1.396   8.104  20.399  0.00  0.00    +0.000 A 
ATOM      2  C   UNL     1       2.024   8.406  19.187  0.00  0.00    +0.000 A 
ATOM      3  C   UNL     1       2.595   7.408  18.401  0.00  0.00    +0.000 A 
ATOM      4  C   UNL     1       2.539   6.063  18.786  0.00  0.00    +0.000 A 
ATOM      5  C   UNL     1       1.974   5.730  20.021  0.00  0.00    +0.000 A 
ATOM      6  C   UNL     1       1.402   6.760  20.807  0.00  0.00    +0.000 A 
ENDROOT
BRANCH   1  10
ATOM      7  C   UNL     1       0.170  12.917  21.093  0.00  0.00    +0.000 C 
ATOM      8  C   UNL     1       0.160  11.485  21.539  0.00  0.00    +0.000 A 
ATOM      9  C   UNL     1       0.740  10.495  20.753  0.00  0.00    +0.000 A 
ATOM     10  C   UNL     1       0.756   9.165  21.199  0.00  0.00    +0.000 A 
ATOM     11  C   UNL     1       0.155   8.896  22.434  0.00  0.00    +0.000 A 
ATOM     12  C   UNL     1      -0.414   9.939  23.146  0.00  0.00    +0.000 A 
ATOM     13  N   UNL     1      -0.419  11.222  22.730  0.00  0.00    +0.000 NA
ENDBRANCH   1  10
BRANCH   5  14
ATOM     14  C   UNL     1       1.914   4.328  20.574  0.00  0.00    +0.000 C 
ATOM     15  F   UNL     1       2.580   3.372  19.872  0.00  0.00    +0.000 F 
ATOM     16  F   UNL     1       2.411   4.264  21.846  0.00  0.00    +0.000 F 
ATOM     17  F   UNL     1       0.628   3.876  20.674  0.00  0.00    +0.000 F 
ENDBRANCH   5  14
BRANCH   4  18
ATOM     18  O   UNL     1       3.025   5.059  17.987  0.00  0.00    +0.000 OA
BRANCH  18  19
ATOM     19  C   UNL     1       4.151   5.443  17.172  0.00  0.00    +0.000 C 
BRANCH  19  20
ATOM     20  C   UNL     1       5.391   4.545  17.447  0.00  0.00    +0.000 C 
ATOM     21  C   UNL     1       5.348   4.030  18.893  0.00  0.00    +0.000 C 
BRANCH  20  22
ATOM     22  N   UNL     1       5.324   3.401  16.520  0.00  0.00    +0.000 NA
ATOM     23  H   UNL     1       6.121   2.787  16.719  0.00  0.00    +0.000 HD
ATOM     24  H   UNL     1       5.484   3.717  15.564  0.00  0.00    +0.000 HD
ENDBRANCH  20  22
BRANCH  20  25
ATOM     25  C   UNL     1       6.651   5.424  17.189  0.00  0.00    +0.000 C 
BRANCH  25  26
ATOM     26  C   UNL     1       7.078   6.479  18.234  0.00  0.00    +0.000 C 
ATOM     27  C   UNL     1       8.118   5.973  19.232  0.00  0.00    +0.000 C 
ATOM     28  C   UNL     1       7.657   7.701  17.505  0.00  0.00    +0.000 C 
ENDBRANCH  25  26
ENDBRANCH  20  25
ENDBRANCH  19  20
ENDBRANCH  18  19
ENDBRANCH   4  18
TORSDOF 8
ENDMDL
MODEL 5
REMARK VINA RESULT:      -7.5      1.191      1.717
REMARK  Name = 
REMARK  12 active torsions:
REMARK  status: ('A' for Active; 'I' for Inactive)
REMARK    1  A    between atoms: C_1  and  C_2
REMARK    2  A    between atoms: C_4  and  C_5
REMARK    3  A    between atoms: C_8  and  O_9
REMARK    4  A    between atoms: O_9  and  C_10
REMARK    5  A    between atoms: C_10  and  C_11
REMARK    6  A    between atoms: C_11  and  C_12
REMARK    7  A    between atoms: C_11  and  N_13
REMARK    8  A    between atoms: C_11  and  C_14
REMARK    9  A    between atoms: C_14  and  C_15
REMARK   10  A    between atoms: C_15  and  C_16
REMARK   11  A    between atoms: C_15  and  C_17
REMARK   12  A    between atoms: C_18  and  C_19
REMARK                            x       y       z     vdW  Elec       q    Type
REMARK                         _______ _______ _______ _____ _____    ______ ____
ROOT
ATOM      1  C   UNL     1       1.590   8.223  20.110  0.00  0.00    +0.000 A 
ATOM      2  C   UNL     1       2.138   8.674  18.906  0.00  0.00    +0.000 A 
ATOM      3  C   UNL     1       2.754   7.795  18.018  0.00  0.00    +0.000 A 
ATOM      4  C   UNL     1       2.824   6.423  18.290  0.00  0.00    +0.000 A 
ATOM      5  C   UNL     1       2.342   5.945  19.513  0.00  0.00    +0.000 A 
ATOM      6  C   UNL     1       1.724   6.856  20.404  0.00  0.00    +0.000 A 
ENDROOT
BRANCH   1  10
ATOM      7  C   UNL     1      -0.220  12.787  21.137  0.00  0.00    +0.000 C 
ATOM      8  C   UNL     1       0.025  11.357  21.520  0.00  0.00    +0.000 A 
ATOM      9  C   UNL     1       0.645  10.483  20.634  0.00  0.00    +0.000 A 
ATOM     10  C   UNL     1       0.901   9.158  21.020  0.00  0.00    +0.000 A 
ATOM     11  C   UNL     1       0.490   8.772  22.300  0.00  0.00    +0.000 A 
ATOM     12  C   UNL     1      -0.137   9.703  23.114  0.00  0.00    +0.000 A 
ATOM     13  N   UNL     1      -0.371  10.981  22.755  0.00  0.00    +0.000 NA
ENDBRANCH   1  10
BRANCH   5  14
ATOM     14  C   UNL     1       2.421   4.503  19.949  0.00  0.00    +0.000 C 
ATOM     15  F   UNL     1       3.668   3.999  20.151  0.00  0.00    +0.000 F 
ATOM     16  F   UNL     1       1.743   4.289  21.116  0.00  0.00    +0.000 F 
ATOM     17  F   UNL     1       1.833   3.666  19.041  0.00  0.00    +0.000 F 
ENDBRANCH   5  14
BRANCH   4  18
ATOM     18  O   UNL     1       3.354   5.531  17.393  0.00  0.00    +0.000 OA
BRANCH  18  19
ATOM     19  C   UNL     1       4.760   5.267  17.581  0.00  0.00    +0.000 C 
BRANCH  19  20
ATOM     20  C   UNL     1       5.579   5.575  16.295  0.00  0.00    +0.000 C 
ATOM     21  C   UNL     1       5.541   4.363  15.353  0.00  0.00    +0.000 C 
BRANCH  20  22
ATOM     22  N   UNL     1       4.945   6.729  15.632  0.00  0.00    +0.000 NA
ATOM     23  H   UNL     1       4.841   7.474  16.329  0.00  0.00    +0.000 HD
ATOM     24  H   UNL     1       3.988   6.497  15.369  0.00  0.00    +0.000 HD
ENDBRANCH  20  22
BRANCH  20  25
ATOM     25  C   UNL     1       7.032   5.899  16.753  0.00  0.00    +0.000 C 
BRANCH  25  26
ATOM     26  C   UNL     1       7.267   6.755  18.018  0.00  0.00    +0.000 C 
ATOM     27  C   UNL     1       8.088   6.050  19.096  0.00  0.00    +0.000 C 
ATOM     28  C   UNL     1       7.994   8.048  17.620  0.00  0.00    +0.000 C 
ENDBRANCH  25  26
ENDBRANCH  20  25
ENDBRANCH  19  20
ENDBRANCH  18  19
ENDBRANCH   4  18
TORSDOF 8
ENDMDL
MODEL 6
REMARK VINA RESULT:      -7.5      1.114      1.248
REMARK  Name = 
REMARK  12 active torsions:
REMARK  status: ('A' for Active; 'I' for Inactive)
REMARK    1  A    between atoms: C_1  and  C_2
REMARK    2  A    between atoms: C_4  and  C_5
REMARK    3  A    between atoms: C_8  and  O_9
REMARK    4  A    between atoms: O_9  and  C_10
REMARK    5  A    between atoms: C_10  and  C_11
REMARK    6  A    between atoms: C_11  and  C_12
REMARK    7  A    between atoms: C_11  and  N_13
REMARK    8  A    between atoms: C_11  and  C_14
REMARK    9  A    between atoms: C_14  and  C_15
REMARK   10  A    between atoms: C_15  and  C_16
REMARK   11  A    between atoms: C_15  and  C_17
REMARK   12  A    between atoms: C_18  and  C_19
REMARK                            x       y       z     vdW  Elec       q    Type
REMARK                         _______ _______ _______ _____ _____    ______ ____
ROOT
ATOM      1  C   UNL     1       1.484   9.031  19.263  0.00  0.00    +0.000 A 
ATOM      2  C   UNL     1       2.068   9.257  18.013  0.00  0.00    +0.000 A 
ATOM      3  C   UNL     1       2.818   8.271  17.376  0.00  0.00    +0.000 A 
ATOM      4  C   UNL     1       2.994   7.009  17.956  0.00  0.00    +0.000 A 
ATOM      5  C   UNL     1       2.477   6.767  19.234  0.00  0.00    +0.000 A 
ATOM      6  C   UNL     1       1.722   7.784  19.866  0.00  0.00    +0.000 A 
ENDROOT
BRANCH   1  10
ATOM      7  C   UNL     1      -1.160  10.710  23.181  0.00  0.00    +0.000 C 
ATOM      8  C   UNL     1      -0.620  10.884  21.792  0.00  0.00    +0.000 A 
ATOM      9  C   UNL     1       0.188   9.909  21.218  0.00  0.00    +0.000 A 
ATOM     10  C   UNL     1       0.655  10.068  19.905  0.00  0.00    +0.000 A 
ATOM     11  C   UNL     1       0.290  11.240  19.233  0.00  0.00    +0.000 A 
ATOM     12  C   UNL     1      -0.506  12.169  19.884  0.00  0.00    +0.000 A 
ATOM     13  N   UNL     1      -0.971  12.014  21.140  0.00  0.00    +0.000 NA
ENDBRANCH   1  10
BRANCH   5  14
ATOM     14  C   UNL     1       2.658   5.473  19.989  0.00  0.00    +0.000 C 
ATOM     15  F   UNL     1       3.939   5.059  20.181  0.00  0.00    +0.000 F 
ATOM     16  F   UNL     1       2.098   5.533  21.234  0.00  0.00    +0.000 F 
ATOM     17  F   UNL     1       2.028   4.432  19.368  0.00  0.00    +0.000 F 
ENDBRANCH   5  14
BRANCH   4  18
ATOM     18  O   UNL     1       3.661   5.999  17.310  0.00  0.00    +0.000 OA
BRANCH  18  19
ATOM     19  C   UNL     1       4.734   6.450  16.457  0.00  0.00    +0.000 C 
BRANCH  19  20
ATOM     20  C   UNL     1       5.756   5.313  16.171  0.00  0.00    +0.000 C 
ATOM     21  C   UNL     1       5.292   4.017  16.851  0.00  0.00    +0.000 C 
BRANCH  20  22
ATOM     22  N   UNL     1       5.797   5.111  14.712  0.00  0.00    +0.000 NA
ATOM     23  H   UNL     1       4.859   4.832  14.406  0.00  0.00    +0.000 HD
ATOM     24  H   UNL     1       6.383   4.309  14.487  0.00  0.00    +0.000 HD
ENDBRANCH  20  22
BRANCH  20  25
ATOM     25  C   UNL     1       7.130   5.791  16.728  0.00  0.00    +0.000 C 
BRANCH  25  26
ATOM     26  C   UNL     1       7.187   6.601  18.042  0.00  0.00    +0.000 C 
ATOM     27  C   UNL     1       7.887   5.872  19.187  0.00  0.00    +0.000 C 
ATOM     28  C   UNL     1       7.924   7.924  17.784  0.00  0.00    +0.000 C 
ENDBRANCH  25  26
ENDBRANCH  20  25
ENDBRANCH  19  20
ENDBRANCH  18  19
ENDBRANCH   4  18
TORSDOF 8
ENDMDL
MODEL 7
REMARK VINA RESULT:      -7.5      1.703      7.591
REMARK  Name = 
REMARK  12 active torsions:
REMARK  status: ('A' for Active; 'I' for Inactive)
REMARK    1  A    between atoms: C_1  and  C_2
REMARK    2  A    between atoms: C_4  and  C_5
REMARK    3  A    between atoms: C_8  and  O_9
REMARK    4  A    between atoms: O_9  and  C_10
REMARK    5  A    between atoms: C_10  and  C_11
REMARK    6  A    between atoms: C_11  and  C_12
REMARK    7  A    between atoms: C_11  and  N_13
REMARK    8  A    between atoms: C_11  and  C_14
REMARK    9  A    between atoms: C_14  and  C_15
REMARK   10  A    between atoms: C_15  and  C_16
REMARK   11  A    between atoms: C_15  and  C_17
REMARK   12  A    between atoms: C_18  and  C_19
REMARK                            x       y       z     vdW  Elec       q    Type
REMARK                         _______ _______ _______ _____ _____    ______ ____
ROOT
ATOM      1  C   UNL     1       4.182   5.769  17.902  0.00  0.00    +0.000 A 
ATOM      2  C   UNL     1       3.706   7.083  17.859  0.00  0.00    +0.000 A 
ATOM      3  C   UNL     1       2.714   7.522  18.733  0.00  0.00    +0.000 A 
ATOM      4  C   UNL     1       2.174   6.667  19.701  0.00  0.00    +0.000 A 
ATOM      5  C   UNL     1       2.580   5.329  19.733  0.00  0.00    +0.000 A 
ATOM      6  C   UNL     1       3.587   4.902  18.834  0.00  0.00    +0.000 A 
ENDROOT
BRANCH   1  10
ATOM      7  C   UNL     1       5.732   3.952  13.491  0.00  0.00    +0.000 C 
ATOM      8  C   UNL     1       6.018   4.456  14.875  0.00  0.00    +0.000 A 
ATOM      9  C   UNL     1       4.986   4.896  15.696  0.00  0.00    +0.000 A 
ATOM     10  C   UNL     1       5.264   5.331  17.001  0.00  0.00    +0.000 A 
ATOM     11  C   UNL     1       6.603   5.315  17.410  0.00  0.00    +0.000 A 
ATOM     12  C   UNL     1       7.571   4.876  16.522  0.00  0.00    +0.000 A 
ATOM     13  N   UNL     1       7.308   4.443  15.273  0.00  0.00    +0.000 NA
ENDBRANCH   1  10
BRANCH   5  14
ATOM     14  C   UNL     1       2.025   4.298  20.685  0.00  0.00    +0.000 C 
ATOM     15  F   UNL     1       0.671   4.180  20.725  0.00  0.00    +0.000 F 
ATOM     16  F   UNL     1       2.496   3.046  20.406  0.00  0.00    +0.000 F 
ATOM     17  F   UNL     1       2.407   4.540  21.975  0.00  0.00    +0.000 F 
ENDBRANCH   5  14
BRANCH   4  18
ATOM     18  O   UNL     1       1.255   7.103  20.622  0.00  0.00    +0.000 OA
BRANCH  18  19
ATOM     19  C   UNL     1       1.727   8.171  21.469  0.00  0.00    +0.000 C 
BRANCH  19  20
ATOM     20  C   UNL     1       0.595   9.188  21.794  0.00  0.00    +0.000 C 
ATOM     21  C   UNL     1      -0.762   8.470  21.799  0.00  0.00    +0.000 C 
BRANCH  20  22
ATOM     22  N   UNL     1       0.863   9.735  23.136  0.00  0.00    +0.000 NA
ATOM     23  H   UNL     1       0.235  10.532  23.282  0.00  0.00    +0.000 HD
ATOM     24  H   UNL     1       1.796  10.142  23.167  0.00  0.00    +0.000 HD
ENDBRANCH  20  22
BRANCH  20  25
ATOM     25  C   UNL     1       0.655  10.293  20.697  0.00  0.00    +0.000 C 
BRANCH  25  26
ATOM     26  C   UNL     1      -0.480  10.402  19.655  0.00  0.00    +0.000 C 
ATOM     27  C   UNL     1      -1.076  11.803  19.535  0.00  0.00    +0.000 C 
ATOM     28  C   UNL     1       0.062   9.984  18.279  0.00  0.00    +0.000 C 
ENDBRANCH  25  26
ENDBRANCH  20  25
ENDBRANCH  19  20
ENDBRANCH  18  19
ENDBRANCH   4  18
TORSDOF 8
ENDMDL
MODEL 8
REMARK VINA RESULT:      -7.5      1.141      2.627
REMARK  Name = 
REMARK  12 active torsions:
REMARK  status: ('A' for Active; 'I' for Inactive)
REMARK    1  A    between atoms: C_1  and  C_2
REMARK    2  A    between atoms: C_4  and  C_5
REMARK    3  A    between atoms: C_8  and  O_9
REMARK    4  A    between atoms: O_9  and  C_10
REMARK    5  A    between atoms: C_10  and  C_11
REMARK    6  A    between atoms: C_11  and  C_12
REMARK    7  A    between atoms: C_11  and  N_13
REMARK    8  A    between atoms: C_11  and  C_14
REMARK    9  A    between atoms: C_14  and  C_15
REMARK   10  A    between atoms: C_15  and  C_16
REMARK   11  A    between atoms: C_15  and  C_17
REMARK   12  A    between atoms: C_18  and  C_19
REMARK                            x       y       z     vdW  Elec       q    Type
REMARK                         _______ _______ _______ _____ _____    ______ ____
ROOT
ATOM      1  C   UNL     1       2.044   7.695  19.443  0.00  0.00    +0.000 A 
ATOM      2  C   UNL     1       2.828   8.080  18.351  0.00  0.00    +0.000 A 
ATOM      3  C   UNL     1       3.605   7.155  17.657  0.00  0.00    +0.000 A 
ATOM      4  C   UNL     1       3.609   5.802  18.013  0.00  0.00    +0.000 A 
ATOM      5  C   UNL     1       2.885   5.390  19.138  0.00  0.00    +0.000 A 
ATOM      6  C   UNL     1       2.106   6.347  19.833  0.00  0.00    +0.000 A 
ENDROOT
BRANCH   1  10
ATOM      7  C   UNL     1      -0.243  12.155  19.617  0.00  0.00    +0.000 C 
ATOM      8  C   UNL     1       0.085  10.825  20.229  0.00  0.00    +0.000 A 
ATOM      9  C   UNL     1       0.862   9.901  19.540  0.00  0.00    +0.000 A 
ATOM     10  C   UNL     1       1.192   8.676  20.140  0.00  0.00    +0.000 A 
ATOM     11  C   UNL     1       0.692   8.437  21.425  0.00  0.00    +0.000 A 
ATOM     12  C   UNL     1      -0.088   9.406  22.034  0.00  0.00    +0.000 A 
ATOM     13  N   UNL     1      -0.396  10.591  21.469  0.00  0.00    +0.000 NA
ENDBRANCH   1  10
BRANCH   5  14
ATOM     14  C   UNL     1       2.864   3.975  19.659  0.00  0.00    +0.000 C 
ATOM     15  F   UNL     1       2.553   3.003  18.759  0.00  0.00    +0.000 F 
ATOM     16  F   UNL     1       4.070   3.613  20.190  0.00  0.00    +0.000 F 
ATOM     17  F   UNL     1       1.969   3.824  20.681  0.00  0.00    +0.000 F 
ENDBRANCH   5  14
BRANCH   4  18
ATOM     18  O   UNL     1       4.303   4.863  17.293  0.00  0.00    +0.000 OA
BRANCH  18  19
ATOM     19  C   UNL     1       5.640   4.615  17.777  0.00  0.00    +0.000 C 
BRANCH  19  20
ATOM     20  C   UNL     1       6.716   5.125  16.777  0.00  0.00    +0.000 C 
ATOM     21  C   UNL     1       7.191   6.524  17.195  0.00  0.00    +0.000 C 
BRANCH  20  22
ATOM     22  N   UNL     1       7.852   4.188  16.832  0.00  0.00    +0.000 NA
ATOM     23  H   UNL     1       8.223   4.198  17.788  0.00  0.00    +0.000 HD
ATOM     24  H   UNL     1       8.620   4.537  16.261  0.00  0.00    +0.000 HD
ENDBRANCH  20  22
BRANCH  20  25
ATOM     25  C   UNL     1       6.050   5.144  15.369  0.00  0.00    +0.000 C 
BRANCH  25  26
ATOM     26  C   UNL     1       6.652   4.301  14.223  0.00  0.00    +0.000 C 
ATOM     27  C   UNL     1       5.610   3.739  13.257  0.00  0.00    +0.000 C 
ATOM     28  C   UNL     1       7.637   5.170  13.426  0.00  0.00    +0.000 C 
ENDBRANCH  25  26
ENDBRANCH  20  25
ENDBRANCH  19  20
ENDBRANCH  18  19
ENDBRANCH   4  18
TORSDOF 8
ENDMDL
MODEL 9
REMARK VINA RESULT:      -7.5      0.466      1.654
REMARK  Name = 
REMARK  12 active torsions:
REMARK  status: ('A' for Active; 'I' for Inactive)
REMARK    1  A    between atoms: C_1  and  C_2
REMARK    2  A    between atoms: C_4  and  C_5
REMARK    3  A    between atoms: C_8  and  O_9
REMARK    4  A    between atoms: O_9  and  C_10
REMARK    5  A    between atoms: C_10  and  C_11
REMARK    6  A    between atoms: C_11  and  C_12
REMARK    7  A    between atoms: C_11  and  N_13
REMARK    8  A    between atoms: C_11  and  C_14
REMARK    9  A    between atoms: C_14  and  C_15
REMARK   10  A    between atoms: C_15  and  C_16
REMARK   11  A    between atoms: C_15  and  C_17
REMARK   12  A    between atoms: C_18  and  C_19
REMARK                            x       y       z     vdW  Elec       q    Type
REMARK                         _______ _______ _______ _____ _____    ______ ____
ROOT
ATOM      1  C   UNL     1       1.976   7.916  19.496  0.00  0.00    +0.000 A 
ATOM      2  C   UNL     1       2.473   8.325  18.255  0.00  0.00    +0.000 A 
ATOM      3  C   UNL     1       3.200   7.457  17.445  0.00  0.00    +0.000 A 
ATOM      4  C   UNL     1       3.439   6.133  17.835  0.00  0.00    +0.000 A 
ATOM      5  C   UNL     1       3.010   5.706  19.096  0.00  0.00    +0.000 A 
ATOM      6  C   UNL     1       2.277   6.606  19.906  0.00  0.00    +0.000 A 
ENDROOT
BRANCH   1  10
ATOM      7  C   UNL     1      -0.990  11.936  19.941  0.00  0.00    +0.000 C 
ATOM      8  C   UNL     1      -0.263  10.770  20.543  0.00  0.00    +0.000 A 
ATOM      9  C   UNL     1       0.464   9.897  19.741  0.00  0.00    +0.000 A 
ATOM     10  C   UNL     1       1.169   8.833  20.323  0.00  0.00    +0.000 A 
ATOM     11  C   UNL     1       1.084   8.690  21.712  0.00  0.00    +0.000 A 
ATOM     12  C   UNL     1       0.324   9.595  22.435  0.00  0.00    +0.000 A 
ATOM     13  N   UNL     1      -0.343  10.629  21.884  0.00  0.00    +0.000 NA
ENDBRANCH   1  10
BRANCH   5  14
ATOM     14  C   UNL     1       3.265   4.328  19.654  0.00  0.00    +0.000 C 
ATOM     15  F   UNL     1       2.813   4.093  20.915  0.00  0.00    +0.000 F 
ATOM     16  F   UNL     1       2.704   3.355  18.875  0.00  0.00    +0.000 F 
ATOM     17  F   UNL     1       4.598   4.031  19.684  0.00  0.00    +0.000 F 
ENDBRANCH   5  14
BRANCH   4  18
ATOM     18  O   UNL     1       4.083   5.240  17.016  0.00  0.00    +0.000 OA
BRANCH  18  19
ATOM     19  C   UNL     1       5.067   5.838  16.146  0.00  0.00    +0.000 C 
BRANCH  19  20
ATOM     20  C   UNL     1       6.353   4.968  16.051  0.00  0.00    +0.000 C 
ATOM     21  C   UNL     1       6.023   3.626  15.382  0.00  0.00    +0.000 C 
BRANCH  20  22
ATOM     22  N   UNL     1       7.324   5.702  15.221  0.00  0.00    +0.000 NA
ATOM     23  H   UNL     1       6.833   6.040  14.386  0.00  0.00    +0.000 HD
ATOM     24  H   UNL     1       8.026   5.060  14.856  0.00  0.00    +0.000 HD
ENDBRANCH  20  22
BRANCH  20  25
ATOM     25  C   UNL     1       6.871   4.769  17.507  0.00  0.00    +0.000 C 
BRANCH  25  26
ATOM     26  C   UNL     1       7.784   5.837  18.150  0.00  0.00    +0.000 C 
ATOM     27  C   UNL     1       7.359   7.273  17.850  0.00  0.00    +0.000 C 
ATOM     28  C   UNL     1       7.790   5.639  19.674  0.00  0.00    +0.000 C 
ENDBRANCH  25  26
ENDBRANCH  20  25
ENDBRANCH  19  20
ENDBRANCH  18  19
ENDBRANCH   4  18
TORSDOF 8
ENDMDL
