MODEL 1
REMARK VINA RESULT:      -7.9      0.000      0.000
REMARK  Name = 
REMARK  6 active torsions:
REMARK  status: ('A' for Active; 'I' for Inactive)
REMARK    1  A    between atoms: C_1  and  O_2
REMARK    2  A    between atoms: O_2  and  C_3
REMARK    3  A    between atoms: C_6  and  C_7
REMARK    4  A    between atoms: C_7  and  O_8
REMARK    5  A    between atoms: O_8  and  C_9
REMARK    6  A    between atoms: C_14  and  C_15
REMARK                            x       y       z     vdW  Elec       q    Type
REMARK                         _______ _______ _______ _____ _____    ______ ____
ROOT
ATOM      1  C   UNL     1       2.897   4.853  17.991  0.00  0.00    +0.000 C 
ATOM      2  C   UNL     1       1.502   4.197  17.884  0.00  0.00    +0.000 C 
ATOM      3  N   UNL     1       1.144   3.393  19.068  0.00  0.00    +0.000 NA
ATOM      4  C   UNL     1       1.261   4.137  20.323  0.00  0.00    +0.000 C 
ATOM      5  C   UNL     1       2.601   4.849  20.493  0.00  0.00    +0.000 C 
ATOM      6  C   UNL     1       3.007   5.702  19.281  0.00  0.00    +0.000 C 
ATOM      7  H   UNL     1       1.809   2.615  19.100  0.00  0.00    +0.000 HD
ENDROOT
BRANCH   6   8
ATOM      8  C   UNL     1       2.358   7.079  19.198  0.00  0.00    +0.000 A 
ATOM      9  C   UNL     1       2.363   7.761  17.965  0.00  0.00    +0.000 A 
ATOM     10  C   UNL     1       1.803   9.031  17.839  0.00  0.00    +0.000 A 
ATOM     11  C   UNL     1       1.221   9.647  18.943  0.00  0.00    +0.000 A 
ATOM     12 CL   UNL     1       0.542  11.217  18.797  0.00  0.00    +0.000 Cl
ATOM     13  C   UNL     1       1.192   8.989  20.166  0.00  0.00    +0.000 A 
ATOM     14  C   UNL     1       1.754   7.720  20.292  0.00  0.00    +0.000 A 
ENDBRANCH   6   8
BRANCH   1  15
ATOM     15  O   UNL     1       3.830   3.751  18.003  0.00  0.00    +0.000 OA
BRANCH  15  16
ATOM     16  C   UNL     1       4.874   3.828  17.036  0.00  0.00    +0.000 C 
BRANCH  16  20
ATOM     17  C   UNL     1       7.642   6.960  18.127  0.00  0.00    +0.000 A 
ATOM     18  C   UNL     1       7.526   5.821  18.925  0.00  0.00    +0.000 A 
ATOM     19  C   UNL     1       6.646   4.796  18.574  0.00  0.00    +0.000 A 
ATOM     20  C   UNL     1       5.847   4.909  17.431  0.00  0.00    +0.000 A 
ATOM     21  C   UNL     1       5.971   6.055  16.631  0.00  0.00    +0.000 A 
ATOM     22  C   UNL     1       6.858   7.076  16.981  0.00  0.00    +0.000 A 
BRANCH  17  24
ATOM     23  C   UNL     1       8.305   9.225  18.087  0.00  0.00    +0.000 C 
ATOM     24  O   UNL     1       8.514   7.909  18.586  0.00  0.00    +0.000 OA
ENDBRANCH  17  24
ENDBRANCH  16  20
ENDBRANCH  15  16
ENDBRANCH   1  15
TORSDOF 5
ENDMDL
MODEL 2
REMARK VINA RESULT:      -7.9      0.178      1.430
REMARK  Name = 
REMARK  6 active torsions:
REMARK  status: ('A' for Active; 'I' for Inactive)
REMARK    1  A    between atoms: C_1  and  O_2
REMARK    2  A    between atoms: O_2  and  C_3
REMARK    3  A    between atoms: C_6  and  C_7
REMARK    4  A    between atoms: C_7  and  O_8
REMARK    5  A    between atoms: O_8  and  C_9
REMARK    6  A    between atoms: C_14  and  C_15
REMARK                            x       y       z     vdW  Elec       q    Type
REMARK                         _______ _______ _______ _____ _____    ______ ____
ROOT
ATOM      1  C   UNL     1       2.883   4.951  18.020  0.00  0.00    +0.000 C 
ATOM      2  C   UNL     1       1.492   4.296  17.854  0.00  0.00    +0.000 C 
ATOM      3  N   UNL     1       1.093   3.476  19.014  0.00  0.00    +0.000 NA
ATOM      4  C   UNL     1       1.166   4.203  20.283  0.00  0.00    +0.000 C 
ATOM      5  C   UNL     1       2.499   4.912  20.509  0.00  0.00    +0.000 C 
ATOM      6  C   UNL     1       2.946   5.782  19.324  0.00  0.00    +0.000 C 
ATOM      7  H   UNL     1       1.758   2.698  19.059  0.00  0.00    +0.000 HD
ENDROOT
BRANCH   6   8
ATOM      8  C   UNL     1       2.300   7.161  19.237  0.00  0.00    +0.000 A 
ATOM      9  C   UNL     1       1.708   7.709  20.392  0.00  0.00    +0.000 A 
ATOM     10  C   UNL     1       1.085   8.956  20.363  0.00  0.00    +0.000 A 
ATOM     11  C   UNL     1       1.045   9.684  19.177  0.00  0.00    +0.000 A 
ATOM     12 CL   UNL     1       0.267  11.215  19.132  0.00  0.00    +0.000 Cl
ATOM     13  C   UNL     1       1.634   9.171  18.029  0.00  0.00    +0.000 A 
ATOM     14  C   UNL     1       2.254   7.924  18.059  0.00  0.00    +0.000 A 
ENDBRANCH   6   8
BRANCH   1  15
ATOM     15  O   UNL     1       3.815   3.849  18.050  0.00  0.00    +0.000 OA
BRANCH  15  16
ATOM     16  C   UNL     1       4.868   3.918  17.092  0.00  0.00    +0.000 C 
BRANCH  16  20
ATOM     17  C   UNL     1       7.697   6.951  18.300  0.00  0.00    +0.000 A 
ATOM     18  C   UNL     1       6.957   7.113  17.128  0.00  0.00    +0.000 A 
ATOM     19  C   UNL     1       6.029   6.147  16.737  0.00  0.00    +0.000 A 
ATOM     20  C   UNL     1       5.849   4.988  17.499  0.00  0.00    +0.000 A 
ATOM     21  C   UNL     1       6.593   4.833  18.678  0.00  0.00    +0.000 A 
ATOM     22  C   UNL     1       7.516   5.806  19.072  0.00  0.00    +0.000 A 
BRANCH  17  24
ATOM     23  C   UNL     1       8.259   9.231  18.050  0.00  0.00    +0.000 C 
ATOM     24  O   UNL     1       8.596   7.948  18.567  0.00  0.00    +0.000 OA
ENDBRANCH  17  24
ENDBRANCH  16  20
ENDBRANCH  15  16
ENDBRANCH   1  15
TORSDOF 5
ENDMDL
MODEL 3
REMARK VINA RESULT:      -7.9      0.195      1.020
REMARK  Name = 
REMARK  6 active torsions:
REMARK  status: ('A' for Active; 'I' for Inactive)
REMARK    1  A    between atoms: C_1  and  O_2
REMARK    2  A    between atoms: O_2  and  C_3
REMARK    3  A    between atoms: C_6  and  C_7
REMARK    4  A    between atoms: C_7  and  O_8
REMARK    5  A    between atoms: O_8  and  C_9
REMARK    6  A    between atoms: C_14  and  C_15
REMARK                            x       y       z     vdW  Elec       q    Type
REMARK                         _______ _______ _______ _____ _____    ______ ____
ROOT
ATOM      1  C   UNL     1       2.815   4.971  17.927  0.00  0.00    +0.000 C 
ATOM      2  C   UNL     1       1.423   4.300  17.912  0.00  0.00    +0.000 C 
ATOM      3  N   UNL     1       1.148   3.499  19.120  0.00  0.00    +0.000 NA
ATOM      4  C   UNL     1       1.337   4.252  20.362  0.00  0.00    +0.000 C 
ATOM      5  C   UNL     1       2.677   4.978  20.443  0.00  0.00    +0.000 C 
ATOM      6  C   UNL     1       2.997   5.828  19.203  0.00  0.00    +0.000 C 
ATOM      7  H   UNL     1       1.823   2.729  19.115  0.00  0.00    +0.000 HD
ENDROOT
BRANCH   6   8
ATOM      8  C   UNL     1       2.330   7.199  19.154  0.00  0.00    +0.000 A 
ATOM      9  C   UNL     1       1.744   7.713  20.328  0.00  0.00    +0.000 A 
ATOM     10  C   UNL     1       1.104   8.951  20.334  0.00  0.00    +0.000 A 
ATOM     11  C   UNL     1       1.038   9.705  19.165  0.00  0.00    +0.000 A 
ATOM     12 CL   UNL     1       0.237  11.224  19.163  0.00  0.00    +0.000 Cl
ATOM     13  C   UNL     1       1.619   9.225  17.999  0.00  0.00    +0.000 A 
ATOM     14  C   UNL     1       2.258   7.986  17.994  0.00  0.00    +0.000 A 
ENDBRANCH   6   8
BRANCH   1  15
ATOM     15  O   UNL     1       3.758   3.878  17.886  0.00  0.00    +0.000 OA
BRANCH  15  16
ATOM     16  C   UNL     1       4.783   3.997  16.904  0.00  0.00    +0.000 C 
BRANCH  16  20
ATOM     17  C   UNL     1       7.619   7.022  18.117  0.00  0.00    +0.000 A 
ATOM     18  C   UNL     1       7.515   5.833  18.839  0.00  0.00    +0.000 A 
ATOM     19  C   UNL     1       6.613   4.842  18.446  0.00  0.00    +0.000 A 
ATOM     20  C   UNL     1       5.780   5.040  17.340  0.00  0.00    +0.000 A 
ATOM     21  C   UNL     1       5.893   6.237  16.616  0.00  0.00    +0.000 A 
ATOM     22  C   UNL     1       6.802   7.224  17.006  0.00  0.00    +0.000 A 
BRANCH  17  24
ATOM     23  C   UNL     1       8.355   9.265  18.146  0.00  0.00    +0.000 C 
ATOM     24  O   UNL     1       8.516   7.930  18.611  0.00  0.00    +0.000 OA
ENDBRANCH  17  24
ENDBRANCH  16  20
ENDBRANCH  15  16
ENDBRANCH   1  15
TORSDOF 5
ENDMDL
MODEL 4
REMARK VINA RESULT:      -7.9      0.227      1.026
REMARK  Name = 
REMARK  6 active torsions:
REMARK  status: ('A' for Active; 'I' for Inactive)
REMARK    1  A    between atoms: C_1  and  O_2
REMARK    2  A    between atoms: O_2  and  C_3
REMARK    3  A    between atoms: C_6  and  C_7
REMARK    4  A    between atoms: C_7  and  O_8
REMARK    5  A    between atoms: O_8  and  C_9
REMARK    6  A    between atoms: C_14  and  C_15
REMARK                            x       y       z     vdW  Elec       q    Type
REMARK                         _______ _______ _______ _____ _____    ______ ____
ROOT
ATOM      1  C   UNL     1       2.979   5.031  18.082  0.00  0.00    +0.000 C 
ATOM      2  C   UNL     1       1.614   4.347  17.841  0.00  0.00    +0.000 C 
ATOM      3  N   UNL     1       1.176   3.505  18.971  0.00  0.00    +0.000 NA
ATOM      4  C   UNL     1       1.170   4.219  20.249  0.00  0.00    +0.000 C 
ATOM      5  C   UNL     1       2.473   4.955  20.549  0.00  0.00    +0.000 C 
ATOM      6  C   UNL     1       2.959   5.848  19.397  0.00  0.00    +0.000 C 
ATOM      7  H   UNL     1       1.855   2.742  19.041  0.00  0.00    +0.000 HD
ENDROOT
BRANCH   6   8
ATOM      8  C   UNL     1       2.288   7.213  19.292  0.00  0.00    +0.000 A 
ATOM      9  C   UNL     1       2.311   7.890  18.057  0.00  0.00    +0.000 A 
ATOM     10  C   UNL     1       1.731   9.149  17.912  0.00  0.00    +0.000 A 
ATOM     11  C   UNL     1       1.110   9.757  18.999  0.00  0.00    +0.000 A 
ATOM     12 CL   UNL     1       0.406  11.315  18.829  0.00  0.00    +0.000 Cl
ATOM     13  C   UNL     1       1.062   9.104  20.223  0.00  0.00    +0.000 A 
ATOM     14  C   UNL     1       1.644   7.846  20.368  0.00  0.00    +0.000 A 
ENDBRANCH   6   8
BRANCH   1  15
ATOM     15  O   UNL     1       3.934   3.949  18.147  0.00  0.00    +0.000 OA
BRANCH  15  16
ATOM     16  C   UNL     1       4.985   4.008  17.187  0.00  0.00    +0.000 C 
BRANCH  16  20
ATOM     17  C   UNL     1       7.755   7.136  18.281  0.00  0.00    +0.000 A 
ATOM     18  C   UNL     1       6.867   7.328  17.222  0.00  0.00    +0.000 A 
ATOM     19  C   UNL     1       5.957   6.331  16.871  0.00  0.00    +0.000 A 
ATOM     20  C   UNL     1       5.942   5.111  17.556  0.00  0.00    +0.000 A 
ATOM     21  C   UNL     1       6.836   4.926  18.622  0.00  0.00    +0.000 A 
ATOM     22  C   UNL     1       7.740   5.929  18.978  0.00  0.00    +0.000 A 
BRANCH  17  24
ATOM     23  C   UNL     1       8.198   9.441  18.031  0.00  0.00    +0.000 C 
ATOM     24  O   UNL     1       8.619   8.172  18.516  0.00  0.00    +0.000 OA
ENDBRANCH  17  24
ENDBRANCH  16  20
ENDBRANCH  15  16
ENDBRANCH   1  15
TORSDOF 5
ENDMDL
MODEL 5
REMARK VINA RESULT:      -7.5      1.776      2.445
REMARK  Name = 
REMARK  6 active torsions:
REMARK  status: ('A' for Active; 'I' for Inactive)
REMARK    1  A    between atoms: C_1  and  O_2
REMARK    2  A    between atoms: O_2  and  C_3
REMARK    3  A    between atoms: C_6  and  C_7
REMARK    4  A    between atoms: C_7  and  O_8
REMARK    5  A    between atoms: O_8  and  C_9
REMARK    6  A    between atoms: C_14  and  C_15
REMARK                            x       y       z     vdW  Elec       q    Type
REMARK                         _______ _______ _______ _____ _____    ______ ____
ROOT
ATOM      1  C   UNL     1       2.985   5.108  18.350  0.00  0.00    +0.000 C 
ATOM      2  C   UNL     1       1.643   4.421  18.013  0.00  0.00    +0.000 C 
ATOM      3  N   UNL     1       1.113   3.601  19.120  0.00  0.00    +0.000 NA
ATOM      4  C   UNL     1       1.005   4.341  20.379  0.00  0.00    +0.000 C 
ATOM      5  C   UNL     1       2.282   5.081  20.769  0.00  0.00    +0.000 C 
ATOM      6  C   UNL     1       2.861   5.951  19.642  0.00  0.00    +0.000 C 
ATOM      7  H   UNL     1       1.783   2.839  19.259  0.00  0.00    +0.000 HD
ENDROOT
BRANCH   6   8
ATOM      8  C   UNL     1       2.203   7.314  19.457  0.00  0.00    +0.000 A 
ATOM      9  C   UNL     1       2.281   7.942  18.198  0.00  0.00    +0.000 A 
ATOM     10  C   UNL     1       1.715   9.197  17.980  0.00  0.00    +0.000 A 
ATOM     11  C   UNL     1       1.055   9.851  19.017  0.00  0.00    +0.000 A 
ATOM     12 CL   UNL     1       0.369  11.404  18.757  0.00  0.00    +0.000 Cl
ATOM     13  C   UNL     1       0.953   9.246  20.262  0.00  0.00    +0.000 A 
ATOM     14  C   UNL     1       1.521   7.992  20.480  0.00  0.00    +0.000 A 
ENDBRANCH   6   8
BRANCH   1  15
ATOM     15  O   UNL     1       3.929   4.027  18.513  0.00  0.00    +0.000 OA
BRANCH  15  16
ATOM     16  C   UNL     1       4.143   3.227  17.353  0.00  0.00    +0.000 C 
BRANCH  16  20
ATOM     17  C   UNL     1       7.200   5.072  14.922  0.00  0.00    +0.000 A 
ATOM     18  C   UNL     1       6.133   4.408  14.316  0.00  0.00    +0.000 A 
ATOM     19  C   UNL     1       5.131   3.822  15.092  0.00  0.00    +0.000 A 
ATOM     20  C   UNL     1       5.199   3.867  16.488  0.00  0.00    +0.000 A 
ATOM     21  C   UNL     1       6.273   4.540  17.091  0.00  0.00    +0.000 A 
ATOM     22  C   UNL     1       7.270   5.133  16.312  0.00  0.00    +0.000 A 
BRANCH  17  24
ATOM     23  C   UNL     1       7.900   5.329  12.681  0.00  0.00    +0.000 C 
ATOM     24  O   UNL     1       8.135   5.582  14.062  0.00  0.00    +0.000 OA
ENDBRANCH  17  24
ENDBRANCH  16  20
ENDBRANCH  15  16
ENDBRANCH   1  15
TORSDOF 5
ENDMDL
MODEL 6
REMARK VINA RESULT:      -7.5      1.918      2.976
REMARK  Name = 
REMARK  6 active torsions:
REMARK  status: ('A' for Active; 'I' for Inactive)
REMARK    1  A    between atoms: C_1  and  O_2
REMARK    2  A    between atoms: O_2  and  C_3
REMARK    3  A    between atoms: C_6  and  C_7
REMARK    4  A    between atoms: C_7  and  O_8
REMARK    5  A    between atoms: O_8  and  C_9
REMARK    6  A    between atoms: C_14  and  C_15
REMARK                            x       y       z     vdW  Elec       q    Type
REMARK                         _______ _______ _______ _____ _____    ______ ____
ROOT
ATOM      1  C   UNL     1       3.015   4.981  18.364  0.00  0.00    +0.000 C 
ATOM      2  C   UNL     1       1.665   4.298  18.048  0.00  0.00    +0.000 C 
ATOM      3  N   UNL     1       1.128   3.518  19.180  0.00  0.00    +0.000 NA
ATOM      4  C   UNL     1       1.028   4.296  20.416  0.00  0.00    +0.000 C 
ATOM      5  C   UNL     1       2.313   5.035  20.783  0.00  0.00    +0.000 C 
ATOM      6  C   UNL     1       2.901   5.863  19.630  0.00  0.00    +0.000 C 
ATOM      7  H   UNL     1       1.789   2.753  19.342  0.00  0.00    +0.000 HD
ENDROOT
BRANCH   6   8
ATOM      8  C   UNL     1       2.257   7.227  19.403  0.00  0.00    +0.000 A 
ATOM      9  C   UNL     1       1.615   7.864  20.483  0.00  0.00    +0.000 A 
ATOM     10  C   UNL     1       0.992   9.102  20.326  0.00  0.00    +0.000 A 
ATOM     11  C   UNL     1       1.002   9.732  19.084  0.00  0.00    +0.000 A 
ATOM     12 CL   UNL     1       0.225  11.249  18.881  0.00  0.00    +0.000 Cl
ATOM     13  C   UNL     1       1.641   9.130  18.008  0.00  0.00    +0.000 A 
ATOM     14  C   UNL     1       2.262   7.892  18.166  0.00  0.00    +0.000 A 
ENDBRANCH   6   8
BRANCH   1  15
ATOM     15  O   UNL     1       3.948   3.895  18.560  0.00  0.00    +0.000 OA
BRANCH  15  16
ATOM     16  C   UNL     1       5.324   4.263  18.530  0.00  0.00    +0.000 C 
BRANCH  16  20
ATOM     17  C   UNL     1       6.695   4.597  14.447  0.00  0.00    +0.000 A 
ATOM     18  C   UNL     1       5.415   4.110  14.716  0.00  0.00    +0.000 A 
ATOM     19  C   UNL     1       4.956   4.013  16.031  0.00  0.00    +0.000 A 
ATOM     20  C   UNL     1       5.784   4.375  17.099  0.00  0.00    +0.000 A 
ATOM     21  C   UNL     1       7.069   4.866  16.821  0.00  0.00    +0.000 A 
ATOM     22  C   UNL     1       7.523   4.970  15.504  0.00  0.00    +0.000 A 
BRANCH  17  24
ATOM     23  C   UNL     1       6.488   3.584  12.325  0.00  0.00    +0.000 C 
ATOM     24  O   UNL     1       7.045   4.620  13.124  0.00  0.00    +0.000 OA
ENDBRANCH  17  24
ENDBRANCH  16  20
ENDBRANCH  15  16
ENDBRANCH   1  15
TORSDOF 5
ENDMDL
MODEL 7
REMARK VINA RESULT:      -7.5      1.794      2.558
REMARK  Name = 
REMARK  6 active torsions:
REMARK  status: ('A' for Active; 'I' for Inactive)
REMARK    1  A    between atoms: C_1  and  O_2
REMARK    2  A    between atoms: O_2  and  C_3
REMARK    3  A    between atoms: C_6  and  C_7
REMARK    4  A    between atoms: C_7  and  O_8
REMARK    5  A    between atoms: O_8  and  C_9
REMARK    6  A    between atoms: C_14  and  C_15
REMARK                            x       y       z     vdW  Elec       q    Type
REMARK                         _______ _______ _______ _____ _____    ______ ____
ROOT
ATOM      1  C   UNL     1       2.983   5.122  18.305  0.00  0.00    +0.000 C 
ATOM      2  C   UNL     1       1.637   4.415  18.022  0.00  0.00    +0.000 C 
ATOM      3  N   UNL     1       1.138   3.632  19.169  0.00  0.00    +0.000 NA
ATOM      4  C   UNL     1       1.053   4.414  20.404  0.00  0.00    +0.000 C 
ATOM      5  C   UNL     1       2.333   5.175  20.739  0.00  0.00    +0.000 C 
ATOM      6  C   UNL     1       2.881   6.008  19.570  0.00  0.00    +0.000 C 
ATOM      7  H   UNL     1       1.816   2.879  19.320  0.00  0.00    +0.000 HD
ENDROOT
BRANCH   6   8
ATOM      8  C   UNL     1       2.210   7.360  19.352  0.00  0.00    +0.000 A 
ATOM      9  C   UNL     1       1.570   7.985  20.440  0.00  0.00    +0.000 A 
ATOM     10  C   UNL     1       0.922   9.211  20.291  0.00  0.00    +0.000 A 
ATOM     11  C   UNL     1       0.905   9.841  19.050  0.00  0.00    +0.000 A 
ATOM     12 CL   UNL     1       0.098  11.345  18.858  0.00  0.00    +0.000 Cl
ATOM     13  C   UNL     1       1.542   9.252  17.966  0.00  0.00    +0.000 A 
ATOM     14  C   UNL     1       2.187   8.025  18.115  0.00  0.00    +0.000 A 
ENDBRANCH   6   8
BRANCH   1  15
ATOM     15  O   UNL     1       3.937   4.053  18.485  0.00  0.00    +0.000 OA
BRANCH  15  16
ATOM     16  C   UNL     1       4.144   3.225  17.343  0.00  0.00    +0.000 C 
BRANCH  16  20
ATOM     17  C   UNL     1       7.149   4.966  14.773  0.00  0.00    +0.000 A 
ATOM     18  C   UNL     1       7.199   5.181  16.151  0.00  0.00    +0.000 A 
ATOM     19  C   UNL     1       6.242   4.610  16.992  0.00  0.00    +0.000 A 
ATOM     20  C   UNL     1       5.203   3.838  16.463  0.00  0.00    +0.000 A 
ATOM     21  C   UNL     1       5.160   3.623  15.076  0.00  0.00    +0.000 A 
ATOM     22  C   UNL     1       6.124   4.189  14.237  0.00  0.00    +0.000 A 
BRANCH  17  24
ATOM     23  C   UNL     1       7.998   5.490  12.634  0.00  0.00    +0.000 C 
ATOM     24  O   UNL     1       8.122   5.598  14.047  0.00  0.00    +0.000 OA
ENDBRANCH  17  24
ENDBRANCH  16  20
ENDBRANCH  15  16
ENDBRANCH   1  15
TORSDOF 5
ENDMDL
MODEL 8
REMARK VINA RESULT:      -7.4      1.931      2.810
REMARK  Name = 
REMARK  6 active torsions:
REMARK  status: ('A' for Active; 'I' for Inactive)
REMARK    1  A    between atoms: C_1  and  O_2
REMARK    2  A    between atoms: O_2  and  C_3
REMARK    3  A    between atoms: C_6  and  C_7
REMARK    4  A    between atoms: C_7  and  O_8
REMARK    5  A    between atoms: O_8  and  C_9
REMARK    6  A    between atoms: C_14  and  C_15
REMARK                            x       y       z     vdW  Elec       q    Type
REMARK                         _______ _______ _______ _____ _____    ______ ____
ROOT
ATOM      1  C   UNL     1       3.133   5.164  18.460  0.00  0.00    +0.000 C 
ATOM      2  C   UNL     1       1.843   4.458  17.983  0.00  0.00    +0.000 C 
ATOM      3  N   UNL     1       1.233   3.599  19.016  0.00  0.00    +0.000 NA
ATOM      4  C   UNL     1       0.992   4.303  20.277  0.00  0.00    +0.000 C 
ATOM      5  C   UNL     1       2.210   5.060  20.801  0.00  0.00    +0.000 C 
ATOM      6  C   UNL     1       2.871   5.970  19.755  0.00  0.00    +0.000 C 
ATOM      7  H   UNL     1       1.904   2.848  19.199  0.00  0.00    +0.000 HD
ENDROOT
BRANCH   6   8
ATOM      8  C   UNL     1       2.202   7.323  19.542  0.00  0.00    +0.000 A 
ATOM      9  C   UNL     1       2.291   7.935  18.276  0.00  0.00    +0.000 A 
ATOM     10  C   UNL     1       1.716   9.182  18.033  0.00  0.00    +0.000 A 
ATOM     11  C   UNL     1       1.035   9.843  19.051  0.00  0.00    +0.000 A 
ATOM     12 CL   UNL     1       0.336  11.385  18.761  0.00  0.00    +0.000 Cl
ATOM     13  C   UNL     1       0.922   9.254  20.304  0.00  0.00    +0.000 A 
ATOM     14  C   UNL     1       1.499   8.008  20.546  0.00  0.00    +0.000 A 
ENDBRANCH   6   8
BRANCH   1  15
ATOM     15  O   UNL     1       4.082   4.098  18.684  0.00  0.00    +0.000 OA
BRANCH  15  16
ATOM     16  C   UNL     1       5.453   4.474  18.581  0.00  0.00    +0.000 C 
BRANCH  16  20
ATOM     17  C   UNL     1       6.598   4.424  14.416  0.00  0.00    +0.000 A 
ATOM     18  C   UNL     1       7.415   5.051  15.358  0.00  0.00    +0.000 A 
ATOM     19  C   UNL     1       7.063   5.059  16.708  0.00  0.00    +0.000 A 
ATOM     20  C   UNL     1       5.870   4.464  17.133  0.00  0.00    +0.000 A 
ATOM     21  C   UNL     1       5.055   3.833  16.181  0.00  0.00    +0.000 A 
ATOM     22  C   UNL     1       5.414   3.818  14.831  0.00  0.00    +0.000 A 
BRANCH  17  24
ATOM     23  C   UNL     1       6.472   3.548  12.228  0.00  0.00    +0.000 C 
ATOM     24  O   UNL     1       7.031   4.505  13.120  0.00  0.00    +0.000 OA
ENDBRANCH  17  24
ENDBRANCH  16  20
ENDBRANCH  15  16
ENDBRANCH   1  15
TORSDOF 5
ENDMDL
MODEL 9
REMARK VINA RESULT:      -7.1      1.772      2.349
REMARK  Name = 
REMARK  6 active torsions:
REMARK  status: ('A' for Active; 'I' for Inactive)
REMARK    1  A    between atoms: C_1  and  O_2
REMARK    2  A    between atoms: O_2  and  C_3
REMARK    3  A    between atoms: C_6  and  C_7
REMARK    4  A    between atoms: C_7  and  O_8
REMARK    5  A    between atoms: O_8  and  C_9
REMARK    6  A    between atoms: C_14  and  C_15
REMARK                            x       y       z     vdW  Elec       q    Type
REMARK                         _______ _______ _______ _____ _____    ______ ____
ROOT
ATOM      1  C   UNL     1       2.859   5.273  18.280  0.00  0.00    +0.000 C 
ATOM      2  C   UNL     1       1.502   4.573  18.040  0.00  0.00    +0.000 C 
ATOM      3  N   UNL     1       1.071   3.734  19.175  0.00  0.00    +0.000 NA
ATOM      4  C   UNL     1       1.053   4.457  20.448  0.00  0.00    +0.000 C 
ATOM      5  C   UNL     1       2.347   5.210  20.746  0.00  0.00    +0.000 C 
ATOM      6  C   UNL     1       2.826   6.100  19.588  0.00  0.00    +0.000 C 
ATOM      7  H   UNL     1       1.758   2.979  19.253  0.00  0.00    +0.000 HD
ENDROOT
BRANCH   6   8
ATOM      8  C   UNL     1       2.139   7.456  19.471  0.00  0.00    +0.000 A 
ATOM      9  C   UNL     1       2.085   8.086  18.212  0.00  0.00    +0.000 A 
ATOM     10  C   UNL     1       1.488   9.336  18.054  0.00  0.00    +0.000 A 
ATOM     11  C   UNL     1       0.927   9.982  19.152  0.00  0.00    +0.000 A 
ATOM     12 CL   UNL     1       0.202  11.527  18.965  0.00  0.00    +0.000 Cl
ATOM     13  C   UNL     1       0.955   9.375  20.401  0.00  0.00    +0.000 A 
ATOM     14  C   UNL     1       1.555   8.126  20.558  0.00  0.00    +0.000 A 
ENDBRANCH   6   8
BRANCH   1  15
ATOM     15  O   UNL     1       3.825   4.203  18.355  0.00  0.00    +0.000 OA
BRANCH  15  16
ATOM     16  C   UNL     1       3.986   3.444  17.160  0.00  0.00    +0.000 C 
BRANCH  16  20
ATOM     17  C   UNL     1       7.218   5.057  14.790  0.00  0.00    +0.000 A 
ATOM     18  C   UNL     1       6.970   5.560  16.068  0.00  0.00    +0.000 A 
ATOM     19  C   UNL     1       5.938   5.036  16.848  0.00  0.00    +0.000 A 
ATOM     20  C   UNL     1       5.120   4.017  16.349  0.00  0.00    +0.000 A 
ATOM     21  C   UNL     1       5.377   3.513  15.065  0.00  0.00    +0.000 A 
ATOM     22  C   UNL     1       6.415   4.034  14.289  0.00  0.00    +0.000 A 
BRANCH  17  24
ATOM     23  C   UNL     1       8.122   5.646  12.690  0.00  0.00    +0.000 C 
ATOM     24  O   UNL     1       8.236   5.667  14.108  0.00  0.00    +0.000 OA
ENDBRANCH  17  24
ENDBRANCH  16  20
ENDBRANCH  15  16
ENDBRANCH   1  15
TORSDOF 5
ENDMDL
