MODEL 1
REMARK VINA RESULT:      -8.1      0.000      0.000
REMARK  Name = 
REMARK  5 active torsions:
REMARK  status: ('A' for Active; 'I' for Inactive)
REMARK    1  A    between atoms: C_8  and  N_9
REMARK    2  A    between atoms: N_9  and  C_10
REMARK    3  A    between atoms: C_10  and  C_11
REMARK    4  A    between atoms: C_11  and  C_12
REMARK    5  A    between atoms: C_21  and  C_22
REMARK                            x       y       z     vdW  Elec       q    Type
REMARK                         _______ _______ _______ _____ _____    ______ ____
ROOT
ATOM      1  F   UNL     1       8.739   5.676  13.010  0.00  0.00    +0.000 F 
ATOM      2  C   UNL     1       7.653   4.920  13.248  0.00  0.00    +0.000 A 
ATOM      3  C   UNL     1       7.246   4.050  12.244  0.00  0.00    +0.000 A 
ATOM      4  C   UNL     1       6.135   3.254  12.467  0.00  0.00    +0.000 A 
ATOM      5 BR   UNL     1       5.563   2.074  11.109  0.00  0.00    +0.000 Br
ATOM      6  C   UNL     1       5.447   3.327  13.680  0.00  0.00    +0.000 A 
ATOM      7  C   UNL     1       5.853   4.216  14.712  0.00  0.00    +0.000 A 
ATOM      8  C   UNL     1       5.204   4.345  15.978  0.00  0.00    +0.000 A 
ATOM      9  C   UNL     1       5.763   5.238  16.905  0.00  0.00    +0.000 A 
ATOM     10  C   UNL     1       6.869   6.010  16.581  0.00  0.00    +0.000 A 
ATOM     11  N   UNL     1       7.470   5.902  15.373  0.00  0.00    +0.000 NA
ATOM     12  C   UNL     1       6.989   5.031  14.470  0.00  0.00    +0.000 A 
ENDROOT
BRANCH  10  13
ATOM     13  C   UNL     1       7.427   6.991  17.603  0.00  0.00    +0.000 C 
ATOM     14  F   UNL     1       8.119   6.379  18.613  0.00  0.00    +0.000 F 
ATOM     15  F   UNL     1       8.303   7.885  17.060  0.00  0.00    +0.000 F 
ATOM     16  F   UNL     1       6.463   7.728  18.222  0.00  0.00    +0.000 F 
ENDBRANCH  10  13
BRANCH   8  17
ATOM     17  N   UNL     1       4.108   3.511  16.345  0.00  0.00    +0.000 N 
ATOM     18  H   UNL     1       3.216   3.960  16.145  0.00  0.00    +0.000 HD
BRANCH  17  19
ATOM     19  C   UNL     1       4.166   2.895  17.687  0.00  0.00    +0.000 C 
BRANCH  19  20
ATOM     20  C   UNL     1       2.805   2.488  18.258  0.00  0.00    +0.000 C 
BRANCH  20  21
ATOM     21  C   UNL     1       2.507   3.338  19.448  0.00  0.00    +0.000 A 
ATOM     22  N   UNL     1       2.298   2.919  20.690  0.00  0.00    +0.000 NA
ATOM     23  N   UNL     1       1.952   4.007  21.484  0.00  0.00    +0.000 NA
ATOM     24  C   UNL     1       1.973   5.050  20.702  0.00  0.00    +0.000 A 
ATOM     25  N   UNL     1       2.315   4.672  19.443  0.00  0.00    +0.000 N 
ATOM     26  C   UNL     1       2.359   5.773  18.512  0.00  0.00    +0.000 C 
ATOM     27  C   UNL     1       2.366   6.990  19.463  0.00  0.00    +0.000 C 
ATOM     28  C   UNL     1       1.734   6.499  20.793  0.00  0.00    +0.000 C 
ENDBRANCH  20  21
ENDBRANCH  19  20
ENDBRANCH  17  19
ENDBRANCH   8  17
TORSDOF 5
ENDMDL
MODEL 2
REMARK VINA RESULT:      -8.1      4.062      8.002
REMARK  Name = 
REMARK  5 active torsions:
REMARK  status: ('A' for Active; 'I' for Inactive)
REMARK    1  A    between atoms: C_8  and  N_9
REMARK    2  A    between atoms: N_9  and  C_10
REMARK    3  A    between atoms: C_10  and  C_11
REMARK    4  A    between atoms: C_11  and  C_12
REMARK    5  A    between atoms: C_21  and  C_22
REMARK                            x       y       z     vdW  Elec       q    Type
REMARK                         _______ _______ _______ _____ _____    ______ ____
ROOT
ATOM      1  F   UNL     1       0.640   7.639  21.863  0.00  0.00    +0.000 F 
ATOM      2  C   UNL     1       1.276   7.735  20.683  0.00  0.00    +0.000 A 
ATOM      3  C   UNL     1       1.267   8.971  20.049  0.00  0.00    +0.000 A 
ATOM      4  C   UNL     1       1.922   9.099  18.836  0.00  0.00    +0.000 A 
ATOM      5 BR   UNL     1       1.911  10.770  17.957  0.00  0.00    +0.000 Br
ATOM      6  C   UNL     1       2.581   8.004  18.271  0.00  0.00    +0.000 A 
ATOM      7  C   UNL     1       2.593   6.735  18.910  0.00  0.00    +0.000 A 
ATOM      8  C   UNL     1       3.245   5.572  18.397  0.00  0.00    +0.000 A 
ATOM      9  C   UNL     1       3.202   4.407  19.178  0.00  0.00    +0.000 A 
ATOM     10  C   UNL     1       2.499   4.371  20.374  0.00  0.00    +0.000 A 
ATOM     11  N   UNL     1       1.864   5.468  20.847  0.00  0.00    +0.000 NA
ATOM     12  C   UNL     1       1.914   6.615  20.149  0.00  0.00    +0.000 A 
ENDROOT
BRANCH  10  13
ATOM     13  C   UNL     1       2.448   3.078  21.177  0.00  0.00    +0.000 C 
ATOM     14  F   UNL     1       2.374   3.288  22.528  0.00  0.00    +0.000 F 
ATOM     15  F   UNL     1       1.366   2.305  20.876  0.00  0.00    +0.000 F 
ATOM     16  F   UNL     1       3.545   2.290  20.997  0.00  0.00    +0.000 F 
ENDBRANCH  10  13
BRANCH   8  17
ATOM     17  N   UNL     1       4.024   5.615  17.204  0.00  0.00    +0.000 N 
ATOM     18  H   UNL     1       3.463   5.383  16.386  0.00  0.00    +0.000 HD
BRANCH  17  19
ATOM     19  C   UNL     1       5.327   4.921  17.238  0.00  0.00    +0.000 C 
BRANCH  19  20
ATOM     20  C   UNL     1       5.517   3.872  16.138  0.00  0.00    +0.000 C 
BRANCH  20  21
ATOM     21  C   UNL     1       6.474   4.404  15.124  0.00  0.00    +0.000 A 
ATOM     22  N   UNL     1       7.440   5.289  15.333  0.00  0.00    +0.000 NA
ATOM     23  N   UNL     1       8.042   5.599  14.117  0.00  0.00    +0.000 NA
ATOM     24  C   UNL     1       7.429   4.886  13.215  0.00  0.00    +0.000 A 
ATOM     25  N   UNL     1       6.461   4.136  13.803  0.00  0.00    +0.000 N 
ATOM     26  C   UNL     1       5.731   3.316  12.867  0.00  0.00    +0.000 C 
ATOM     27  C   UNL     1       6.646   3.367  11.623  0.00  0.00    +0.000 C 
ATOM     28  C   UNL     1       7.485   4.666  11.761  0.00  0.00    +0.000 C 
ENDBRANCH  20  21
ENDBRANCH  19  20
ENDBRANCH  17  19
ENDBRANCH   8  17
TORSDOF 5
ENDMDL
MODEL 3
REMARK VINA RESULT:      -8.0      4.232      7.216
REMARK  Name = 
REMARK  5 active torsions:
REMARK  status: ('A' for Active; 'I' for Inactive)
REMARK    1  A    between atoms: C_8  and  N_9
REMARK    2  A    between atoms: N_9  and  C_10
REMARK    3  A    between atoms: C_10  and  C_11
REMARK    4  A    between atoms: C_11  and  C_12
REMARK    5  A    between atoms: C_21  and  C_22
REMARK                            x       y       z     vdW  Elec       q    Type
REMARK                         _______ _______ _______ _____ _____    ______ ____
ROOT
ATOM      1  F   UNL     1       0.838   7.570  21.850  0.00  0.00    +0.000 F 
ATOM      2  C   UNL     1       1.414   7.640  20.638  0.00  0.00    +0.000 A 
ATOM      3  C   UNL     1       1.404   8.871  19.994  0.00  0.00    +0.000 A 
ATOM      4  C   UNL     1       1.999   8.972  18.747  0.00  0.00    +0.000 A 
ATOM      5 BR   UNL     1       1.986  10.635  17.855  0.00  0.00    +0.000 Br
ATOM      6  C   UNL     1       2.597   7.855  18.158  0.00  0.00    +0.000 A 
ATOM      7  C   UNL     1       2.609   6.591  18.807  0.00  0.00    +0.000 A 
ATOM      8  C   UNL     1       3.201   5.406  18.272  0.00  0.00    +0.000 A 
ATOM      9  C   UNL     1       3.168   4.248  19.064  0.00  0.00    +0.000 A 
ATOM     10  C   UNL     1       2.528   4.241  20.295  0.00  0.00    +0.000 A 
ATOM     11  N   UNL     1       1.948   5.358  20.791  0.00  0.00    +0.000 NA
ATOM     12  C   UNL     1       1.992   6.498  20.082  0.00  0.00    +0.000 A 
ENDROOT
BRANCH  10  13
ATOM     13  C   UNL     1       2.485   2.956  21.112  0.00  0.00    +0.000 C 
ATOM     14  F   UNL     1       1.616   2.028  20.606  0.00  0.00    +0.000 F 
ATOM     15  F   UNL     1       3.690   2.322  21.173  0.00  0.00    +0.000 F 
ATOM     16  F   UNL     1       2.089   3.153  22.401  0.00  0.00    +0.000 F 
ENDBRANCH  10  13
BRANCH   8  17
ATOM     17  N   UNL     1       3.917   5.419  17.039  0.00  0.00    +0.000 N 
ATOM     18  H   UNL     1       3.337   5.765  16.276  0.00  0.00    +0.000 HD
BRANCH  17  19
ATOM     19  C   UNL     1       4.667   4.194  16.696  0.00  0.00    +0.000 C 
BRANCH  19  20
ATOM     20  C   UNL     1       6.071   4.444  16.138  0.00  0.00    +0.000 C 
BRANCH  20  21
ATOM     21  C   UNL     1       6.941   4.965  17.233  0.00  0.00    +0.000 A 
ATOM     22  N   UNL     1       7.506   4.255  18.202  0.00  0.00    +0.000 NA
ATOM     23  N   UNL     1       8.152   5.120  19.080  0.00  0.00    +0.000 NA
ATOM     24  C   UNL     1       7.967   6.321  18.610  0.00  0.00    +0.000 A 
ATOM     25  N   UNL     1       7.229   6.259  17.472  0.00  0.00    +0.000 N 
ATOM     26  C   UNL     1       6.977   7.555  16.887  0.00  0.00    +0.000 C 
ATOM     27  C   UNL     1       8.006   8.439  17.626  0.00  0.00    +0.000 C 
ATOM     28  C   UNL     1       8.324   7.705  18.957  0.00  0.00    +0.000 C 
ENDBRANCH  20  21
ENDBRANCH  19  20
ENDBRANCH  17  19
ENDBRANCH   8  17
TORSDOF 5
ENDMDL
MODEL 4
REMARK VINA RESULT:      -8.0      4.289      7.333
REMARK  Name = 
REMARK  5 active torsions:
REMARK  status: ('A' for Active; 'I' for Inactive)
REMARK    1  A    between atoms: C_8  and  N_9
REMARK    2  A    between atoms: N_9  and  C_10
REMARK    3  A    between atoms: C_10  and  C_11
REMARK    4  A    between atoms: C_11  and  C_12
REMARK    5  A    between atoms: C_21  and  C_22
REMARK                            x       y       z     vdW  Elec       q    Type
REMARK                         _______ _______ _______ _____ _____    ______ ____
ROOT
ATOM      1  F   UNL     1       0.841   7.589  21.909  0.00  0.00    +0.000 F 
ATOM      2  C   UNL     1       1.371   7.600  20.674  0.00  0.00    +0.000 A 
ATOM      3  C   UNL     1       1.433   8.821  20.014  0.00  0.00    +0.000 A 
ATOM      4  C   UNL     1       1.982   8.861  18.744  0.00  0.00    +0.000 A 
ATOM      5 BR   UNL     1       2.066  10.511  17.829  0.00  0.00    +0.000 Br
ATOM      6  C   UNL     1       2.465   7.693  18.147  0.00  0.00    +0.000 A 
ATOM      7  C   UNL     1       2.403   6.439  18.812  0.00  0.00    +0.000 A 
ATOM      8  C   UNL     1       2.878   5.206  18.270  0.00  0.00    +0.000 A 
ATOM      9  C   UNL     1       2.784   4.063  19.078  0.00  0.00    +0.000 A 
ATOM     10  C   UNL     1       2.197   4.119  20.334  0.00  0.00    +0.000 A 
ATOM     11  N   UNL     1       1.728   5.285  20.838  0.00  0.00    +0.000 NA
ATOM     12  C   UNL     1       1.833   6.410  20.111  0.00  0.00    +0.000 A 
ENDROOT
BRANCH  10  13
ATOM     13  C   UNL     1       2.084   2.851  21.170  0.00  0.00    +0.000 C 
ATOM     14  F   UNL     1       1.533   1.803  20.484  0.00  0.00    +0.000 F 
ATOM     15  F   UNL     1       3.291   2.394  21.611  0.00  0.00    +0.000 F 
ATOM     16  F   UNL     1       1.305   3.005  22.276  0.00  0.00    +0.000 F 
ENDBRANCH  10  13
BRANCH   8  17
ATOM     17  N   UNL     1       3.541   5.148  17.009  0.00  0.00    +0.000 N 
ATOM     18  H   UNL     1       2.963   5.539  16.267  0.00  0.00    +0.000 HD
BRANCH  17  19
ATOM     19  C   UNL     1       4.167   3.860  16.649  0.00  0.00    +0.000 C 
BRANCH  19  20
ATOM     20  C   UNL     1       5.582   3.979  16.076  0.00  0.00    +0.000 C 
BRANCH  20  21
ATOM     21  C   UNL     1       6.167   5.285  16.502  0.00  0.00    +0.000 A 
ATOM     22  N   UNL     1       6.058   6.446  15.869  0.00  0.00    +0.000 NA
ATOM     23  N   UNL     1       6.827   7.397  16.531  0.00  0.00    +0.000 NA
ATOM     24  C   UNL     1       7.368   6.785  17.547  0.00  0.00    +0.000 A 
ATOM     25  N   UNL     1       6.978   5.485  17.559  0.00  0.00    +0.000 N 
ATOM     26  C   UNL     1       7.538   4.734  18.657  0.00  0.00    +0.000 C 
ATOM     27  C   UNL     1       8.049   5.861  19.581  0.00  0.00    +0.000 C 
ATOM     28  C   UNL     1       8.269   7.097  18.667  0.00  0.00    +0.000 C 
ENDBRANCH  20  21
ENDBRANCH  19  20
ENDBRANCH  17  19
ENDBRANCH   8  17
TORSDOF 5
ENDMDL
MODEL 5
REMARK VINA RESULT:      -7.8      3.941      6.036
REMARK  Name = 
REMARK  5 active torsions:
REMARK  status: ('A' for Active; 'I' for Inactive)
REMARK    1  A    between atoms: C_8  and  N_9
REMARK    2  A    between atoms: N_9  and  C_10
REMARK    3  A    between atoms: C_10  and  C_11
REMARK    4  A    between atoms: C_11  and  C_12
REMARK    5  A    between atoms: C_21  and  C_22
REMARK                            x       y       z     vdW  Elec       q    Type
REMARK                         _______ _______ _______ _____ _____    ______ ____
ROOT
ATOM      1  F   UNL     1       3.985   0.929  17.730  0.00  0.00    +0.000 F 
ATOM      2  C   UNL     1       3.557   2.057  18.323  0.00  0.00    +0.000 A 
ATOM      3  C   UNL     1       2.823   1.925  19.495  0.00  0.00    +0.000 A 
ATOM      4  C   UNL     1       2.378   3.072  20.131  0.00  0.00    +0.000 A 
ATOM      5 BR   UNL     1       1.371   2.910  21.720  0.00  0.00    +0.000 Br
ATOM      6  C   UNL     1       2.668   4.331  19.600  0.00  0.00    +0.000 A 
ATOM      7  C   UNL     1       3.415   4.476  18.399  0.00  0.00    +0.000 A 
ATOM      8  C   UNL     1       3.753   5.726  17.797  0.00  0.00    +0.000 A 
ATOM      9  C   UNL     1       4.539   5.695  16.635  0.00  0.00    +0.000 A 
ATOM     10  C   UNL     1       4.920   4.492  16.059  0.00  0.00    +0.000 A 
ATOM     11  N   UNL     1       4.580   3.307  16.619  0.00  0.00    +0.000 NA
ATOM     12  C   UNL     1       3.861   3.294  17.754  0.00  0.00    +0.000 A 
ENDROOT
BRANCH  10  13
ATOM     13  C   UNL     1       5.746   4.497  14.779  0.00  0.00    +0.000 C 
ATOM     14  F   UNL     1       4.987   4.351  13.650  0.00  0.00    +0.000 F 
ATOM     15  F   UNL     1       6.438   5.658  14.597  0.00  0.00    +0.000 F 
ATOM     16  F   UNL     1       6.663   3.492  14.728  0.00  0.00    +0.000 F 
ENDBRANCH  10  13
BRANCH   8  17
ATOM     17  N   UNL     1       3.423   6.968  18.414  0.00  0.00    +0.000 N 
ATOM     18  H   UNL     1       3.619   6.950  19.414  0.00  0.00    +0.000 HD
BRANCH  17  19
ATOM     19  C   UNL     1       2.100   7.539  18.086  0.00  0.00    +0.000 C 
BRANCH  19  20
ATOM     20  C   UNL     1       2.095   9.058  17.893  0.00  0.00    +0.000 C 
BRANCH  20  21
ATOM     21  C   UNL     1       0.990   9.645  18.706  0.00  0.00    +0.000 A 
ATOM     22  N   UNL     1       0.052  10.482  18.282  0.00  0.00    +0.000 NA
ATOM     23  N   UNL     1      -0.728  10.875  19.365  0.00  0.00    +0.000 NA
ATOM     24  C   UNL     1      -0.245  10.256  20.405  0.00  0.00    +0.000 A 
ATOM     25  N   UNL     1       0.810   9.488  20.033  0.00  0.00    +0.000 N 
ATOM     26  C   UNL     1       1.405   8.769  21.133  0.00  0.00    +0.000 C 
ATOM     27  C   UNL     1       0.315   8.897  22.220  0.00  0.00    +0.000 C 
ATOM     28  C   UNL     1      -0.514  10.156  21.849  0.00  0.00    +0.000 C 
ENDBRANCH  20  21
ENDBRANCH  19  20
ENDBRANCH  17  19
ENDBRANCH   8  17
TORSDOF 5
ENDMDL
MODEL 6
REMARK VINA RESULT:      -7.7      4.029      5.939
REMARK  Name = 
REMARK  5 active torsions:
REMARK  status: ('A' for Active; 'I' for Inactive)
REMARK    1  A    between atoms: C_8  and  N_9
REMARK    2  A    between atoms: N_9  and  C_10
REMARK    3  A    between atoms: C_10  and  C_11
REMARK    4  A    between atoms: C_11  and  C_12
REMARK    5  A    between atoms: C_21  and  C_22
REMARK                            x       y       z     vdW  Elec       q    Type
REMARK                         _______ _______ _______ _____ _____    ______ ____
ROOT
ATOM      1  F   UNL     1       4.156   1.035  17.687  0.00  0.00    +0.000 F 
ATOM      2  C   UNL     1       3.664   2.156  18.241  0.00  0.00    +0.000 A 
ATOM      3  C   UNL     1       2.849   2.015  19.357  0.00  0.00    +0.000 A 
ATOM      4  C   UNL     1       2.336   3.155  19.952  0.00  0.00    +0.000 A 
ATOM      5 BR   UNL     1       1.219   2.980  21.464  0.00  0.00    +0.000 Br
ATOM      6  C   UNL     1       2.641   4.418  19.437  0.00  0.00    +0.000 A 
ATOM      7  C   UNL     1       3.470   4.572  18.294  0.00  0.00    +0.000 A 
ATOM      8  C   UNL     1       3.828   5.827  17.711  0.00  0.00    +0.000 A 
ATOM      9  C   UNL     1       4.698   5.807  16.610  0.00  0.00    +0.000 A 
ATOM     10  C   UNL     1       5.143   4.609  16.070  0.00  0.00    +0.000 A 
ATOM     11  N   UNL     1       4.785   3.420  16.610  0.00  0.00    +0.000 NA
ATOM     12  C   UNL     1       3.986   3.397  17.689  0.00  0.00    +0.000 A 
ENDROOT
BRANCH  10  13
ATOM     13  C   UNL     1       6.060   4.626  14.855  0.00  0.00    +0.000 C 
ATOM     14  F   UNL     1       7.362   4.335  15.160  0.00  0.00    +0.000 F 
ATOM     15  F   UNL     1       5.703   3.715  13.904  0.00  0.00    +0.000 F 
ATOM     16  F   UNL     1       6.100   5.836  14.230  0.00  0.00    +0.000 F 
ENDBRANCH  10  13
BRANCH   8  17
ATOM     17  N   UNL     1       3.430   7.064  18.296  0.00  0.00    +0.000 N 
ATOM     18  H   UNL     1       3.455   7.020  19.314  0.00  0.00    +0.000 HD
BRANCH  17  19
ATOM     19  C   UNL     1       2.195   7.679  17.767  0.00  0.00    +0.000 C 
BRANCH  19  20
ATOM     20  C   UNL     1       2.093   9.191  17.990  0.00  0.00    +0.000 C 
BRANCH  20  21
ATOM     21  C   UNL     1       1.335   9.443  19.251  0.00  0.00    +0.000 A 
ATOM     22  N   UNL     1       1.264   8.643  20.307  0.00  0.00    +0.000 NA
ATOM     23  N   UNL     1       0.378   9.188  21.231  0.00  0.00    +0.000 NA
ATOM     24  C   UNL     1      -0.050  10.303  20.711  0.00  0.00    +0.000 A 
ATOM     25  N   UNL     1       0.523  10.491  19.494  0.00  0.00    +0.000 N 
ATOM     26  C   UNL     1       0.097  11.709  18.848  0.00  0.00    +0.000 C 
ATOM     27  C   UNL     1      -0.554  12.476  20.019  0.00  0.00    +0.000 C 
ATOM     28  C   UNL     1      -0.965  11.401  21.060  0.00  0.00    +0.000 C 
ENDBRANCH  20  21
ENDBRANCH  19  20
ENDBRANCH  17  19
ENDBRANCH   8  17
TORSDOF 5
ENDMDL
MODEL 7
REMARK VINA RESULT:      -7.6      3.807      5.738
REMARK  Name = 
REMARK  5 active torsions:
REMARK  status: ('A' for Active; 'I' for Inactive)
REMARK    1  A    between atoms: C_8  and  N_9
REMARK    2  A    between atoms: N_9  and  C_10
REMARK    3  A    between atoms: C_10  and  C_11
REMARK    4  A    between atoms: C_11  and  C_12
REMARK    5  A    between atoms: C_21  and  C_22
REMARK                            x       y       z     vdW  Elec       q    Type
REMARK                         _______ _______ _______ _____ _____    ______ ____
ROOT
ATOM      1  F   UNL     1       3.929   1.031  17.541  0.00  0.00    +0.000 F 
ATOM      2  C   UNL     1       3.555   2.159  18.169  0.00  0.00    +0.000 A 
ATOM      3  C   UNL     1       2.747   2.029  19.292  0.00  0.00    +0.000 A 
ATOM      4  C   UNL     1       2.355   3.174  19.963  0.00  0.00    +0.000 A 
ATOM      5 BR   UNL     1       1.250   3.015  21.486  0.00  0.00    +0.000 Br
ATOM      6  C   UNL     1       2.771   4.431  19.516  0.00  0.00    +0.000 A 
ATOM      7  C   UNL     1       3.594   4.575  18.367  0.00  0.00    +0.000 A 
ATOM      8  C   UNL     1       4.061   5.823  17.851  0.00  0.00    +0.000 A 
ATOM      9  C   UNL     1       4.907   5.787  16.733  0.00  0.00    +0.000 A 
ATOM     10  C   UNL     1       5.228   4.586  16.115  0.00  0.00    +0.000 A 
ATOM     11  N   UNL     1       4.766   3.407  16.592  0.00  0.00    +0.000 NA
ATOM     12  C   UNL     1       3.985   3.394  17.684  0.00  0.00    +0.000 A 
ENDROOT
BRANCH  10  13
ATOM     13  C   UNL     1       6.123   4.590  14.883  0.00  0.00    +0.000 C 
ATOM     14  F   UNL     1       5.619   5.339  13.855  0.00  0.00    +0.000 F 
ATOM     15  F   UNL     1       7.363   5.104  15.126  0.00  0.00    +0.000 F 
ATOM     16  F   UNL     1       6.320   3.348  14.359  0.00  0.00    +0.000 F 
ENDBRANCH  10  13
BRANCH   8  17
ATOM     17  N   UNL     1       3.791   7.055  18.516  0.00  0.00    +0.000 N 
ATOM     18  H   UNL     1       3.371   6.900  19.431  0.00  0.00    +0.000 HD
BRANCH  17  19
ATOM     19  C   UNL     1       3.106   8.097  17.725  0.00  0.00    +0.000 C 
BRANCH  19  20
ATOM     20  C   UNL     1       1.603   8.212  17.994  0.00  0.00    +0.000 C 
BRANCH  20  21
ATOM     21  C   UNL     1       1.398   8.690  19.393  0.00  0.00    +0.000 A 
ATOM     22  N   UNL     1       1.669   8.021  20.507  0.00  0.00    +0.000 NA
ATOM     23  N   UNL     1       1.242   8.768  21.600  0.00  0.00    +0.000 NA
ATOM     24  C   UNL     1       0.737   9.867  21.115  0.00  0.00    +0.000 A 
ATOM     25  N   UNL     1       0.821   9.851  19.760  0.00  0.00    +0.000 N 
ATOM     26  C   UNL     1       0.278  11.038  19.144  0.00  0.00    +0.000 C 
ATOM     27  C   UNL     1       0.179  12.001  20.347  0.00  0.00    +0.000 C 
ATOM     28  C   UNL     1       0.108  11.101  21.611  0.00  0.00    +0.000 C 
ENDBRANCH  20  21
ENDBRANCH  19  20
ENDBRANCH  17  19
ENDBRANCH   8  17
TORSDOF 5
ENDMDL
MODEL 8
REMARK VINA RESULT:      -7.6      4.083      6.116
REMARK  Name = 
REMARK  5 active torsions:
REMARK  status: ('A' for Active; 'I' for Inactive)
REMARK    1  A    between atoms: C_8  and  N_9
REMARK    2  A    between atoms: N_9  and  C_10
REMARK    3  A    between atoms: C_10  and  C_11
REMARK    4  A    between atoms: C_11  and  C_12
REMARK    5  A    between atoms: C_21  and  C_22
REMARK                            x       y       z     vdW  Elec       q    Type
REMARK                         _______ _______ _______ _____ _____    ______ ____
ROOT
ATOM      1  F   UNL     1       3.860   0.992  17.618  0.00  0.00    +0.000 F 
ATOM      2  C   UNL     1       3.508   2.069  18.341  0.00  0.00    +0.000 A 
ATOM      3  C   UNL     1       2.774   1.850  19.500  0.00  0.00    +0.000 A 
ATOM      4  C   UNL     1       2.406   2.942  20.267  0.00  0.00    +0.000 A 
ATOM      5 BR   UNL     1       1.400   2.663  21.841  0.00  0.00    +0.000 Br
ATOM      6  C   UNL     1       2.773   4.233  19.879  0.00  0.00    +0.000 A 
ATOM      7  C   UNL     1       3.520   4.467  18.693  0.00  0.00    +0.000 A 
ATOM      8  C   UNL     1       3.934   5.755  18.233  0.00  0.00    +0.000 A 
ATOM      9  C   UNL     1       4.709   5.808  17.064  0.00  0.00    +0.000 A 
ATOM     10  C   UNL     1       5.010   4.657  16.351  0.00  0.00    +0.000 A 
ATOM     11  N   UNL     1       4.598   3.439  16.777  0.00  0.00    +0.000 NA
ATOM     12  C   UNL     1       3.887   3.341  17.912  0.00  0.00    +0.000 A 
ENDROOT
BRANCH  10  13
ATOM     13  C   UNL     1       5.827   4.757  15.070  0.00  0.00    +0.000 C 
ATOM     14  F   UNL     1       5.571   5.898  14.358  0.00  0.00    +0.000 F 
ATOM     15  F   UNL     1       7.172   4.769  15.294  0.00  0.00    +0.000 F 
ATOM     16  F   UNL     1       5.592   3.733  14.202  0.00  0.00    +0.000 F 
ENDBRANCH  10  13
BRANCH   8  17
ATOM     17  N   UNL     1       3.686   6.936  18.991  0.00  0.00    +0.000 N 
ATOM     18  H   UNL     1       4.074   6.863  19.931  0.00  0.00    +0.000 HD
BRANCH  17  19
ATOM     19  C   UNL     1       2.306   7.462  18.967  0.00  0.00    +0.000 C 
BRANCH  19  20
ATOM     20  C   UNL     1       1.700   7.720  20.349  0.00  0.00    +0.000 C 
BRANCH  20  21
ATOM     21  C   UNL     1       1.020   9.048  20.338  0.00  0.00    +0.000 A 
ATOM     22  N   UNL     1       0.963   9.902  19.324  0.00  0.00    +0.000 NA
ATOM     23  N   UNL     1       0.329  11.066  19.745  0.00  0.00    +0.000 NA
ATOM     24  C   UNL     1       0.013  10.876  20.995  0.00  0.00    +0.000 A 
ATOM     25  N   UNL     1       0.422   9.643  21.389  0.00  0.00    +0.000 N 
ATOM     26  C   UNL     1       0.110   9.355  22.769  0.00  0.00    +0.000 C 
ATOM     27  C   UNL     1      -0.917  10.461  23.097  0.00  0.00    +0.000 C 
ATOM     28  C   UNL     1      -0.648  11.609  22.086  0.00  0.00    +0.000 C 
ENDBRANCH  20  21
ENDBRANCH  19  20
ENDBRANCH  17  19
ENDBRANCH   8  17
TORSDOF 5
ENDMDL
MODEL 9
REMARK VINA RESULT:      -7.6      4.368      6.372
REMARK  Name = 
REMARK  5 active torsions:
REMARK  status: ('A' for Active; 'I' for Inactive)
REMARK    1  A    between atoms: C_8  and  N_9
REMARK    2  A    between atoms: N_9  and  C_10
REMARK    3  A    between atoms: C_10  and  C_11
REMARK    4  A    between atoms: C_11  and  C_12
REMARK    5  A    between atoms: C_21  and  C_22
REMARK                            x       y       z     vdW  Elec       q    Type
REMARK                         _______ _______ _______ _____ _____    ______ ____
ROOT
ATOM      1  F   UNL     1       3.806   1.513  17.498  0.00  0.00    +0.000 F 
ATOM      2  C   UNL     1       3.395   2.452  18.368  0.00  0.00    +0.000 A 
ATOM      3  C   UNL     1       2.716   2.022  19.501  0.00  0.00    +0.000 A 
ATOM      4  C   UNL     1       2.289   2.968  20.417  0.00  0.00    +0.000 A 
ATOM      5 BR   UNL     1       1.357   2.401  21.958  0.00  0.00    +0.000 Br
ATOM      6  C   UNL     1       2.544   4.325  20.201  0.00  0.00    +0.000 A 
ATOM      7  C   UNL     1       3.234   4.775  19.043  0.00  0.00    +0.000 A 
ATOM      8  C   UNL     1       3.533   6.141  18.754  0.00  0.00    +0.000 A 
ATOM      9  C   UNL     1       4.266   6.412  17.588  0.00  0.00    +0.000 A 
ATOM     10  C   UNL     1       4.632   5.395  16.719  0.00  0.00    +0.000 A 
ATOM     11  N   UNL     1       4.328   4.103  16.983  0.00  0.00    +0.000 NA
ATOM     12  C   UNL     1       3.662   3.796  18.109  0.00  0.00    +0.000 A 
ENDROOT
BRANCH  10  13
ATOM     13  C   UNL     1       5.399   5.732  15.447  0.00  0.00    +0.000 C 
ATOM     14  F   UNL     1       5.233   4.800  14.458  0.00  0.00    +0.000 F 
ATOM     15  F   UNL     1       5.015   6.916  14.890  0.00  0.00    +0.000 F 
ATOM     16  F   UNL     1       6.745   5.816  15.638  0.00  0.00    +0.000 F 
ENDBRANCH  10  13
BRANCH   8  17
ATOM     17  N   UNL     1       3.220   7.186  19.671  0.00  0.00    +0.000 N 
ATOM     18  H   UNL     1       3.408   6.907  20.632  0.00  0.00    +0.000 HD
BRANCH  17  19
ATOM     19  C   UNL     1       1.910   7.847  19.499  0.00  0.00    +0.000 C 
BRANCH  19  20
ATOM     20  C   UNL     1       1.203   8.207  20.809  0.00  0.00    +0.000 C 
BRANCH  20  21
ATOM     21  C   UNL     1       0.388   9.439  20.596  0.00  0.00    +0.000 A 
ATOM     22  N   UNL     1       0.187  10.067  19.445  0.00  0.00    +0.000 NA
ATOM     23  N   UNL     1      -0.543  11.227  19.682  0.00  0.00    +0.000 NA
ATOM     24  C   UNL     1      -0.769  11.258  20.966  0.00  0.00    +0.000 A 
ATOM     25  N   UNL     1      -0.213  10.170  21.556  0.00  0.00    +0.000 N 
ATOM     26  C   UNL     1      -0.418  10.131  22.984  0.00  0.00    +0.000 C 
ATOM     27  C   UNL     1      -1.537  11.179  23.170  0.00  0.00    +0.000 C 
ATOM     28  C   UNL     1      -1.445  12.126  21.943  0.00  0.00    +0.000 C 
ENDBRANCH  20  21
ENDBRANCH  19  20
ENDBRANCH  17  19
ENDBRANCH   8  17
TORSDOF 5
ENDMDL
