MODEL 1
REMARK VINA RESULT:      -6.6      0.000      0.000
REMARK  Name = 
REMARK  9 active torsions:
REMARK  status: ('A' for Active; 'I' for Inactive)
REMARK    1  A    between atoms: C_1  and  O_2
REMARK    2  A    between atoms: O_2  and  C_3
REMARK    3  A    between atoms: C_3  and  C_5
REMARK    4  A    between atoms: C_5  and  N_6
REMARK    5  A    between atoms: C_7  and  C_9
REMARK    6  A    between atoms: C_9  and  O_10
REMARK    7  A    between atoms: O_10  and  C_11
REMARK    8  A    between atoms: C_11  and  C_13
REMARK    9  A    between atoms: C_13  and  C_14
REMARK                            x       y       z     vdW  Elec       q    Type
REMARK                         _______ _______ _______ _____ _____    ______ ____
ROOT
ATOM      1  O   UNL     1       6.496   4.270  16.823  0.00  0.00    +0.000 OA
ENDROOT
BRANCH   1   2
ATOM      2  C   UNL     1       6.644   4.790  18.073  0.00  0.00    +0.000 C 
ATOM      3  O   UNL     1       7.634   4.634  18.781  0.00  0.00    +0.000 OA
BRANCH   2   4
ATOM      4  C   UNL     1       5.429   5.582  18.479  0.00  0.00    +0.000 C 
BRANCH   4   5
ATOM      5  C   UNL     1       4.174   4.759  18.614  0.00  0.00    +0.000 A 
ATOM      6  C   UNL     1       3.018   5.126  17.912  0.00  0.00    +0.000 A 
ATOM      7  C   UNL     1       1.882   4.314  17.947  0.00  0.00    +0.000 A 
ATOM      8  C   UNL     1       1.890   3.144  18.700  0.00  0.00    +0.000 A 
ATOM      9 CL   UNL     1       0.513   2.113  18.692  0.00  0.00    +0.000 Cl
ATOM     10  C   UNL     1       3.014   2.794  19.445  0.00  0.00    +0.000 A 
ATOM     11  C   UNL     1       4.153   3.603  19.408  0.00  0.00    +0.000 A 
ENDBRANCH   4   5
ENDBRANCH   2   4
ENDBRANCH   1   2
BRANCH   1  12
ATOM     12  C   UNL     1       6.186   5.232  15.815  0.00  0.00    +0.000 C 
BRANCH  12  14
ATOM     13  N   UNL     1       5.948   4.020  13.709  0.00  0.00    +0.000 N 
ATOM     14  C   UNL     1       6.751   4.846  14.452  0.00  0.00    +0.000 C 
ATOM     15  O   UNL     1       7.847   5.250  14.053  0.00  0.00    +0.000 OA
ATOM     16  H   UNL     1       5.126   3.598  14.144  0.00  0.00    +0.000 HD
BRANCH  13  17
ATOM     17  C   UNL     1       6.362   3.514  12.410  0.00  0.00    +0.000 C 
BRANCH  17  18
ATOM     18  C   UNL     1       5.258   2.753  11.684  0.00  0.00    +0.000 C 
ATOM     19  O   UNL     1       4.177   3.237  11.378  0.00  0.00    +0.000 OA
BRANCH  18  21
ATOM     20  C   UNL     1       6.935   1.344  10.834  0.00  0.00    +0.000 C 
ATOM     21  O   UNL     1       5.641   1.467  11.423  0.00  0.00    +0.000 OA
ENDBRANCH  18  21
ENDBRANCH  17  18
ENDBRANCH  13  17
ENDBRANCH  12  14
ENDBRANCH   1  12
TORSDOF 8
ENDMDL
MODEL 2
REMARK VINA RESULT:      -6.6      2.250      2.876
REMARK  Name = 
REMARK  9 active torsions:
REMARK  status: ('A' for Active; 'I' for Inactive)
REMARK    1  A    between atoms: C_1  and  O_2
REMARK    2  A    between atoms: O_2  and  C_3
REMARK    3  A    between atoms: C_3  and  C_5
REMARK    4  A    between atoms: C_5  and  N_6
REMARK    5  A    between atoms: C_7  and  C_9
REMARK    6  A    between atoms: C_9  and  O_10
REMARK    7  A    between atoms: O_10  and  C_11
REMARK    8  A    between atoms: C_11  and  C_13
REMARK    9  A    between atoms: C_13  and  C_14
REMARK                            x       y       z     vdW  Elec       q    Type
REMARK                         _______ _______ _______ _____ _____    ______ ____
ROOT
ATOM      1  O   UNL     1       5.768   5.105  16.847  0.00  0.00    +0.000 OA
ENDROOT
BRANCH   1   2
ATOM      2  C   UNL     1       5.079   4.449  17.821  0.00  0.00    +0.000 C 
ATOM      3  O   UNL     1       5.597   3.858  18.764  0.00  0.00    +0.000 OA
BRANCH   2   4
ATOM      4  C   UNL     1       3.594   4.537  17.590  0.00  0.00    +0.000 C 
BRANCH   4   5
ATOM      5  C   UNL     1       2.883   5.497  18.508  0.00  0.00    +0.000 A 
ATOM      6  C   UNL     1       2.362   5.043  19.727  0.00  0.00    +0.000 A 
ATOM      7  C   UNL     1       1.795   5.943  20.632  0.00  0.00    +0.000 A 
ATOM      8  C   UNL     1       1.726   7.297  20.313  0.00  0.00    +0.000 A 
ATOM      9 CL   UNL     1       1.084   8.412  21.454  0.00  0.00    +0.000 Cl
ATOM     10  C   UNL     1       2.193   7.754  19.082  0.00  0.00    +0.000 A 
ATOM     11  C   UNL     1       2.765   6.855  18.177  0.00  0.00    +0.000 A 
ENDBRANCH   4   5
ENDBRANCH   2   4
ENDBRANCH   1   2
BRANCH   1  12
ATOM     12  C   UNL     1       6.896   4.393  16.338  0.00  0.00    +0.000 C 
BRANCH  12  14
ATOM     13  N   UNL     1       6.366   3.705  14.057  0.00  0.00    +0.000 N 
ATOM     14  C   UNL     1       7.073   4.583  14.836  0.00  0.00    +0.000 C 
ATOM     15  O   UNL     1       7.798   5.463  14.362  0.00  0.00    +0.000 OA
ATOM     16  H   UNL     1       5.903   2.908  14.497  0.00  0.00    +0.000 HD
BRANCH  13  17
ATOM     17  C   UNL     1       6.466   3.714  12.606  0.00  0.00    +0.000 C 
BRANCH  17  18
ATOM     18  C   UNL     1       5.442   2.809  11.930  0.00  0.00    +0.000 C 
ATOM     19  O   UNL     1       5.697   1.701  11.477  0.00  0.00    +0.000 OA
BRANCH  18  21
ATOM     20  C   UNL     1       3.618   3.472  10.606  0.00  0.00    +0.000 C 
ATOM     21  O   UNL     1       4.210   3.400  11.902  0.00  0.00    +0.000 OA
ENDBRANCH  18  21
ENDBRANCH  17  18
ENDBRANCH  13  17
ENDBRANCH  12  14
ENDBRANCH   1  12
TORSDOF 8
ENDMDL
MODEL 3
REMARK VINA RESULT:      -6.6      1.192      1.774
REMARK  Name = 
REMARK  9 active torsions:
REMARK  status: ('A' for Active; 'I' for Inactive)
REMARK    1  A    between atoms: C_1  and  O_2
REMARK    2  A    between atoms: O_2  and  C_3
REMARK    3  A    between atoms: C_3  and  C_5
REMARK    4  A    between atoms: C_5  and  N_6
REMARK    5  A    between atoms: C_7  and  C_9
REMARK    6  A    between atoms: C_9  and  O_10
REMARK    7  A    between atoms: O_10  and  C_11
REMARK    8  A    between atoms: C_11  and  C_13
REMARK    9  A    between atoms: C_13  and  C_14
REMARK                            x       y       z     vdW  Elec       q    Type
REMARK                         _______ _______ _______ _____ _____    ______ ____
ROOT
ATOM      1  O   UNL     1       6.626   4.339  16.593  0.00  0.00    +0.000 OA
ENDROOT
BRANCH   1   2
ATOM      2  C   UNL     1       6.286   4.678  17.867  0.00  0.00    +0.000 C 
ATOM      3  O   UNL     1       6.981   4.462  18.855  0.00  0.00    +0.000 OA
BRANCH   2   4
ATOM      4  C   UNL     1       4.939   5.351  17.909  0.00  0.00    +0.000 C 
BRANCH   4   5
ATOM      5  C   UNL     1       3.943   4.679  18.818  0.00  0.00    +0.000 A 
ATOM      6  C   UNL     1       3.711   3.301  18.705  0.00  0.00    +0.000 A 
ATOM      7  C   UNL     1       2.869   2.650  19.609  0.00  0.00    +0.000 A 
ATOM      8  C   UNL     1       2.240   3.376  20.617  0.00  0.00    +0.000 A 
ATOM      9 CL   UNL     1       1.253   2.562  21.767  0.00  0.00    +0.000 Cl
ATOM     10  C   UNL     1       2.421   4.755  20.709  0.00  0.00    +0.000 A 
ATOM     11  C   UNL     1       3.266   5.407  19.807  0.00  0.00    +0.000 A 
ENDBRANCH   4   5
ENDBRANCH   2   4
ENDBRANCH   1   2
BRANCH   1  12
ATOM     12  C   UNL     1       6.452   5.383  15.636  0.00  0.00    +0.000 C 
BRANCH  12  14
ATOM     13  N   UNL     1       6.165   4.046  13.614  0.00  0.00    +0.000 N 
ATOM     14  C   UNL     1       6.938   4.985  14.247  0.00  0.00    +0.000 C 
ATOM     15  O   UNL     1       7.949   5.473  13.735  0.00  0.00    +0.000 OA
ATOM     16  H   UNL     1       5.430   3.568  14.138  0.00  0.00    +0.000 HD
BRANCH  13  17
ATOM     17  C   UNL     1       6.519   3.516  12.307  0.00  0.00    +0.000 C 
BRANCH  17  18
ATOM     18  C   UNL     1       5.463   2.575  11.736  0.00  0.00    +0.000 C 
ATOM     19  O   UNL     1       5.704   1.464  11.286  0.00  0.00    +0.000 OA
BRANCH  18  21
ATOM     20  C   UNL     1       3.694   3.555  10.539  0.00  0.00    +0.000 C 
ATOM     21  O   UNL     1       4.220   3.140  11.799  0.00  0.00    +0.000 OA
ENDBRANCH  18  21
ENDBRANCH  17  18
ENDBRANCH  13  17
ENDBRANCH  12  14
ENDBRANCH   1  12
TORSDOF 8
ENDMDL
MODEL 4
REMARK VINA RESULT:      -6.5      4.252      5.829
REMARK  Name = 
REMARK  9 active torsions:
REMARK  status: ('A' for Active; 'I' for Inactive)
REMARK    1  A    between atoms: C_1  and  O_2
REMARK    2  A    between atoms: O_2  and  C_3
REMARK    3  A    between atoms: C_3  and  C_5
REMARK    4  A    between atoms: C_5  and  N_6
REMARK    5  A    between atoms: C_7  and  C_9
REMARK    6  A    between atoms: C_9  and  O_10
REMARK    7  A    between atoms: O_10  and  C_11
REMARK    8  A    between atoms: C_11  and  C_13
REMARK    9  A    between atoms: C_13  and  C_14
REMARK                            x       y       z     vdW  Elec       q    Type
REMARK                         _______ _______ _______ _____ _____    ______ ____
ROOT
ATOM      1  O   UNL     1       3.347   2.581  20.875  0.00  0.00    +0.000 OA
ENDROOT
BRANCH   1   2
ATOM      2  C   UNL     1       2.098   2.527  20.336  0.00  0.00    +0.000 C 
ATOM      3  O   UNL     1       1.688   1.625  19.613  0.00  0.00    +0.000 OA
BRANCH   2   4
ATOM      4  C   UNL     1       1.279   3.726  20.740  0.00  0.00    +0.000 C 
BRANCH   4   5
ATOM      5  C   UNL     1       1.605   4.981  19.973  0.00  0.00    +0.000 A 
ATOM      6  C   UNL     1       1.709   6.205  20.648  0.00  0.00    +0.000 A 
ATOM      7  C   UNL     1       2.112   7.356  19.966  0.00  0.00    +0.000 A 
ATOM      8  C   UNL     1       2.394   7.292  18.604  0.00  0.00    +0.000 A 
ATOM      9 CL   UNL     1       2.951   8.695  17.780  0.00  0.00    +0.000 Cl
ATOM     10  C   UNL     1       2.245   6.092  17.911  0.00  0.00    +0.000 A 
ATOM     11  C   UNL     1       1.844   4.939  18.592  0.00  0.00    +0.000 A 
ENDBRANCH   4   5
ENDBRANCH   2   4
ENDBRANCH   1   2
BRANCH   1  12
ATOM     12  C   UNL     1       4.377   2.067  20.031  0.00  0.00    +0.000 C 
BRANCH  12  14
ATOM     13  N   UNL     1       5.510   4.071  19.217  0.00  0.00    +0.000 N 
ATOM     14  C   UNL     1       4.709   3.011  18.880  0.00  0.00    +0.000 C 
ATOM     15  O   UNL     1       4.287   2.829  17.735  0.00  0.00    +0.000 OA
ATOM     16  H   UNL     1       5.706   4.256  20.202  0.00  0.00    +0.000 HD
BRANCH  13  17
ATOM     17  C   UNL     1       5.874   5.094  18.250  0.00  0.00    +0.000 C 
BRANCH  17  18
ATOM     18  C   UNL     1       7.374   5.158  17.981  0.00  0.00    +0.000 C 
ATOM     19  O   UNL     1       7.977   4.373  17.262  0.00  0.00    +0.000 OA
BRANCH  18  21
ATOM     20  C   UNL     1       7.837   7.461  17.977  0.00  0.00    +0.000 C 
ATOM     21  O   UNL     1       7.946   6.206  18.646  0.00  0.00    +0.000 OA
ENDBRANCH  18  21
ENDBRANCH  17  18
ENDBRANCH  13  17
ENDBRANCH  12  14
ENDBRANCH   1  12
TORSDOF 8
ENDMDL
MODEL 5
REMARK VINA RESULT:      -6.5      3.138      4.856
REMARK  Name = 
REMARK  9 active torsions:
REMARK  status: ('A' for Active; 'I' for Inactive)
REMARK    1  A    between atoms: C_1  and  O_2
REMARK    2  A    between atoms: O_2  and  C_3
REMARK    3  A    between atoms: C_3  and  C_5
REMARK    4  A    between atoms: C_5  and  N_6
REMARK    5  A    between atoms: C_7  and  C_9
REMARK    6  A    between atoms: C_9  and  O_10
REMARK    7  A    between atoms: O_10  and  C_11
REMARK    8  A    between atoms: C_11  and  C_13
REMARK    9  A    between atoms: C_13  and  C_14
REMARK                            x       y       z     vdW  Elec       q    Type
REMARK                         _______ _______ _______ _____ _____    ______ ____
ROOT
ATOM      1  O   UNL     1       3.485   2.682  20.542  0.00  0.00    +0.000 OA
ENDROOT
BRANCH   1   2
ATOM      2  C   UNL     1       2.196   2.665  20.102  0.00  0.00    +0.000 C 
ATOM      3  O   UNL     1       1.719   1.801  19.374  0.00  0.00    +0.000 OA
BRANCH   2   4
ATOM      4  C   UNL     1       1.428   3.852  20.624  0.00  0.00    +0.000 C 
BRANCH   4   5
ATOM      5  C   UNL     1       1.784   5.156  19.959  0.00  0.00    +0.000 A 
ATOM      6  C   UNL     1       2.120   5.179  18.599  0.00  0.00    +0.000 A 
ATOM      7  C   UNL     1       2.349   6.394  17.948  0.00  0.00    +0.000 A 
ATOM      8  C   UNL     1       2.263   7.588  18.659  0.00  0.00    +0.000 A 
ATOM      9 CL   UNL     1       2.484   9.085  17.842  0.00  0.00    +0.000 Cl
ATOM     10  C   UNL     1       1.981   7.576  20.023  0.00  0.00    +0.000 A 
ATOM     11  C   UNL     1       1.748   6.361  20.675  0.00  0.00    +0.000 A 
ENDBRANCH   4   5
ENDBRANCH   2   4
ENDBRANCH   1   2
BRANCH   1  12
ATOM     12  C   UNL     1       4.459   2.445  19.526  0.00  0.00    +0.000 C 
BRANCH  12  14
ATOM     13  N   UNL     1       5.413   3.799  17.733  0.00  0.00    +0.000 N 
ATOM     14  C   UNL     1       5.152   3.726  19.076  0.00  0.00    +0.000 C 
ATOM     15  O   UNL     1       5.452   4.627  19.865  0.00  0.00    +0.000 OA
ATOM     16  H   UNL     1       5.281   2.969  17.152  0.00  0.00    +0.000 HD
BRANCH  13  17
ATOM     17  C   UNL     1       6.119   4.928  17.149  0.00  0.00    +0.000 C 
BRANCH  17  18
ATOM     18  C   UNL     1       5.502   5.409  15.840  0.00  0.00    +0.000 C 
ATOM     19  O   UNL     1       5.297   6.583  15.567  0.00  0.00    +0.000 OA
BRANCH  18  21
ATOM     20  C   UNL     1       6.276   3.978  14.145  0.00  0.00    +0.000 C 
ATOM     21  O   UNL     1       5.213   4.354  15.020  0.00  0.00    +0.000 OA
ENDBRANCH  18  21
ENDBRANCH  17  18
ENDBRANCH  13  17
ENDBRANCH  12  14
ENDBRANCH   1  12
TORSDOF 8
ENDMDL
MODEL 6
REMARK VINA RESULT:      -6.4      0.831      1.661
REMARK  Name = 
REMARK  9 active torsions:
REMARK  status: ('A' for Active; 'I' for Inactive)
REMARK    1  A    between atoms: C_1  and  O_2
REMARK    2  A    between atoms: O_2  and  C_3
REMARK    3  A    between atoms: C_3  and  C_5
REMARK    4  A    between atoms: C_5  and  N_6
REMARK    5  A    between atoms: C_7  and  C_9
REMARK    6  A    between atoms: C_9  and  O_10
REMARK    7  A    between atoms: O_10  and  C_11
REMARK    8  A    between atoms: C_11  and  C_13
REMARK    9  A    between atoms: C_13  and  C_14
REMARK                            x       y       z     vdW  Elec       q    Type
REMARK                         _______ _______ _______ _____ _____    ______ ____
ROOT
ATOM      1  O   UNL     1       6.318   5.115  16.949  0.00  0.00    +0.000 OA
ENDROOT
BRANCH   1   2
ATOM      2  C   UNL     1       6.805   4.973  18.212  0.00  0.00    +0.000 C 
ATOM      3  O   UNL     1       7.956   4.647  18.484  0.00  0.00    +0.000 OA
BRANCH   2   4
ATOM      4  C   UNL     1       5.743   5.265  19.240  0.00  0.00    +0.000 C 
BRANCH   4   5
ATOM      5  C   UNL     1       4.448   4.528  19.015  0.00  0.00    +0.000 A 
ATOM      6  C   UNL     1       4.362   3.160  19.308  0.00  0.00    +0.000 A 
ATOM      7  C   UNL     1       3.141   2.490  19.204  0.00  0.00    +0.000 A 
ATOM      8  C   UNL     1       2.006   3.179  18.785  0.00  0.00    +0.000 A 
ATOM      9 CL   UNL     1       0.491   2.368  18.717  0.00  0.00    +0.000 Cl
ATOM     10  C   UNL     1       2.089   4.527  18.440  0.00  0.00    +0.000 A 
ATOM     11  C   UNL     1       3.309   5.200  18.548  0.00  0.00    +0.000 A 
ENDBRANCH   4   5
ENDBRANCH   2   4
ENDBRANCH   1   2
BRANCH   1  12
ATOM     12  C   UNL     1       6.577   4.007  16.088  0.00  0.00    +0.000 C 
BRANCH  12  14
ATOM     13  N   UNL     1       6.476   3.366  13.734  0.00  0.00    +0.000 N 
ATOM     14  C   UNL     1       6.598   4.408  14.617  0.00  0.00    +0.000 C 
ATOM     15  O   UNL     1       6.715   5.581  14.253  0.00  0.00    +0.000 OA
ATOM     16  H   UNL     1       6.532   2.408  14.082  0.00  0.00    +0.000 HD
BRANCH  13  17
ATOM     17  C   UNL     1       6.533   3.569  12.295  0.00  0.00    +0.000 C 
BRANCH  17  18
ATOM     18  C   UNL     1       6.271   2.295  11.500  0.00  0.00    +0.000 C 
ATOM     19  O   UNL     1       7.148   1.538  11.106  0.00  0.00    +0.000 OA
BRANCH  18  21
ATOM     20  C   UNL     1       4.158   3.312  11.358  0.00  0.00    +0.000 C 
ATOM     21  O   UNL     1       4.932   2.116  11.292  0.00  0.00    +0.000 OA
ENDBRANCH  18  21
ENDBRANCH  17  18
ENDBRANCH  13  17
ENDBRANCH  12  14
ENDBRANCH   1  12
TORSDOF 8
ENDMDL
MODEL 7
REMARK VINA RESULT:      -6.4      4.683      6.401
REMARK  Name = 
REMARK  9 active torsions:
REMARK  status: ('A' for Active; 'I' for Inactive)
REMARK    1  A    between atoms: C_1  and  O_2
REMARK    2  A    between atoms: O_2  and  C_3
REMARK    3  A    between atoms: C_3  and  C_5
REMARK    4  A    between atoms: C_5  and  N_6
REMARK    5  A    between atoms: C_7  and  C_9
REMARK    6  A    between atoms: C_9  and  O_10
REMARK    7  A    between atoms: O_10  and  C_11
REMARK    8  A    between atoms: C_11  and  C_13
REMARK    9  A    between atoms: C_13  and  C_14
REMARK                            x       y       z     vdW  Elec       q    Type
REMARK                         _______ _______ _______ _____ _____    ______ ____
ROOT
ATOM      1  O   UNL     1       5.253   5.527  18.755  0.00  0.00    +0.000 OA
ENDROOT
BRANCH   1   2
ATOM      2  C   UNL     1       4.813   6.401  17.808  0.00  0.00    +0.000 C 
ATOM      3  O   UNL     1       5.531   7.184  17.195  0.00  0.00    +0.000 OA
BRANCH   2   4
ATOM      4  C   UNL     1       3.325   6.285  17.611  0.00  0.00    +0.000 C 
BRANCH   4   5
ATOM      5  C   UNL     1       2.520   7.295  18.386  0.00  0.00    +0.000 A 
ATOM      6  C   UNL     1       2.235   7.072  19.741  0.00  0.00    +0.000 A 
ATOM      7  C   UNL     1       1.582   8.048  20.496  0.00  0.00    +0.000 A 
ATOM      8  C   UNL     1       1.191   9.242  19.896  0.00  0.00    +0.000 A 
ATOM      9 CL   UNL     1       0.442  10.468  20.842  0.00  0.00    +0.000 Cl
ATOM     10  C   UNL     1       1.421   9.456  18.538  0.00  0.00    +0.000 A 
ATOM     11  C   UNL     1       2.079   8.481  17.782  0.00  0.00    +0.000 A 
ENDBRANCH   4   5
ENDBRANCH   2   4
ENDBRANCH   1   2
BRANCH   1  12
ATOM     12  C   UNL     1       5.495   4.205  18.274  0.00  0.00    +0.000 C 
BRANCH  12  14
ATOM     13  N   UNL     1       3.498   2.802  18.310  0.00  0.00    +0.000 N 
ATOM     14  C   UNL     1       4.636   3.163  18.982  0.00  0.00    +0.000 C 
ATOM     15  O   UNL     1       4.947   2.685  20.077  0.00  0.00    +0.000 OA
ATOM     16  H   UNL     1       3.214   3.333  17.486  0.00  0.00    +0.000 HD
BRANCH  13  17
ATOM     17  C   UNL     1       2.541   1.861  18.872  0.00  0.00    +0.000 C 
BRANCH  17  18
ATOM     18  C   UNL     1       1.174   2.482  19.133  0.00  0.00    +0.000 C 
ATOM     19  O   UNL     1       0.169   2.233  18.481  0.00  0.00    +0.000 OA
BRANCH  18  21
ATOM     20  C   UNL     1       1.509   2.730  21.445  0.00  0.00    +0.000 C 
ATOM     21  O   UNL     1       1.223   3.346  20.191  0.00  0.00    +0.000 OA
ENDBRANCH  18  21
ENDBRANCH  17  18
ENDBRANCH  13  17
ENDBRANCH  12  14
ENDBRANCH   1  12
TORSDOF 8
ENDMDL
MODEL 8
REMARK VINA RESULT:      -6.3      0.973      1.425
REMARK  Name = 
REMARK  9 active torsions:
REMARK  status: ('A' for Active; 'I' for Inactive)
REMARK    1  A    between atoms: C_1  and  O_2
REMARK    2  A    between atoms: O_2  and  C_3
REMARK    3  A    between atoms: C_3  and  C_5
REMARK    4  A    between atoms: C_5  and  N_6
REMARK    5  A    between atoms: C_7  and  C_9
REMARK    6  A    between atoms: C_9  and  O_10
REMARK    7  A    between atoms: O_10  and  C_11
REMARK    8  A    between atoms: C_11  and  C_13
REMARK    9  A    between atoms: C_13  and  C_14
REMARK                            x       y       z     vdW  Elec       q    Type
REMARK                         _______ _______ _______ _____ _____    ______ ____
ROOT
ATOM      1  O   UNL     1       6.067   5.001  16.858  0.00  0.00    +0.000 OA
ENDROOT
BRANCH   1   2
ATOM      2  C   UNL     1       6.315   5.874  17.873  0.00  0.00    +0.000 C 
ATOM      3  O   UNL     1       6.803   6.991  17.729  0.00  0.00    +0.000 OA
BRANCH   2   4
ATOM      4  C   UNL     1       5.917   5.289  19.203  0.00  0.00    +0.000 C 
BRANCH   4   5
ATOM      5  C   UNL     1       4.583   4.590  19.195  0.00  0.00    +0.000 A 
ATOM      6  C   UNL     1       3.424   5.299  18.852  0.00  0.00    +0.000 A 
ATOM      7  C   UNL     1       2.199   4.639  18.739  0.00  0.00    +0.000 A 
ATOM      8  C   UNL     1       2.123   3.271  18.988  0.00  0.00    +0.000 A 
ATOM      9 CL   UNL     1       0.626   2.448  18.788  0.00  0.00    +0.000 Cl
ATOM     10  C   UNL     1       3.258   2.563  19.381  0.00  0.00    +0.000 A 
ATOM     11  C   UNL     1       4.485   3.223  19.491  0.00  0.00    +0.000 A 
ENDBRANCH   4   5
ENDBRANCH   2   4
ENDBRANCH   1   2
BRANCH   1  12
ATOM     12  C   UNL     1       5.719   5.618  15.620  0.00  0.00    +0.000 C 
BRANCH  12  14
ATOM     13  N   UNL     1       5.752   4.150  13.669  0.00  0.00    +0.000 N 
ATOM     14  C   UNL     1       6.478   5.020  14.440  0.00  0.00    +0.000 C 
ATOM     15  O   UNL     1       7.656   5.302  14.202  0.00  0.00    +0.000 OA
ATOM     16  H   UNL     1       4.836   3.839  13.995  0.00  0.00    +0.000 HD
BRANCH  13  17
ATOM     17  C   UNL     1       6.343   3.450  12.540  0.00  0.00    +0.000 C 
BRANCH  17  18
ATOM     18  C   UNL     1       5.329   2.638  11.742  0.00  0.00    +0.000 C 
ATOM     19  O   UNL     1       5.587   1.588  11.169  0.00  0.00    +0.000 OA
BRANCH  18  21
ATOM     20  C   UNL     1       3.558   3.506  10.465  0.00  0.00    +0.000 C 
ATOM     21  O   UNL     1       4.101   3.237  11.757  0.00  0.00    +0.000 OA
ENDBRANCH  18  21
ENDBRANCH  17  18
ENDBRANCH  13  17
ENDBRANCH  12  14
ENDBRANCH   1  12
TORSDOF 8
ENDMDL
MODEL 9
REMARK VINA RESULT:      -6.3      2.759      3.203
REMARK  Name = 
REMARK  9 active torsions:
REMARK  status: ('A' for Active; 'I' for Inactive)
REMARK    1  A    between atoms: C_1  and  O_2
REMARK    2  A    between atoms: O_2  and  C_3
REMARK    3  A    between atoms: C_3  and  C_5
REMARK    4  A    between atoms: C_5  and  N_6
REMARK    5  A    between atoms: C_7  and  C_9
REMARK    6  A    between atoms: C_9  and  O_10
REMARK    7  A    between atoms: O_10  and  C_11
REMARK    8  A    between atoms: C_11  and  C_13
REMARK    9  A    between atoms: C_13  and  C_14
REMARK                            x       y       z     vdW  Elec       q    Type
REMARK                         _______ _______ _______ _____ _____    ______ ____
ROOT
ATOM      1  O   UNL     1       5.041   4.725  16.467  0.00  0.00    +0.000 OA
ENDROOT
BRANCH   1   2
ATOM      2  C   UNL     1       4.698   5.623  17.432  0.00  0.00    +0.000 C 
ATOM      3  O   UNL     1       5.473   6.423  17.947  0.00  0.00    +0.000 OA
BRANCH   2   4
ATOM      4  C   UNL     1       3.240   5.504  17.791  0.00  0.00    +0.000 C 
BRANCH   4   5
ATOM      5  C   UNL     1       2.665   6.733  18.446  0.00  0.00    +0.000 A 
ATOM      6  C   UNL     1       2.442   7.891  17.687  0.00  0.00    +0.000 A 
ATOM      7  C   UNL     1       1.813   8.999  18.257  0.00  0.00    +0.000 A 
ATOM      8  C   UNL     1       1.423   8.964  19.593  0.00  0.00    +0.000 A 
ATOM      9 CL   UNL     1       0.593  10.306  20.276  0.00  0.00    +0.000 Cl
ATOM     10  C   UNL     1       1.685   7.839  20.373  0.00  0.00    +0.000 A 
ATOM     11  C   UNL     1       2.311   6.727  19.802  0.00  0.00    +0.000 A 
ENDBRANCH   4   5
ENDBRANCH   2   4
ENDBRANCH   1   2
BRANCH   1  12
ATOM     12  C   UNL     1       6.447   4.559  16.287  0.00  0.00    +0.000 C 
BRANCH  12  14
ATOM     13  N   UNL     1       6.209   3.638  14.039  0.00  0.00    +0.000 N 
ATOM     14  C   UNL     1       6.848   4.569  14.816  0.00  0.00    +0.000 C 
ATOM     15  O   UNL     1       7.684   5.357  14.364  0.00  0.00    +0.000 OA
ATOM     16  H   UNL     1       5.642   2.917  14.487  0.00  0.00    +0.000 HD
BRANCH  13  17
ATOM     17  C   UNL     1       6.516   3.477  12.626  0.00  0.00    +0.000 C 
BRANCH  17  18
ATOM     18  C   UNL     1       5.363   2.881  11.826  0.00  0.00    +0.000 C 
ATOM     19  O   UNL     1       4.278   3.424  11.676  0.00  0.00    +0.000 OA
BRANCH  18  21
ATOM     20  C   UNL     1       7.105   1.505  11.055  0.00  0.00    +0.000 C 
ATOM     21  O   UNL     1       5.709   1.667  11.302  0.00  0.00    +0.000 OA
ENDBRANCH  18  21
ENDBRANCH  17  18
ENDBRANCH  13  17
ENDBRANCH  12  14
ENDBRANCH   1  12
TORSDOF 8
ENDMDL
