MODEL 1
REMARK VINA RESULT:      -6.9      0.000      0.000
REMARK  Name = 
REMARK  6 active torsions:
REMARK  status: ('A' for Active; 'I' for Inactive)
REMARK    1  A    between atoms: C_1  and  C_2
REMARK    2  A    between atoms: C_4  and  C_5
REMARK    3  A    between atoms: N_20  and  C_21
REMARK    4  A    between atoms: C_21  and  C_22
REMARK    5  A    between atoms: C_22  and  C_23
REMARK    6  A    between atoms: C_22  and  C_24
REMARK                            x       y       z     vdW  Elec       q    Type
REMARK                         _______ _______ _______ _____ _____    ______ ____
ROOT
ATOM      1  C   UNL     1       2.150   8.019  18.425  0.00  0.00    +0.000 C 
ATOM      2  O   UNL     1       2.090   8.461  17.263  0.00  0.00    +0.000 OA
ATOM      3  N   UNL     1       1.832   8.832  19.521  0.00  0.00    +0.000 N 
ATOM      4  C   UNL     1       1.626  10.218  19.204  0.00  0.00    +0.000 C 
ATOM      5  C   UNL     1       1.021  11.007  20.339  0.00  0.00    +0.000 C 
ATOM      6  C   UNL     1      -0.463  10.534  20.449  0.00  0.00    +0.000 C 
ATOM      7  C   UNL     1      -0.325   9.004  20.856  0.00  0.00    +0.000 C 
ATOM      8  C   UNL     1       1.106   8.358  20.703  0.00  0.00    +0.000 C 
ATOM      9  C   UNL     1      -1.168  11.408  21.559  0.00  0.00    +0.000 A 
ATOM     10  N   UNL     1      -1.282  11.141  22.902  0.00  0.00    +0.000 NA
ATOM     11  C   UNL     1      -1.973  12.160  23.408  0.00  0.00    +0.000 A 
ATOM     12  N   UNL     1      -2.276  13.088  22.463  0.00  0.00    +0.000 N 
ATOM     13  C   UNL     1      -1.772  12.619  21.285  0.00  0.00    +0.000 A 
ATOM     14  C   UNL     1      -1.927  13.247  19.954  0.00  0.00    +0.000 C 
ATOM     15  C   UNL     1      -1.208  12.374  18.914  0.00  0.00    +0.000 C 
ATOM     16  N   UNL     1      -1.312  10.889  19.197  0.00  0.00    +0.000 NA
ATOM     17  H   UNL     1      -2.793  13.955  22.593  0.00  0.00    +0.000 HD
ENDROOT
BRANCH   1  21
ATOM     18  C   UNL     1       3.061   3.066  17.863  0.00  0.00    +0.000 C 
ATOM     19  C   UNL     1       2.951   4.479  18.275  0.00  0.00    +0.000 A 
ATOM     20  C   UNL     1       2.105   5.497  17.949  0.00  0.00    +0.000 A 
ATOM     21  C   UNL     1       2.627   6.637  18.601  0.00  0.00    +0.000 A 
ATOM     22  N   UNL     1       3.714   6.313  19.338  0.00  0.00    +0.000 NA
ATOM     23  O   UNL     1       3.910   4.956  19.124  0.00  0.00    +0.000 OA
ENDBRANCH   1  21
BRANCH  16  24
ATOM     24  C   UNL     1      -1.299  10.221  17.878  0.00  0.00    +0.000 C 
BRANCH  24  25
ATOM     25  C   UNL     1      -2.534   9.817  17.033  0.00  0.00    +0.000 C 
ATOM     26  C   UNL     1      -3.865   9.910  17.774  0.00  0.00    +0.000 C 
ATOM     27  C   UNL     1      -2.604  10.773  15.820  0.00  0.00    +0.000 C 
ENDBRANCH  24  25
ENDBRANCH  16  24
TORSDOF 3
ENDMDL
MODEL 2
REMARK VINA RESULT:      -6.6      1.177      1.204
REMARK  Name = 
REMARK  6 active torsions:
REMARK  status: ('A' for Active; 'I' for Inactive)
REMARK    1  A    between atoms: C_1  and  C_2
REMARK    2  A    between atoms: C_4  and  C_5
REMARK    3  A    between atoms: N_20  and  C_21
REMARK    4  A    between atoms: C_21  and  C_22
REMARK    5  A    between atoms: C_22  and  C_23
REMARK    6  A    between atoms: C_22  and  C_24
REMARK                            x       y       z     vdW  Elec       q    Type
REMARK                         _______ _______ _______ _____ _____    ______ ____
ROOT
ATOM      1  C   UNL     1       1.920   7.751  19.250  0.00  0.00    +0.000 C 
ATOM      2  O   UNL     1       1.822   7.921  18.021  0.00  0.00    +0.000 OA
ATOM      3  N   UNL     1       1.726   8.815  20.141  0.00  0.00    +0.000 N 
ATOM      4  C   UNL     1       1.601  10.105  19.521  0.00  0.00    +0.000 C 
ATOM      5  C   UNL     1       1.122  11.179  20.467  0.00  0.00    +0.000 C 
ATOM      6  C   UNL     1      -0.382  10.868  20.745  0.00  0.00    +0.000 C 
ATOM      7  C   UNL     1      -0.330   9.464  21.489  0.00  0.00    +0.000 C 
ATOM      8  C   UNL     1       1.040   8.684  21.430  0.00  0.00    +0.000 C 
ATOM      9  C   UNL     1      -0.956  12.026  21.652  0.00  0.00    +0.000 A 
ATOM     10  N   UNL     1      -1.008  12.082  23.024  0.00  0.00    +0.000 NA
ATOM     11  C   UNL     1      -1.594  13.243  23.308  0.00  0.00    +0.000 A 
ATOM     12  N   UNL     1      -1.886  13.954  22.189  0.00  0.00    +0.000 N 
ATOM     13  C   UNL     1      -1.488  13.190  21.130  0.00  0.00    +0.000 A 
ATOM     14  C   UNL     1      -1.676  13.509  19.699  0.00  0.00    +0.000 C 
ATOM     15  C   UNL     1      -1.085  12.366  18.859  0.00  0.00    +0.000 C 
ATOM     16  N   UNL     1      -1.277  10.998  19.482  0.00  0.00    +0.000 NA
ATOM     17  H   UNL     1      -2.332  14.868  22.135  0.00  0.00    +0.000 HD
ENDROOT
BRANCH   1  21
ATOM     18  C   UNL     1       1.888   3.049  21.139  0.00  0.00    +0.000 C 
ATOM     19  C   UNL     1       2.189   4.378  20.572  0.00  0.00    +0.000 A 
ATOM     20  C   UNL     1       1.518   5.565  20.535  0.00  0.00    +0.000 A 
ATOM     21  C   UNL     1       2.307   6.410  19.721  0.00  0.00    +0.000 A 
ATOM     22  N   UNL     1       3.437   5.781  19.327  0.00  0.00    +0.000 NA
ATOM     23  O   UNL     1       3.352   4.505  19.865  0.00  0.00    +0.000 OA
ENDBRANCH   1  21
BRANCH  16  24
ATOM     24  C   UNL     1      -1.391  10.050  18.354  0.00  0.00    +0.000 C 
BRANCH  24  25
ATOM     25  C   UNL     1      -2.677   9.700  17.563  0.00  0.00    +0.000 C 
ATOM     26  C   UNL     1      -3.916  10.481  17.995  0.00  0.00    +0.000 C 
ATOM     27  C   UNL     1      -2.414  10.024  16.075  0.00  0.00    +0.000 C 
ENDBRANCH  24  25
ENDBRANCH  16  24
TORSDOF 3
ENDMDL
MODEL 3
REMARK VINA RESULT:      -6.6      4.603      7.376
REMARK  Name = 
REMARK  6 active torsions:
REMARK  status: ('A' for Active; 'I' for Inactive)
REMARK    1  A    between atoms: C_1  and  C_2
REMARK    2  A    between atoms: C_4  and  C_5
REMARK    3  A    between atoms: N_20  and  C_21
REMARK    4  A    between atoms: C_21  and  C_22
REMARK    5  A    between atoms: C_22  and  C_23
REMARK    6  A    between atoms: C_22  and  C_24
REMARK                            x       y       z     vdW  Elec       q    Type
REMARK                         _______ _______ _______ _____ _____    ______ ____
ROOT
ATOM      1  C   UNL     1       6.467   5.477  16.014  0.00  0.00    +0.000 C 
ATOM      2  O   UNL     1       6.698   6.651  16.357  0.00  0.00    +0.000 OA
ATOM      3  N   UNL     1       5.809   4.591  16.878  0.00  0.00    +0.000 N 
ATOM      4  C   UNL     1       5.609   5.086  18.211  0.00  0.00    +0.000 C 
ATOM      5  C   UNL     1       4.668   4.237  19.029  0.00  0.00    +0.000 C 
ATOM      6  C   UNL     1       3.244   4.480  18.437  0.00  0.00    +0.000 C 
ATOM      7  C   UNL     1       3.363   3.903  16.961  0.00  0.00    +0.000 C 
ATOM      8  C   UNL     1       4.821   3.604  16.434  0.00  0.00    +0.000 C 
ATOM      9  C   UNL     1       2.207   3.689  19.327  0.00  0.00    +0.000 A 
ATOM     10  N   UNL     1       1.748   2.405  19.157  0.00  0.00    +0.000 NA
ATOM     11  C   UNL     1       0.882   2.205  20.146  0.00  0.00    +0.000 A 
ATOM     12  N   UNL     1       0.788   3.283  20.968  0.00  0.00    +0.000 N 
ATOM     13  C   UNL     1       1.625   4.233  20.456  0.00  0.00    +0.000 A 
ATOM     14  C   UNL     1       1.799   5.611  20.962  0.00  0.00    +0.000 C 
ATOM     15  C   UNL     1       2.830   6.332  20.078  0.00  0.00    +0.000 C 
ATOM     16  N   UNL     1       2.748   5.942  18.616  0.00  0.00    +0.000 NA
ATOM     17  H   UNL     1       0.201   3.382  21.793  0.00  0.00    +0.000 HD
ENDROOT
BRANCH   1  21
ATOM     18  C   UNL     1       6.913   3.422  11.403  0.00  0.00    +0.000 C 
ATOM     19  C   UNL     1       7.064   4.100  12.706  0.00  0.00    +0.000 A 
ATOM     20  C   UNL     1       6.387   4.041  13.888  0.00  0.00    +0.000 A 
ATOM     21  C   UNL     1       6.965   5.045  14.697  0.00  0.00    +0.000 A 
ATOM     22  N   UNL     1       7.988   5.651  14.053  0.00  0.00    +0.000 NA
ATOM     23  O   UNL     1       8.040   5.052  12.803  0.00  0.00    +0.000 OA
ENDBRANCH   1  21
BRANCH  16  24
ATOM     24  C   UNL     1       3.163   7.137  17.852  0.00  0.00    +0.000 C 
BRANCH  24  25
ATOM     25  C   UNL     1       2.258   8.315  17.411  0.00  0.00    +0.000 C 
ATOM     26  C   UNL     1       0.809   8.209  17.880  0.00  0.00    +0.000 C 
ATOM     27  C   UNL     1       2.851   9.611  18.009  0.00  0.00    +0.000 C 
ENDBRANCH  24  25
ENDBRANCH  16  24
TORSDOF 3
ENDMDL
MODEL 4
REMARK VINA RESULT:      -6.4      0.876      1.072
REMARK  Name = 
REMARK  6 active torsions:
REMARK  status: ('A' for Active; 'I' for Inactive)
REMARK    1  A    between atoms: C_1  and  C_2
REMARK    2  A    between atoms: C_4  and  C_5
REMARK    3  A    between atoms: N_20  and  C_21
REMARK    4  A    between atoms: C_21  and  C_22
REMARK    5  A    between atoms: C_22  and  C_23
REMARK    6  A    between atoms: C_22  and  C_24
REMARK                            x       y       z     vdW  Elec       q    Type
REMARK                         _______ _______ _______ _____ _____    ______ ____
ROOT
ATOM      1  C   UNL     1       2.057   8.526  18.386  0.00  0.00    +0.000 C 
ATOM      2  O   UNL     1       1.915   8.983  17.238  0.00  0.00    +0.000 OA
ATOM      3  N   UNL     1       1.735   9.295  19.513  0.00  0.00    +0.000 N 
ATOM      4  C   UNL     1       1.423  10.669  19.234  0.00  0.00    +0.000 C 
ATOM      5  C   UNL     1       0.818  11.395  20.411  0.00  0.00    +0.000 C 
ATOM      6  C   UNL     1      -0.624  10.821  20.576  0.00  0.00    +0.000 C 
ATOM      7  C   UNL     1      -0.366   9.296  20.944  0.00  0.00    +0.000 C 
ATOM      8  C   UNL     1       1.097   8.751  20.715  0.00  0.00    +0.000 C 
ATOM      9  C   UNL     1      -1.335  11.624  21.735  0.00  0.00    +0.000 A 
ATOM     10  N   UNL     1      -1.370  11.326  23.076  0.00  0.00    +0.000 NA
ATOM     11  C   UNL     1      -2.104  12.286  23.632  0.00  0.00    +0.000 A 
ATOM     12  N   UNL     1      -2.511  13.209  22.722  0.00  0.00    +0.000 N 
ATOM     13  C   UNL     1      -2.031  12.797  21.513  0.00  0.00    +0.000 A 
ATOM     14  C   UNL     1      -2.287  13.436  20.204  0.00  0.00    +0.000 C 
ATOM     15  C   UNL     1      -1.559  12.633  19.114  0.00  0.00    +0.000 C 
ATOM     16  N   UNL     1      -1.551  11.139  19.371  0.00  0.00    +0.000 NA
ATOM     17  H   UNL     1      -3.079  14.036  22.892  0.00  0.00    +0.000 HD
ENDROOT
BRANCH   1  21
ATOM     18  C   UNL     1       5.068   4.461  18.084  0.00  0.00    +0.000 C 
ATOM     19  C   UNL     1       4.007   5.461  18.311  0.00  0.00    +0.000 A 
ATOM     20  C   UNL     1       3.700   6.661  17.741  0.00  0.00    +0.000 A 
ATOM     21  C   UNL     1       2.633   7.175  18.513  0.00  0.00    +0.000 A 
ATOM     22  N   UNL     1       2.271   6.300  19.476  0.00  0.00    +0.000 NA
ATOM     23  O   UNL     1       3.142   5.227  19.343  0.00  0.00    +0.000 OA
ENDBRANCH   1  21
BRANCH  16  24
ATOM     24  C   UNL     1      -1.553  10.498  18.039  0.00  0.00    +0.000 C 
BRANCH  24  25
ATOM     25  C   UNL     1      -2.593  10.712  16.910  0.00  0.00    +0.000 C 
ATOM     26  C   UNL     1      -2.475   9.729  15.747  0.00  0.00    +0.000 C 
ATOM     27  C   UNL     1      -3.999  10.538  17.528  0.00  0.00    +0.000 C 
ENDBRANCH  24  25
ENDBRANCH  16  24
TORSDOF 3
ENDMDL
MODEL 5
REMARK VINA RESULT:      -6.3      9.157     11.322
REMARK  Name = 
REMARK  6 active torsions:
REMARK  status: ('A' for Active; 'I' for Inactive)
REMARK    1  A    between atoms: C_1  and  C_2
REMARK    2  A    between atoms: C_4  and  C_5
REMARK    3  A    between atoms: N_20  and  C_21
REMARK    4  A    between atoms: C_21  and  C_22
REMARK    5  A    between atoms: C_22  and  C_23
REMARK    6  A    between atoms: C_22  and  C_24
REMARK                            x       y       z     vdW  Elec       q    Type
REMARK                         _______ _______ _______ _____ _____    ______ ____
ROOT
ATOM      1  C   UNL     1       8.307  12.352  22.250  0.00  0.00    +0.000 C 
ATOM      2  O   UNL     1       8.831  11.313  21.810  0.00  0.00    +0.000 OA
ATOM      3  N   UNL     1       8.771  13.615  21.858  0.00  0.00    +0.000 N 
ATOM      4  C   UNL     1       9.982  13.598  21.084  0.00  0.00    +0.000 C 
ATOM      5  C   UNL     1      10.303  14.928  20.449  0.00  0.00    +0.000 C 
ATOM      6  C   UNL     1       9.258  15.123  19.306  0.00  0.00    +0.000 C 
ATOM      7  C   UNL     1       7.878  15.208  20.089  0.00  0.00    +0.000 C 
ATOM      8  C   UNL     1       7.895  14.762  21.603  0.00  0.00    +0.000 C 
ATOM      9  C   UNL     1       9.618  16.458  18.543  0.00  0.00    +0.000 A 
ATOM     10  N   UNL     1       9.158  17.729  18.793  0.00  0.00    +0.000 NA
ATOM     11  C   UNL     1       9.734  18.500  17.874  0.00  0.00    +0.000 A 
ATOM     12  N   UNL     1      10.571  17.796  17.069  0.00  0.00    +0.000 N 
ATOM     13  C   UNL     1      10.504  16.497  17.483  0.00  0.00    +0.000 A 
ATOM     14  C   UNL     1      11.179  15.341  16.855  0.00  0.00    +0.000 C 
ATOM     15  C   UNL     1      10.816  14.073  17.643  0.00  0.00    +0.000 C 
ATOM     16  N   UNL     1       9.394  14.075  18.167  0.00  0.00    +0.000 NA
ATOM     17  H   UNL     1      11.128  18.151  16.295  0.00  0.00    +0.000 HD
ENDROOT
BRANCH   1  21
ATOM     18  C   UNL     1       5.669  11.560  26.504  0.00  0.00    +0.000 C 
ATOM     19  C   UNL     1       6.172  11.822  25.141  0.00  0.00    +0.000 A 
ATOM     20  C   UNL     1       7.353  11.580  24.505  0.00  0.00    +0.000 A 
ATOM     21  C   UNL     1       7.228  12.200  23.241  0.00  0.00    +0.000 A 
ATOM     22  N   UNL     1       6.000  12.748  23.094  0.00  0.00    +0.000 NA
ATOM     23  O   UNL     1       5.346  12.506  24.294  0.00  0.00    +0.000 OA
ENDBRANCH   1  21
BRANCH  16  24
ATOM     24  C   UNL     1       8.965  12.661  18.186  0.00  0.00    +0.000 C 
BRANCH  24  25
ATOM     25  C   UNL     1       9.868  11.416  17.994  0.00  0.00    +0.000 C 
ATOM     26  C   UNL     1      11.048  11.337  18.960  0.00  0.00    +0.000 C 
ATOM     27  C   UNL     1       8.993  10.163  18.221  0.00  0.00    +0.000 C 
ENDBRANCH  24  25
ENDBRANCH  16  24
TORSDOF 3
ENDMDL
MODEL 6
REMARK VINA RESULT:      -6.1      9.430     11.799
REMARK  Name = 
REMARK  6 active torsions:
REMARK  status: ('A' for Active; 'I' for Inactive)
REMARK    1  A    between atoms: C_1  and  C_2
REMARK    2  A    between atoms: C_4  and  C_5
REMARK    3  A    between atoms: N_20  and  C_21
REMARK    4  A    between atoms: C_21  and  C_22
REMARK    5  A    between atoms: C_22  and  C_23
REMARK    6  A    between atoms: C_22  and  C_24
REMARK                            x       y       z     vdW  Elec       q    Type
REMARK                         _______ _______ _______ _____ _____    ______ ____
ROOT
ATOM      1  C   UNL     1       8.263  13.233  22.859  0.00  0.00    +0.000 C 
ATOM      2  O   UNL     1       8.765  12.118  22.631  0.00  0.00    +0.000 OA
ATOM      3  N   UNL     1       8.782  14.392  22.266  0.00  0.00    +0.000 N 
ATOM      4  C   UNL     1      10.015  14.203  21.553  0.00  0.00    +0.000 C 
ATOM      5  C   UNL     1      10.401  15.388  20.703  0.00  0.00    +0.000 C 
ATOM      6  C   UNL     1       9.400  15.404  19.506  0.00  0.00    +0.000 C 
ATOM      7  C   UNL     1       7.999  15.666  20.210  0.00  0.00    +0.000 C 
ATOM      8  C   UNL     1       7.954  15.498  21.778  0.00  0.00    +0.000 C 
ATOM      9  C   UNL     1       9.829  16.570  18.531  0.00  0.00    +0.000 A 
ATOM     10  N   UNL     1       9.404  17.877  18.534  0.00  0.00    +0.000 NA
ATOM     11  C   UNL     1      10.034  18.455  17.514  0.00  0.00    +0.000 A 
ATOM     12  N   UNL     1      10.872  17.595  16.879  0.00  0.00    +0.000 N 
ATOM     13  C   UNL     1      10.748  16.394  17.515  0.00  0.00    +0.000 A 
ATOM     14  C   UNL     1      11.403  15.126  17.128  0.00  0.00    +0.000 C 
ATOM     15  C   UNL     1      10.973  14.030  18.116  0.00  0.00    +0.000 C 
ATOM     16  N   UNL     1       9.536  14.165  18.578  0.00  0.00    +0.000 NA
ATOM     17  H   UNL     1      11.465  17.790  16.076  0.00  0.00    +0.000 HD
ENDROOT
BRANCH   1  21
ATOM     18  C   UNL     1       5.307  14.276  26.841  0.00  0.00    +0.000 C 
ATOM     19  C   UNL     1       5.947  13.796  25.601  0.00  0.00    +0.000 A 
ATOM     20  C   UNL     1       7.233  13.762  25.151  0.00  0.00    +0.000 A 
ATOM     21  C   UNL     1       7.148  13.291  23.821  0.00  0.00    +0.000 A 
ATOM     22  N   UNL     1       5.869  12.998  23.495  0.00  0.00    +0.000 NA
ATOM     23  O   UNL     1       5.122  13.320  24.620  0.00  0.00    +0.000 OA
ENDBRANCH   1  21
BRANCH  16  24
ATOM     24  C   UNL     1       9.059  12.789  18.832  0.00  0.00    +0.000 C 
BRANCH  24  25
ATOM     25  C   UNL     1       9.864  11.479  18.639  0.00  0.00    +0.000 C 
ATOM     26  C   UNL     1      10.628  11.020  19.878  0.00  0.00    +0.000 C 
ATOM     27  C   UNL     1       8.861  10.364  18.267  0.00  0.00    +0.000 C 
ENDBRANCH  24  25
ENDBRANCH  16  24
TORSDOF 3
ENDMDL
MODEL 7
REMARK VINA RESULT:      -6.1      3.989      7.984
REMARK  Name = 
REMARK  6 active torsions:
REMARK  status: ('A' for Active; 'I' for Inactive)
REMARK    1  A    between atoms: C_1  and  C_2
REMARK    2  A    between atoms: C_4  and  C_5
REMARK    3  A    between atoms: N_20  and  C_21
REMARK    4  A    between atoms: C_21  and  C_22
REMARK    5  A    between atoms: C_22  and  C_23
REMARK    6  A    between atoms: C_22  and  C_24
REMARK                            x       y       z     vdW  Elec       q    Type
REMARK                         _______ _______ _______ _____ _____    ______ ____
ROOT
ATOM      1  C   UNL     1       0.055  14.581  21.874  0.00  0.00    +0.000 C 
ATOM      2  O   UNL     1       1.142  14.010  22.078  0.00  0.00    +0.000 OA
ATOM      3  N   UNL     1      -0.670  14.351  20.697  0.00  0.00    +0.000 N 
ATOM      4  C   UNL     1       0.023  13.578  19.705  0.00  0.00    +0.000 C 
ATOM      5  C   UNL     1      -0.868  13.116  18.578  0.00  0.00    +0.000 C 
ATOM      6  C   UNL     1      -1.790  12.011  19.184  0.00  0.00    +0.000 C 
ATOM      7  C   UNL     1      -2.640  12.804  20.267  0.00  0.00    +0.000 C 
ATOM      8  C   UNL     1      -2.131  14.248  20.647  0.00  0.00    +0.000 C 
ATOM      9  C   UNL     1      -2.674  11.423  18.015  0.00  0.00    +0.000 A 
ATOM     10  N   UNL     1      -3.918  11.835  17.603  0.00  0.00    +0.000 NA
ATOM     11  C   UNL     1      -4.248  11.020  16.604  0.00  0.00    +0.000 A 
ATOM     12  N   UNL     1      -3.261  10.128  16.327  0.00  0.00    +0.000 N 
ATOM     13  C   UNL     1      -2.257  10.374  17.219  0.00  0.00    +0.000 A 
ATOM     14  C   UNL     1      -1.005   9.601  17.362  0.00  0.00    +0.000 C 
ATOM     15  C   UNL     1      -0.172  10.222  18.494  0.00  0.00    +0.000 C 
ATOM     16  N   UNL     1      -1.011  10.747  19.642  0.00  0.00    +0.000 NA
ATOM     17  H   UNL     1      -3.266   9.404  15.612  0.00  0.00    +0.000 HD
ENDROOT
BRANCH   1  21
ATOM     18  C   UNL     1      -1.456  16.789  26.178  0.00  0.00    +0.000 C 
ATOM     19  C   UNL     1      -1.064  16.411  24.806  0.00  0.00    +0.000 A 
ATOM     20  C   UNL     1      -0.951  15.223  24.147  0.00  0.00    +0.000 A 
ATOM     21  C   UNL     1      -0.402  15.549  22.886  0.00  0.00    +0.000 A 
ATOM     22  N   UNL     1      -0.241  16.886  22.763  0.00  0.00    +0.000 NA
ATOM     23  O   UNL     1      -0.658  17.418  23.975  0.00  0.00    +0.000 OA
ENDBRANCH   1  21
BRANCH  16  24
ATOM     24  C   UNL     1      -0.184  10.587  20.857  0.00  0.00    +0.000 C 
BRANCH  24  25
ATOM     25  C   UNL     1      -0.655  10.053  22.234  0.00  0.00    +0.000 C 
ATOM     26  C   UNL     1       0.433   9.356  23.047  0.00  0.00    +0.000 C 
ATOM     27  C   UNL     1      -1.154  11.261  23.058  0.00  0.00    +0.000 C 
ENDBRANCH  24  25
ENDBRANCH  16  24
TORSDOF 3
ENDMDL
MODEL 8
REMARK VINA RESULT:      -6.0      2.965      4.749
REMARK  Name = 
REMARK  6 active torsions:
REMARK  status: ('A' for Active; 'I' for Inactive)
REMARK    1  A    between atoms: C_1  and  C_2
REMARK    2  A    between atoms: C_4  and  C_5
REMARK    3  A    between atoms: N_20  and  C_21
REMARK    4  A    between atoms: C_21  and  C_22
REMARK    5  A    between atoms: C_22  and  C_23
REMARK    6  A    between atoms: C_22  and  C_24
REMARK                            x       y       z     vdW  Elec       q    Type
REMARK                         _______ _______ _______ _____ _____    ______ ____
ROOT
ATOM      1  C   UNL     1       0.049  10.596  18.943  0.00  0.00    +0.000 C 
ATOM      2  O   UNL     1      -1.171  10.373  19.043  0.00  0.00    +0.000 OA
ATOM      3  N   UNL     1       0.533  11.905  18.809  0.00  0.00    +0.000 N 
ATOM      4  C   UNL     1      -0.480  12.904  18.610  0.00  0.00    +0.000 C 
ATOM      5  C   UNL     1       0.038  14.314  18.745  0.00  0.00    +0.000 C 
ATOM      6  C   UNL     1       0.327  14.524  20.264  0.00  0.00    +0.000 C 
ATOM      7  C   UNL     1       1.489  13.481  20.559  0.00  0.00    +0.000 C 
ATOM      8  C   UNL     1       1.758  12.390  19.450  0.00  0.00    +0.000 C 
ATOM      9  C   UNL     1       0.776  16.024  20.470  0.00  0.00    +0.000 A 
ATOM     10  N   UNL     1       2.050  16.538  20.449  0.00  0.00    +0.000 NA
ATOM     11  C   UNL     1       1.910  17.839  20.690  0.00  0.00    +0.000 A 
ATOM     12  N   UNL     1       0.606  18.195  20.828  0.00  0.00    +0.000 N 
ATOM     13  C   UNL     1      -0.124  17.049  20.692  0.00  0.00    +0.000 A 
ATOM     14  C   UNL     1      -1.588  16.919  20.848  0.00  0.00    +0.000 C 
ATOM     15  C   UNL     1      -1.978  15.450  20.619  0.00  0.00    +0.000 C 
ATOM     16  N   UNL     1      -0.953  14.465  21.144  0.00  0.00    +0.000 NA
ATOM     17  H   UNL     1       0.235  19.124  21.015  0.00  0.00    +0.000 HD
ENDROOT
BRANCH   1  21
ATOM     18  C   UNL     1       3.591   7.207  17.659  0.00  0.00    +0.000 C 
ATOM     19  C   UNL     1       2.505   8.009  18.255  0.00  0.00    +0.000 A 
ATOM     20  C   UNL     1       1.689   8.995  17.786  0.00  0.00    +0.000 A 
ATOM     21  C   UNL     1       0.951   9.432  18.910  0.00  0.00    +0.000 A 
ATOM     22  N   UNL     1       1.266   8.703  20.004  0.00  0.00    +0.000 NA
ATOM     23  O   UNL     1       2.244   7.814  19.583  0.00  0.00    +0.000 OA
ENDBRANCH   1  21
BRANCH  16  24
ATOM     24  C   UNL     1      -1.714  13.266  21.553  0.00  0.00    +0.000 C 
BRANCH  24  25
ATOM     25  C   UNL     1      -1.579  12.495  22.891  0.00  0.00    +0.000 C 
ATOM     26  C   UNL     1      -2.908  12.098  23.528  0.00  0.00    +0.000 C 
ATOM     27  C   UNL     1      -0.789  11.198  22.607  0.00  0.00    +0.000 C 
ENDBRANCH  24  25
ENDBRANCH  16  24
TORSDOF 3
ENDMDL
MODEL 9
REMARK VINA RESULT:      -6.0      3.087      4.858
REMARK  Name = 
REMARK  6 active torsions:
REMARK  status: ('A' for Active; 'I' for Inactive)
REMARK    1  A    between atoms: C_1  and  C_2
REMARK    2  A    between atoms: C_4  and  C_5
REMARK    3  A    between atoms: N_20  and  C_21
REMARK    4  A    between atoms: C_21  and  C_22
REMARK    5  A    between atoms: C_22  and  C_23
REMARK    6  A    between atoms: C_22  and  C_24
REMARK                            x       y       z     vdW  Elec       q    Type
REMARK                         _______ _______ _______ _____ _____    ______ ____
ROOT
ATOM      1  C   UNL     1       0.407   9.991  19.408  0.00  0.00    +0.000 C 
ATOM      2  O   UNL     1      -0.566   9.822  20.166  0.00  0.00    +0.000 OA
ATOM      3  N   UNL     1       0.592  11.205  18.732  0.00  0.00    +0.000 N 
ATOM      4  C   UNL     1      -0.503  12.128  18.842  0.00  0.00    +0.000 C 
ATOM      5  C   UNL     1      -0.169  13.513  18.346  0.00  0.00    +0.000 C 
ATOM      6  C   UNL     1       0.803  14.125  19.403  0.00  0.00    +0.000 C 
ATOM      7  C   UNL     1       2.080  13.184  19.307  0.00  0.00    +0.000 C 
ATOM      8  C   UNL     1       1.901  11.827  18.520  0.00  0.00    +0.000 C 
ATOM      9  C   UNL     1       1.102  15.616  18.979  0.00  0.00    +0.000 A 
ATOM     10  N   UNL     1       2.123  16.085  18.188  0.00  0.00    +0.000 NA
ATOM     11  C   UNL     1       1.958  17.405  18.142  0.00  0.00    +0.000 A 
ATOM     12  N   UNL     1       0.859  17.805  18.834  0.00  0.00    +0.000 N 
ATOM     13  C   UNL     1       0.309  16.677  19.372  0.00  0.00    +0.000 A 
ATOM     14  C   UNL     1      -0.858  16.618  20.278  0.00  0.00    +0.000 C 
ATOM     15  C   UNL     1      -1.121  15.150  20.644  0.00  0.00    +0.000 C 
ATOM     16  N   UNL     1       0.144  14.329  20.795  0.00  0.00    +0.000 NA
ATOM     17  H   UNL     1       0.515  18.755  18.951  0.00  0.00    +0.000 HD
ENDROOT
BRANCH   1  21
ATOM     18  C   UNL     1       3.850   6.768  17.552  0.00  0.00    +0.000 C 
ATOM     19  C   UNL     1       2.814   7.504  18.304  0.00  0.00    +0.000 A 
ATOM     20  C   UNL     1       1.951   8.510  17.987  0.00  0.00    +0.000 A 
ATOM     21  C   UNL     1       1.313   8.847  19.203  0.00  0.00    +0.000 A 
ATOM     22  N   UNL     1       1.731   8.041  20.205  0.00  0.00    +0.000 NA
ATOM     23  O   UNL     1       2.676   7.203  19.630  0.00  0.00    +0.000 OA
ENDBRANCH   1  21
BRANCH  16  24
ATOM     24  C   UNL     1      -0.157  13.300  21.812  0.00  0.00    +0.000 C 
BRANCH  24  25
ATOM     25  C   UNL     1      -1.495  13.111  22.571  0.00  0.00    +0.000 C 
ATOM     26  C   UNL     1      -1.780  11.674  23.001  0.00  0.00    +0.000 C 
ATOM     27  C   UNL     1      -1.436  13.979  23.848  0.00  0.00    +0.000 C 
ENDBRANCH  24  25
ENDBRANCH  16  24
TORSDOF 3
ENDMDL
