MODEL 1
REMARK VINA RESULT:      -8.0      0.000      0.000
REMARK  Name = 
REMARK  7 active torsions:
REMARK  status: ('A' for Active; 'I' for Inactive)
REMARK    1  A    between atoms: C_2  and  O_3
REMARK    2  A    between atoms: C_2  and  C_4
REMARK    3  A    between atoms: C_6  and  C_7
REMARK    4  A    between atoms: C_7  and  C_9
REMARK    5  A    between atoms: C_10  and  C_11
REMARK    6  A    between atoms: C_20  and  C_21
REMARK    7  A    between atoms: C_30  and  O_31
REMARK                            x       y       z     vdW  Elec       q    Type
REMARK                         _______ _______ _______ _____ _____    ______ ____
ROOT
ATOM      1  C   UNL     1      -0.524   9.851  20.951  0.00  0.00    +0.000 C 
ATOM      2  C   UNL     1       0.778   9.186  21.228  0.00  0.00    +0.000 C 
ATOM      3  N   UNL     1       1.309   9.489  22.370  0.00  0.00    +0.000 NA
ATOM      4  O   UNL     1       0.467  10.423  23.012  0.00  0.00    +0.000 OA
ATOM      5  C   UNL     1      -0.784  10.518  22.301  0.00  0.00    +0.000 C 
ENDROOT
BRANCH   2   6
ATOM      6  C   UNL     1       1.447   8.276  20.256  0.00  0.00    +0.000 A 
ATOM      7  C   UNL     1       1.834   8.703  18.980  0.00  0.00    +0.000 A 
ATOM      8  C   UNL     1       2.513   7.836  18.119  0.00  0.00    +0.000 A 
ATOM      9  C   UNL     1       2.786   6.529  18.520  0.00  0.00    +0.000 A 
ATOM     10 CL   UNL     1       3.607   5.464  17.450  0.00  0.00    +0.000 Cl
ATOM     11  C   UNL     1       2.396   6.087  19.779  0.00  0.00    +0.000 A 
ATOM     12  C   UNL     1       1.731   6.958  20.648  0.00  0.00    +0.000 A 
ENDBRANCH   2   6
BRANCH   5  13
ATOM     13  C   UNL     1      -1.305  11.948  22.290  0.00  0.00    +0.000 A 
ATOM     14  C   UNL     1      -2.683  12.232  22.298  0.00  0.00    +0.000 A 
ATOM     15  C   UNL     1      -3.145  13.541  22.452  0.00  0.00    +0.000 A 
ATOM     16  C   UNL     1      -2.233  14.585  22.573  0.00  0.00    +0.000 A 
ATOM     17 BR   UNL     1      -2.858  16.338  22.897  0.00  0.00    +0.000 Br
ATOM     18  C   UNL     1      -0.866  14.338  22.484  0.00  0.00    +0.000 A 
ATOM     19  C   UNL     1      -0.404  13.027  22.328  0.00  0.00    +0.000 A 
ENDBRANCH   5  13
BRANCH   1  20
ATOM     20  C   UNL     1      -0.582  10.718  19.708  0.00  0.00    +0.000 C 
ATOM     21  O   UNL     1       0.297  11.567  19.532  0.00  0.00    +0.000 OA
BRANCH  20  24
ATOM     22  C   UNL     1      -3.809  11.264  17.848  0.00  0.00    +0.000 A 
ATOM     23  C   UNL     1      -2.855  11.185  18.869  0.00  0.00    +0.000 A 
ATOM     24  C   UNL     1      -1.621  10.555  18.648  0.00  0.00    +0.000 A 
ATOM     25  C   UNL     1      -1.401   9.894  17.438  0.00  0.00    +0.000 A 
ATOM     26  C   UNL     1      -2.347   9.969  16.412  0.00  0.00    +0.000 A 
ATOM     27  C   UNL     1      -3.523  10.692  16.604  0.00  0.00    +0.000 A 
BRANCH  22  29
ATOM     28  O   UNL     1      -6.164  11.569  17.784  0.00  0.00    +0.000 OA
ATOM     29  C   UNL     1      -5.076  11.977  18.157  0.00  0.00    +0.000 C 
BRANCH  29  30
ATOM     30  O   UNL     1      -4.927  13.072  18.929  0.00  0.00    +0.000 OA
ATOM     31  H   UNL     1      -4.323  13.733  18.525  0.00  0.00    +0.000 HD
ENDBRANCH  29  30
ENDBRANCH  22  29
BRANCH  27  32
ATOM     32  O   UNL     1      -4.381  10.871  15.552  0.00  0.00    +0.000 OA
ATOM     33  H   UNL     1      -5.133  11.417  15.846  0.00  0.00    +0.000 HD
ENDBRANCH  27  32
ENDBRANCH  20  24
ENDBRANCH   1  20
TORSDOF 7
ENDMDL
MODEL 2
REMARK VINA RESULT:      -7.9      1.254      2.091
REMARK  Name = 
REMARK  7 active torsions:
REMARK  status: ('A' for Active; 'I' for Inactive)
REMARK    1  A    between atoms: C_2  and  O_3
REMARK    2  A    between atoms: C_2  and  C_4
REMARK    3  A    between atoms: C_6  and  C_7
REMARK    4  A    between atoms: C_7  and  C_9
REMARK    5  A    between atoms: C_10  and  C_11
REMARK    6  A    between atoms: C_20  and  C_21
REMARK    7  A    between atoms: C_30  and  O_31
REMARK                            x       y       z     vdW  Elec       q    Type
REMARK                         _______ _______ _______ _____ _____    ______ ____
ROOT
ATOM      1  C   UNL     1      -1.031  10.488  21.384  0.00  0.00    +0.000 C 
ATOM      2  C   UNL     1       0.307   9.848  21.510  0.00  0.00    +0.000 C 
ATOM      3  N   UNL     1       0.821   9.894  22.699  0.00  0.00    +0.000 NA
ATOM      4  O   UNL     1      -0.073  10.597  23.536  0.00  0.00    +0.000 OA
ATOM      5  C   UNL     1      -1.328  10.793  22.852  0.00  0.00    +0.000 C 
ENDROOT
BRANCH   2   6
ATOM      6  C   UNL     1       1.026   9.237  20.356  0.00  0.00    +0.000 A 
ATOM      7  C   UNL     1       1.157   9.896  19.128  0.00  0.00    +0.000 A 
ATOM      8  C   UNL     1       1.890   9.315  18.089  0.00  0.00    +0.000 A 
ATOM      9  C   UNL     1       2.476   8.063  18.264  0.00  0.00    +0.000 A 
ATOM     10 CL   UNL     1       3.363   7.349  16.977  0.00  0.00    +0.000 Cl
ATOM     11  C   UNL     1       2.344   7.392  19.475  0.00  0.00    +0.000 A 
ATOM     12  C   UNL     1       1.623   7.977  20.521  0.00  0.00    +0.000 A 
ENDBRANCH   2   6
BRANCH   5  13
ATOM     13  C   UNL     1      -1.928  12.152  23.179  0.00  0.00    +0.000 A 
ATOM     14  C   UNL     1      -3.307  12.315  23.405  0.00  0.00    +0.000 A 
ATOM     15  C   UNL     1      -3.821  13.531  23.864  0.00  0.00    +0.000 A 
ATOM     16  C   UNL     1      -2.964  14.606  24.074  0.00  0.00    +0.000 A 
ATOM     17 BR   UNL     1      -3.642  16.211  24.803  0.00  0.00    +0.000 Br
ATOM     18  C   UNL     1      -1.608  14.493  23.777  0.00  0.00    +0.000 A 
ATOM     19  C   UNL     1      -1.094  13.277  23.318  0.00  0.00    +0.000 A 
ENDBRANCH   5  13
BRANCH   1  20
ATOM     20  C   UNL     1      -1.137  11.625  20.387  0.00  0.00    +0.000 C 
ATOM     21  O   UNL     1      -0.204  12.428  20.296  0.00  0.00    +0.000 OA
BRANCH  20  24
ATOM     22  C   UNL     1      -3.240  11.193  17.294  0.00  0.00    +0.000 A 
ATOM     23  C   UNL     1      -2.144  11.275  18.162  0.00  0.00    +0.000 A 
ATOM     24  C   UNL     1      -2.295  11.788  19.458  0.00  0.00    +0.000 A 
ATOM     25  C   UNL     1      -3.523  12.336  19.835  0.00  0.00    +0.000 A 
ATOM     26  C   UNL     1      -4.622  12.259  18.977  0.00  0.00    +0.000 A 
ATOM     27  C   UNL     1      -4.489  11.645  17.732  0.00  0.00    +0.000 A 
BRANCH  22  29
ATOM     28  O   UNL     1      -2.554   9.482  15.796  0.00  0.00    +0.000 OA
ATOM     29  C   UNL     1      -2.999  10.607  15.950  0.00  0.00    +0.000 C 
BRANCH  29  30
ATOM     30  O   UNL     1      -3.367  11.398  14.922  0.00  0.00    +0.000 OA
ATOM     31  H   UNL     1      -4.039  12.064  15.187  0.00  0.00    +0.000 HD
ENDBRANCH  29  30
ENDBRANCH  22  29
BRANCH  27  32
ATOM     32  O   UNL     1      -5.600  11.456  16.954  0.00  0.00    +0.000 OA
ATOM     33  H   UNL     1      -6.358  11.908  17.370  0.00  0.00    +0.000 HD
ENDBRANCH  27  32
ENDBRANCH  20  24
ENDBRANCH   1  20
TORSDOF 7
ENDMDL
MODEL 3
REMARK VINA RESULT:      -7.7      0.404      1.411
REMARK  Name = 
REMARK  7 active torsions:
REMARK  status: ('A' for Active; 'I' for Inactive)
REMARK    1  A    between atoms: C_2  and  O_3
REMARK    2  A    between atoms: C_2  and  C_4
REMARK    3  A    between atoms: C_6  and  C_7
REMARK    4  A    between atoms: C_7  and  C_9
REMARK    5  A    between atoms: C_10  and  C_11
REMARK    6  A    between atoms: C_20  and  C_21
REMARK    7  A    between atoms: C_30  and  O_31
REMARK                            x       y       z     vdW  Elec       q    Type
REMARK                         _______ _______ _______ _____ _____    ______ ____
ROOT
ATOM      1  C   UNL     1      -0.480   9.809  20.951  0.00  0.00    +0.000 C 
ATOM      2  C   UNL     1       0.807   9.139  21.285  0.00  0.00    +0.000 C 
ATOM      3  N   UNL     1       1.318   9.485  22.424  0.00  0.00    +0.000 NA
ATOM      4  O   UNL     1       0.476  10.458  23.006  0.00  0.00    +0.000 OA
ATOM      5  C   UNL     1      -0.758  10.538  22.264  0.00  0.00    +0.000 C 
ENDROOT
BRANCH   2   6
ATOM      6  C   UNL     1       1.483   8.178  20.369  0.00  0.00    +0.000 A 
ATOM      7  C   UNL     1       1.702   6.841  20.722  0.00  0.00    +0.000 A 
ATOM      8  C   UNL     1       2.286   5.955  19.812  0.00  0.00    +0.000 A 
ATOM      9  C   UNL     1       2.676   6.407  18.552  0.00  0.00    +0.000 A 
ATOM     10 CL   UNL     1       3.407   5.316  17.444  0.00  0.00    +0.000 Cl
ATOM     11  C   UNL     1       2.476   7.735  18.192  0.00  0.00    +0.000 A 
ATOM     12  C   UNL     1       1.878   8.620  19.096  0.00  0.00    +0.000 A 
ENDBRANCH   2   6
BRANCH   5  13
ATOM     13  C   UNL     1      -1.258  11.973  22.179  0.00  0.00    +0.000 A 
ATOM     14  C   UNL     1      -0.369  13.062  22.138  0.00  0.00    +0.000 A 
ATOM     15  C   UNL     1      -0.833  14.358  21.896  0.00  0.00    +0.000 A 
ATOM     16  C   UNL     1      -2.194  14.582  21.717  0.00  0.00    +0.000 A 
ATOM     17 BR   UNL     1      -2.806  16.313  21.275  0.00  0.00    +0.000 Br
ATOM     18  C   UNL     1      -3.101  13.531  21.836  0.00  0.00    +0.000 A 
ATOM     19  C   UNL     1      -2.637  12.235  22.080  0.00  0.00    +0.000 A 
ENDBRANCH   5  13
BRANCH   1  20
ATOM     20  C   UNL     1      -0.498  10.620  19.670  0.00  0.00    +0.000 C 
ATOM     21  O   UNL     1       0.412  11.428  19.463  0.00  0.00    +0.000 OA
BRANCH  20  24
ATOM     22  C   UNL     1      -3.754  11.092  17.840  0.00  0.00    +0.000 A 
ATOM     23  C   UNL     1      -2.792  11.021  18.855  0.00  0.00    +0.000 A 
ATOM     24  C   UNL     1      -1.536  10.447  18.611  0.00  0.00    +0.000 A 
ATOM     25  C   UNL     1      -1.297   9.830  17.381  0.00  0.00    +0.000 A 
ATOM     26  C   UNL     1      -2.250   9.896  16.362  0.00  0.00    +0.000 A 
ATOM     27  C   UNL     1      -3.453  10.567  16.579  0.00  0.00    +0.000 A 
BRANCH  22  29
ATOM     28  O   UNL     1      -5.121  12.700  18.931  0.00  0.00    +0.000 OA
ATOM     29  C   UNL     1      -5.047  11.745  18.175  0.00  0.00    +0.000 C 
BRANCH  29  30
ATOM     30  O   UNL     1      -6.115  11.234  17.531  0.00  0.00    +0.000 OA
ATOM     31  H   UNL     1      -5.939  11.090  16.575  0.00  0.00    +0.000 HD
ENDBRANCH  29  30
ENDBRANCH  22  29
BRANCH  27  32
ATOM     32  O   UNL     1      -4.323  10.741  15.537  0.00  0.00    +0.000 OA
ATOM     33  H   UNL     1      -3.814  10.801  14.706  0.00  0.00    +0.000 HD
ENDBRANCH  27  32
ENDBRANCH  20  24
ENDBRANCH   1  20
TORSDOF 7
ENDMDL
MODEL 4
REMARK VINA RESULT:      -7.4      0.907      1.314
REMARK  Name = 
REMARK  7 active torsions:
REMARK  status: ('A' for Active; 'I' for Inactive)
REMARK    1  A    between atoms: C_2  and  O_3
REMARK    2  A    between atoms: C_2  and  C_4
REMARK    3  A    between atoms: C_6  and  C_7
REMARK    4  A    between atoms: C_7  and  C_9
REMARK    5  A    between atoms: C_10  and  C_11
REMARK    6  A    between atoms: C_20  and  C_21
REMARK    7  A    between atoms: C_30  and  O_31
REMARK                            x       y       z     vdW  Elec       q    Type
REMARK                         _______ _______ _______ _____ _____    ______ ____
ROOT
ATOM      1  C   UNL     1      -0.878  10.460  20.707  0.00  0.00    +0.000 C 
ATOM      2  C   UNL     1       0.461   9.929  21.083  0.00  0.00    +0.000 C 
ATOM      3  N   UNL     1       0.934  10.390  22.197  0.00  0.00    +0.000 NA
ATOM      4  O   UNL     1       0.006  11.320  22.716  0.00  0.00    +0.000 OA
ATOM      5  C   UNL     1      -1.227  11.244  21.971  0.00  0.00    +0.000 C 
ENDROOT
BRANCH   2   6
ATOM      6  C   UNL     1       1.223   8.974  20.230  0.00  0.00    +0.000 A 
ATOM      7  C   UNL     1       1.603   7.706  20.687  0.00  0.00    +0.000 A 
ATOM      8  C   UNL     1       2.265   6.816  19.836  0.00  0.00    +0.000 A 
ATOM      9  C   UNL     1       2.573   7.199  18.532  0.00  0.00    +0.000 A 
ATOM     10 CL   UNL     1       3.401   6.105  17.496  0.00  0.00    +0.000 Cl
ATOM     11  C   UNL     1       2.214   8.459  18.068  0.00  0.00    +0.000 A 
ATOM     12  C   UNL     1       1.537   9.345  18.913  0.00  0.00    +0.000 A 
ENDBRANCH   2   6
BRANCH   5  13
ATOM     13  C   UNL     1      -1.850  12.621  21.794  0.00  0.00    +0.000 A 
ATOM     14  C   UNL     1      -3.226  12.782  21.554  0.00  0.00    +0.000 A 
ATOM     15  C   UNL     1      -3.811  14.051  21.556  0.00  0.00    +0.000 A 
ATOM     16  C   UNL     1      -3.021  15.175  21.772  0.00  0.00    +0.000 A 
ATOM     17 BR   UNL     1      -3.830  16.878  21.891  0.00  0.00    +0.000 Br
ATOM     18  C   UNL     1      -1.643  15.046  21.929  0.00  0.00    +0.000 A 
ATOM     19  C   UNL     1      -1.058  13.776  21.926  0.00  0.00    +0.000 A 
ENDBRANCH   5  13
BRANCH   1  20
ATOM     20  C   UNL     1      -0.961  11.183  19.376  0.00  0.00    +0.000 C 
ATOM     21  O   UNL     1      -0.180  12.113  19.154  0.00  0.00    +0.000 OA
BRANCH  20  24
ATOM     22  C   UNL     1      -4.092  11.162  17.287  0.00  0.00    +0.000 A 
ATOM     23  C   UNL     1      -3.206  11.307  18.361  0.00  0.00    +0.000 A 
ATOM     24  C   UNL     1      -1.906  10.786  18.291  0.00  0.00    +0.000 A 
ATOM     25  C   UNL     1      -1.542  10.009  17.189  0.00  0.00    +0.000 A 
ATOM     26  C   UNL     1      -2.418   9.860  16.111  0.00  0.00    +0.000 A 
ATOM     27  C   UNL     1      -3.668  10.476  16.143  0.00  0.00    +0.000 A 
BRANCH  22  29
ATOM     28  O   UNL     1      -5.778  12.767  16.811  0.00  0.00    +0.000 OA
ATOM     29  C   UNL     1      -5.439  11.773  17.431  0.00  0.00    +0.000 C 
BRANCH  29  30
ATOM     30  O   UNL     1      -6.269  11.104  18.257  0.00  0.00    +0.000 OA
ATOM     31  H   UNL     1      -6.401  11.572  19.111  0.00  0.00    +0.000 HD
ENDBRANCH  29  30
ENDBRANCH  22  29
BRANCH  27  32
ATOM     32  O   UNL     1      -4.466  10.436  15.032  0.00  0.00    +0.000 OA
ATOM     33  H   UNL     1      -4.891  11.306  14.915  0.00  0.00    +0.000 HD
ENDBRANCH  27  32
ENDBRANCH  20  24
ENDBRANCH   1  20
TORSDOF 7
ENDMDL
MODEL 5
REMARK VINA RESULT:      -7.4      1.218      2.246
REMARK  Name = 
REMARK  7 active torsions:
REMARK  status: ('A' for Active; 'I' for Inactive)
REMARK    1  A    between atoms: C_2  and  O_3
REMARK    2  A    between atoms: C_2  and  C_4
REMARK    3  A    between atoms: C_6  and  C_7
REMARK    4  A    between atoms: C_7  and  C_9
REMARK    5  A    between atoms: C_10  and  C_11
REMARK    6  A    between atoms: C_20  and  C_21
REMARK    7  A    between atoms: C_30  and  O_31
REMARK                            x       y       z     vdW  Elec       q    Type
REMARK                         _______ _______ _______ _____ _____    ______ ____
ROOT
ATOM      1  C   UNL     1      -0.917  10.430  21.350  0.00  0.00    +0.000 C 
ATOM      2  C   UNL     1       0.415   9.786  21.519  0.00  0.00    +0.000 C 
ATOM      3  N   UNL     1       0.889   9.831  22.724  0.00  0.00    +0.000 NA
ATOM      4  O   UNL     1      -0.029  10.537  23.531  0.00  0.00    +0.000 OA
ATOM      5  C   UNL     1      -1.260  10.737  22.807  0.00  0.00    +0.000 C 
ENDROOT
BRANCH   2   6
ATOM      6  C   UNL     1       1.169   9.173  20.390  0.00  0.00    +0.000 A 
ATOM      7  C   UNL     1       1.758   7.907  20.487  0.00  0.00    +0.000 A 
ATOM      8  C   UNL     1       2.406   7.341  19.386  0.00  0.00    +0.000 A 
ATOM      9  C   UNL     1       2.489   8.048  18.188  0.00  0.00    +0.000 A 
ATOM     10 CL   UNL     1       3.300   7.352  16.842  0.00  0.00    +0.000 Cl
ATOM     11  C   UNL     1       1.920   9.312  18.080  0.00  0.00    +0.000 A 
ATOM     12  C   UNL     1       1.257   9.874  19.176  0.00  0.00    +0.000 A 
ENDBRANCH   2   6
BRANCH   5  13
ATOM     13  C   UNL     1      -1.867  12.098  23.114  0.00  0.00    +0.000 A 
ATOM     14  C   UNL     1      -3.237  12.248  23.397  0.00  0.00    +0.000 A 
ATOM     15  C   UNL     1      -3.748  13.472  23.836  0.00  0.00    +0.000 A 
ATOM     16  C   UNL     1      -2.900  14.566  23.971  0.00  0.00    +0.000 A 
ATOM     17 BR   UNL     1      -3.570  16.186  24.675  0.00  0.00    +0.000 Br
ATOM     18  C   UNL     1      -1.557  14.463  23.618  0.00  0.00    +0.000 A 
ATOM     19  C   UNL     1      -1.045  13.238  23.178  0.00  0.00    +0.000 A 
ENDBRANCH   5  13
BRANCH   1  20
ATOM     20  C   UNL     1      -0.987  11.567  20.349  0.00  0.00    +0.000 C 
ATOM     21  O   UNL     1      -0.025  12.334  20.250  0.00  0.00    +0.000 OA
BRANCH  20  24
ATOM     22  C   UNL     1      -3.131  11.200  17.277  0.00  0.00    +0.000 A 
ATOM     23  C   UNL     1      -2.026  11.242  18.135  0.00  0.00    +0.000 A 
ATOM     24  C   UNL     1      -2.145  11.771  19.429  0.00  0.00    +0.000 A 
ATOM     25  C   UNL     1      -3.346  12.373  19.811  0.00  0.00    +0.000 A 
ATOM     26  C   UNL     1      -4.454  12.335  18.962  0.00  0.00    +0.000 A 
ATOM     27  C   UNL     1      -4.357  11.707  17.721  0.00  0.00    +0.000 A 
BRANCH  22  29
ATOM     28  O   UNL     1      -3.267  11.152  14.906  0.00  0.00    +0.000 OA
ATOM     29  C   UNL     1      -2.926  10.594  15.935  0.00  0.00    +0.000 C 
BRANCH  29  30
ATOM     30  O   UNL     1      -2.282   9.409  15.950  0.00  0.00    +0.000 OA
ATOM     31  H   UNL     1      -1.370   9.478  15.592  0.00  0.00    +0.000 HD
ENDBRANCH  29  30
ENDBRANCH  22  29
BRANCH  27  32
ATOM     32  O   UNL     1      -5.481  11.558  16.953  0.00  0.00    +0.000 OA
ATOM     33  H   UNL     1      -6.248  11.419  17.540  0.00  0.00    +0.000 HD
ENDBRANCH  27  32
ENDBRANCH  20  24
ENDBRANCH   1  20
TORSDOF 7
ENDMDL
MODEL 6
REMARK VINA RESULT:      -7.4      0.908      2.061
REMARK  Name = 
REMARK  7 active torsions:
REMARK  status: ('A' for Active; 'I' for Inactive)
REMARK    1  A    between atoms: C_2  and  O_3
REMARK    2  A    between atoms: C_2  and  C_4
REMARK    3  A    between atoms: C_6  and  C_7
REMARK    4  A    between atoms: C_7  and  C_9
REMARK    5  A    between atoms: C_10  and  C_11
REMARK    6  A    between atoms: C_20  and  C_21
REMARK    7  A    between atoms: C_30  and  O_31
REMARK                            x       y       z     vdW  Elec       q    Type
REMARK                         _______ _______ _______ _____ _____    ______ ____
ROOT
ATOM      1  C   UNL     1      -0.789  10.178  21.291  0.00  0.00    +0.000 C 
ATOM      2  C   UNL     1       0.523   9.498  21.467  0.00  0.00    +0.000 C 
ATOM      3  N   UNL     1       1.032   9.600  22.654  0.00  0.00    +0.000 NA
ATOM      4  O   UNL     1       0.161  10.388  23.438  0.00  0.00    +0.000 OA
ATOM      5  C   UNL     1      -1.082  10.587  22.734  0.00  0.00    +0.000 C 
ENDROOT
BRANCH   2   6
ATOM      6  C   UNL     1       1.224   8.789  20.359  0.00  0.00    +0.000 A 
ATOM      7  C   UNL     1       1.408   9.372  19.100  0.00  0.00    +0.000 A 
ATOM      8  C   UNL     1       2.123   8.699  18.106  0.00  0.00    +0.000 A 
ATOM      9  C   UNL     1       2.637   7.427  18.358  0.00  0.00    +0.000 A 
ATOM     10 CL   UNL     1       3.503   6.599  17.125  0.00  0.00    +0.000 Cl
ATOM     11  C   UNL     1       2.451   6.830  19.599  0.00  0.00    +0.000 A 
ATOM     12  C   UNL     1       1.749   7.509  20.601  0.00  0.00    +0.000 A 
ENDBRANCH   2   6
BRANCH   5  13
ATOM     13  C   UNL     1      -1.632  11.986  22.970  0.00  0.00    +0.000 A 
ATOM     14  C   UNL     1      -0.824  13.129  22.832  0.00  0.00    +0.000 A 
ATOM     15  C   UNL     1      -1.378  14.411  22.890  0.00  0.00    +0.000 A 
ATOM     16  C   UNL     1      -2.742  14.563  23.114  0.00  0.00    +0.000 A 
ATOM     17 BR   UNL     1      -3.508  16.289  23.077  0.00  0.00    +0.000 Br
ATOM     18  C   UNL     1      -3.547  13.449  23.336  0.00  0.00    +0.000 A 
ATOM     19  C   UNL     1      -2.992  12.167  23.279  0.00  0.00    +0.000 A 
ENDBRANCH   5  13
BRANCH   1  20
ATOM     20  C   UNL     1      -0.847  11.253  20.222  0.00  0.00    +0.000 C 
ATOM     21  O   UNL     1       0.160  11.934  20.006  0.00  0.00    +0.000 OA
BRANCH  20  24
ATOM     22  C   UNL     1      -3.227  10.870  17.331  0.00  0.00    +0.000 A 
ATOM     23  C   UNL     1      -2.063  10.879  18.108  0.00  0.00    +0.000 A 
ATOM     24  C   UNL     1      -2.050  11.490  19.370  0.00  0.00    +0.000 A 
ATOM     25  C   UNL     1      -3.174  12.203  19.793  0.00  0.00    +0.000 A 
ATOM     26  C   UNL     1      -4.341  12.199  19.024  0.00  0.00    +0.000 A 
ATOM     27  C   UNL     1      -4.378  11.494  17.822  0.00  0.00    +0.000 A 
BRANCH  22  29
ATOM     28  O   UNL     1      -2.327   9.318  15.773  0.00  0.00    +0.000 OA
ATOM     29  C   UNL     1      -3.162  10.173  16.020  0.00  0.00    +0.000 C 
BRANCH  29  30
ATOM     30  O   UNL     1      -4.134  10.521  15.153  0.00  0.00    +0.000 OA
ATOM     31  H   UNL     1      -4.854  11.030  15.586  0.00  0.00    +0.000 HD
ENDBRANCH  29  30
ENDBRANCH  22  29
BRANCH  27  32
ATOM     32  O   UNL     1      -5.562  11.386  17.143  0.00  0.00    +0.000 OA
ATOM     33  H   UNL     1      -5.685  12.182  16.593  0.00  0.00    +0.000 HD
ENDBRANCH  27  32
ENDBRANCH  20  24
ENDBRANCH   1  20
TORSDOF 7
ENDMDL
MODEL 7
REMARK VINA RESULT:      -7.0      3.721      6.175
REMARK  Name = 
REMARK  7 active torsions:
REMARK  status: ('A' for Active; 'I' for Inactive)
REMARK    1  A    between atoms: C_2  and  O_3
REMARK    2  A    between atoms: C_2  and  C_4
REMARK    3  A    between atoms: C_6  and  C_7
REMARK    4  A    between atoms: C_7  and  C_9
REMARK    5  A    between atoms: C_10  and  C_11
REMARK    6  A    between atoms: C_20  and  C_21
REMARK    7  A    between atoms: C_30  and  O_31
REMARK                            x       y       z     vdW  Elec       q    Type
REMARK                         _______ _______ _______ _____ _____    ______ ____
ROOT
ATOM      1  C   UNL     1      -0.462  11.514  19.793  0.00  0.00    +0.000 C 
ATOM      2  C   UNL     1      -0.730  12.191  21.091  0.00  0.00    +0.000 C 
ATOM      3  N   UNL     1       0.273  12.208  21.911  0.00  0.00    +0.000 NA
ATOM      4  O   UNL     1       1.347  11.521  21.305  0.00  0.00    +0.000 OA
ATOM      5  C   UNL     1       1.041  11.266  19.919  0.00  0.00    +0.000 C 
ENDROOT
BRANCH   2   6
ATOM      6  C   UNL     1      -2.058  12.767  21.446  0.00  0.00    +0.000 A 
ATOM      7  C   UNL     1      -2.740  13.644  20.595  0.00  0.00    +0.000 A 
ATOM      8  C   UNL     1      -4.011  14.117  20.937  0.00  0.00    +0.000 A 
ATOM      9  C   UNL     1      -4.595  13.734  22.143  0.00  0.00    +0.000 A 
ATOM     10 CL   UNL     1      -6.151  14.331  22.564  0.00  0.00    +0.000 Cl
ATOM     11  C   UNL     1      -3.923  12.874  23.004  0.00  0.00    +0.000 A 
ATOM     12  C   UNL     1      -2.658  12.388  22.657  0.00  0.00    +0.000 A 
ENDBRANCH   2   6
BRANCH   5  13
ATOM     13  C   UNL     1       1.567   9.908  19.478  0.00  0.00    +0.000 A 
ATOM     14  C   UNL     1       1.718   8.845  20.387  0.00  0.00    +0.000 A 
ATOM     15  C   UNL     1       2.046   7.562  19.942  0.00  0.00    +0.000 A 
ATOM     16  C   UNL     1       2.252   7.333  18.585  0.00  0.00    +0.000 A 
ATOM     17 BR   UNL     1       2.580   5.577  17.973  0.00  0.00    +0.000 Br
ATOM     18  C   UNL     1       2.190   8.387  17.678  0.00  0.00    +0.000 A 
ATOM     19  C   UNL     1       1.863   9.672  18.123  0.00  0.00    +0.000 A 
ENDBRANCH   5  13
BRANCH   1  20
ATOM     20  C   UNL     1      -1.352  10.332  19.458  0.00  0.00    +0.000 C 
ATOM     21  O   UNL     1      -1.421   9.394  20.257  0.00  0.00    +0.000 OA
BRANCH  20  24
ATOM     22  C   UNL     1      -4.259  11.024  17.170  0.00  0.00    +0.000 A 
ATOM     23  C   UNL     1      -3.479  10.845  18.318  0.00  0.00    +0.000 A 
ATOM     24  C   UNL     1      -2.200  10.274  18.231  0.00  0.00    +0.000 A 
ATOM     25  C   UNL     1      -1.762   9.767  17.006  0.00  0.00    +0.000 A 
ATOM     26  C   UNL     1      -2.534   9.943  15.854  0.00  0.00    +0.000 A 
ATOM     27  C   UNL     1      -3.754  10.612  15.932  0.00  0.00    +0.000 A 
BRANCH  22  29
ATOM     28  O   UNL     1      -6.504  11.123  17.944  0.00  0.00    +0.000 OA
ATOM     29  C   UNL     1      -5.588  11.666  17.346  0.00  0.00    +0.000 C 
BRANCH  29  30
ATOM     30  O   UNL     1      -5.677  12.914  16.845  0.00  0.00    +0.000 OA
ATOM     31  H   UNL     1      -4.904  13.469  17.090  0.00  0.00    +0.000 HD
ENDBRANCH  29  30
ENDBRANCH  22  29
BRANCH  27  32
ATOM     32  O   UNL     1      -4.440  10.895  14.781  0.00  0.00    +0.000 OA
ATOM     33  H   UNL     1      -4.210  11.797  14.490  0.00  0.00    +0.000 HD
ENDBRANCH  27  32
ENDBRANCH  20  24
ENDBRANCH   1  20
TORSDOF 7
ENDMDL
MODEL 8
REMARK VINA RESULT:      -7.0      2.355      3.697
REMARK  Name = 
REMARK  7 active torsions:
REMARK  status: ('A' for Active; 'I' for Inactive)
REMARK    1  A    between atoms: C_2  and  O_3
REMARK    2  A    between atoms: C_2  and  C_4
REMARK    3  A    between atoms: C_6  and  C_7
REMARK    4  A    between atoms: C_7  and  C_9
REMARK    5  A    between atoms: C_10  and  C_11
REMARK    6  A    between atoms: C_20  and  C_21
REMARK    7  A    between atoms: C_30  and  O_31
REMARK                            x       y       z     vdW  Elec       q    Type
REMARK                         _______ _______ _______ _____ _____    ______ ____
ROOT
ATOM      1  C   UNL     1      -0.721  10.444  20.707  0.00  0.00    +0.000 C 
ATOM      2  C   UNL     1       0.519   9.707  21.075  0.00  0.00    +0.000 C 
ATOM      3  N   UNL     1       0.938   9.919  22.282  0.00  0.00    +0.000 NA
ATOM      4  O   UNL     1       0.068  10.850  22.891  0.00  0.00    +0.000 OA
ATOM      5  C   UNL     1      -1.097  11.042  22.062  0.00  0.00    +0.000 C 
ENDROOT
BRANCH   2   6
ATOM      6  C   UNL     1       1.252   8.826  20.122  0.00  0.00    +0.000 A 
ATOM      7  C   UNL     1       1.521   9.215  18.804  0.00  0.00    +0.000 A 
ATOM      8  C   UNL     1       2.263   8.386  17.959  0.00  0.00    +0.000 A 
ATOM      9  C   UNL     1       2.719   7.152  18.419  0.00  0.00    +0.000 A 
ATOM     10 CL   UNL     1       3.619   6.130  17.369  0.00  0.00    +0.000 Cl
ATOM     11  C   UNL     1       2.449   6.747  19.721  0.00  0.00    +0.000 A 
ATOM     12  C   UNL     1       1.719   7.582  20.573  0.00  0.00    +0.000 A 
ENDBRANCH   2   6
BRANCH   5  13
ATOM     13  C   UNL     1      -1.559  12.491  22.087  0.00  0.00    +0.000 A 
ATOM     14  C   UNL     1      -2.812  12.875  21.577  0.00  0.00    +0.000 A 
ATOM     15  C   UNL     1      -3.291  14.175  21.753  0.00  0.00    +0.000 A 
ATOM     16  C   UNL     1      -2.509  15.115  22.417  0.00  0.00    +0.000 A 
ATOM     17 BR   UNL     1      -3.205  16.838  22.756  0.00  0.00    +0.000 Br
ATOM     18  C   UNL     1      -1.231  14.781  22.857  0.00  0.00    +0.000 A 
ATOM     19  C   UNL     1      -0.752  13.479  22.680  0.00  0.00    +0.000 A 
ENDBRANCH   5  13
BRANCH   1  20
ATOM     20  C   UNL     1      -0.614  11.384  19.521  0.00  0.00    +0.000 C 
ATOM     21  O   UNL     1      -1.325  11.180  18.533  0.00  0.00    +0.000 OA
BRANCH  20  24
ATOM     22  C   UNL     1       0.381  15.002  19.230  0.00  0.00    +0.000 A 
ATOM     23  C   UNL     1      -0.301  13.790  19.076  0.00  0.00    +0.000 A 
ATOM     24  C   UNL     1       0.271  12.586  19.513  0.00  0.00    +0.000 A 
ATOM     25  C   UNL     1       1.584  12.590  19.989  0.00  0.00    +0.000 A 
ATOM     26  C   UNL     1       2.272  13.795  20.148  0.00  0.00    +0.000 A 
ATOM     27  C   UNL     1       1.652  14.998  19.814  0.00  0.00    +0.000 A 
BRANCH  22  29
ATOM     28  O   UNL     1       0.215  17.039  18.017  0.00  0.00    +0.000 OA
ATOM     29  C   UNL     1      -0.311  16.234  18.769  0.00  0.00    +0.000 C 
BRANCH  29  30
ATOM     30  O   UNL     1      -1.582  16.356  19.202  0.00  0.00    +0.000 OA
ATOM     31  H   UNL     1      -1.888  15.558  19.686  0.00  0.00    +0.000 HD
ENDBRANCH  29  30
ENDBRANCH  22  29
BRANCH  27  32
ATOM     32  O   UNL     1       2.283  16.180  20.097  0.00  0.00    +0.000 OA
ATOM     33  H   UNL     1       3.139  16.201  19.629  0.00  0.00    +0.000 HD
ENDBRANCH  27  32
ENDBRANCH  20  24
ENDBRANCH   1  20
TORSDOF 7
ENDMDL
MODEL 9
REMARK VINA RESULT:      -6.9      4.515      7.348
REMARK  Name = 
REMARK  7 active torsions:
REMARK  status: ('A' for Active; 'I' for Inactive)
REMARK    1  A    between atoms: C_2  and  O_3
REMARK    2  A    between atoms: C_2  and  C_4
REMARK    3  A    between atoms: C_6  and  C_7
REMARK    4  A    between atoms: C_7  and  C_9
REMARK    5  A    between atoms: C_10  and  C_11
REMARK    6  A    between atoms: C_20  and  C_21
REMARK    7  A    between atoms: C_30  and  O_31
REMARK                            x       y       z     vdW  Elec       q    Type
REMARK                         _______ _______ _______ _____ _____    ______ ____
ROOT
ATOM      1  C   UNL     1      -0.927  13.591  20.054  0.00  0.00    +0.000 C 
ATOM      2  C   UNL     1      -1.972  14.471  20.645  0.00  0.00    +0.000 C 
ATOM      3  N   UNL     1      -1.882  15.719  20.312  0.00  0.00    +0.000 NA
ATOM      4  O   UNL     1      -0.750  15.871  19.481  0.00  0.00    +0.000 OA
ATOM      5  C   UNL     1      -0.250  14.573  19.099  0.00  0.00    +0.000 C 
ENDROOT
BRANCH   2   6
ATOM      6  C   UNL     1      -3.018  13.971  21.582  0.00  0.00    +0.000 A 
ATOM      7  C   UNL     1      -3.033  14.322  22.937  0.00  0.00    +0.000 A 
ATOM      8  C   UNL     1      -4.065  13.881  23.771  0.00  0.00    +0.000 A 
ATOM      9  C   UNL     1      -5.075  13.068  23.259  0.00  0.00    +0.000 A 
ATOM     10 CL   UNL     1      -6.332  12.517  24.293  0.00  0.00    +0.000 Cl
ATOM     11  C   UNL     1      -5.066  12.702  21.917  0.00  0.00    +0.000 A 
ATOM     12  C   UNL     1      -4.043  13.154  21.078  0.00  0.00    +0.000 A 
ENDBRANCH   2   6
BRANCH   5  13
ATOM     13  C   UNL     1       1.270  14.562  19.042  0.00  0.00    +0.000 A 
ATOM     14  C   UNL     1       1.972  13.624  18.264  0.00  0.00    +0.000 A 
ATOM     15  C   UNL     1       3.355  13.727  18.091  0.00  0.00    +0.000 A 
ATOM     16  C   UNL     1       4.054  14.754  18.716  0.00  0.00    +0.000 A 
ATOM     17 BR   UNL     1       5.903  14.960  18.388  0.00  0.00    +0.000 Br
ATOM     18  C   UNL     1       3.392  15.644  19.557  0.00  0.00    +0.000 A 
ATOM     19  C   UNL     1       2.009  15.541  19.731  0.00  0.00    +0.000 A 
ENDBRANCH   5  13
BRANCH   1  20
ATOM     20  C   UNL     1      -0.052  12.839  21.038  0.00  0.00    +0.000 C 
ATOM     21  O   UNL     1       0.424  13.449  22.000  0.00  0.00    +0.000 OA
BRANCH  20  24
ATOM     22  C   UNL     1       1.187   9.596  19.581  0.00  0.00    +0.000 A 
ATOM     23  C   UNL     1       0.711  10.906  19.706  0.00  0.00    +0.000 A 
ATOM     24  C   UNL     1       0.218  11.374  20.933  0.00  0.00    +0.000 A 
ATOM     25  C   UNL     1       0.087  10.481  22.000  0.00  0.00    +0.000 A 
ATOM     26  C   UNL     1       0.561   9.172  21.885  0.00  0.00    +0.000 A 
ATOM     27  C   UNL     1       1.152   8.750  20.695  0.00  0.00    +0.000 A 
BRANCH  22  29
ATOM     28  O   UNL     1       1.903   8.025  17.949  0.00  0.00    +0.000 OA
ATOM     29  C   UNL     1       1.722   9.192  18.254  0.00  0.00    +0.000 C 
BRANCH  29  30
ATOM     30  O   UNL     1       1.931  10.215  17.401  0.00  0.00    +0.000 OA
ATOM     31  H   UNL     1       2.887  10.379  17.245  0.00  0.00    +0.000 HD
ENDBRANCH  29  30
ENDBRANCH  22  29
BRANCH  27  32
ATOM     32  O   UNL     1       1.732   7.511  20.635  0.00  0.00    +0.000 OA
ATOM     33  H   UNL     1       1.721   7.113  21.526  0.00  0.00    +0.000 HD
ENDBRANCH  27  32
ENDBRANCH  20  24
ENDBRANCH   1  20
TORSDOF 7
ENDMDL
