MODEL 1
REMARK VINA RESULT:      -7.3      0.000      0.000
REMARK  Name = 
REMARK  5 active torsions:
REMARK  status: ('A' for Active; 'I' for Inactive)
REMARK    1  A    between atoms: C_1  and  N_2
REMARK    2  A    between atoms: C_4  and  C_5
REMARK    3  A    between atoms: C_9  and  C_10
REMARK    4  A    between atoms: N_12  and  C_13
REMARK    5  A    between atoms: C_16  and  C_17
REMARK                            x       y       z     vdW  Elec       q    Type
REMARK                         _______ _______ _______ _____ _____    ______ ____
ROOT
ATOM      1  C   UNL     1       2.869   6.252  18.394  0.00  0.00    +0.000 C 
ATOM      2  O   UNL     1       1.862   5.722  17.946  0.00  0.00    +0.000 OA
ATOM      3  N   UNL     1       2.940   7.558  18.851  0.00  0.00    +0.000 N 
ATOM      4  H   UNL     1       3.860   7.929  19.056  0.00  0.00    +0.000 HD
ENDROOT
BRANCH   1   9
ATOM      5  C   UNL     1       7.565   4.554  17.876  0.00  0.00    +0.000 C 
ATOM      6  N   UNL     1       6.175   4.733  18.226  0.00  0.00    +0.000 N 
ATOM      7  N   UNL     1       5.588   3.830  19.032  0.00  0.00    +0.000 NA
ATOM      8  C   UNL     1       4.323   4.283  19.184  0.00  0.00    +0.000 A 
ATOM      9  C   UNL     1       4.109   5.493  18.440  0.00  0.00    +0.000 A 
ATOM     10  C   UNL     1       5.328   5.731  17.849  0.00  0.00    +0.000 A 
ATOM     11 CL   UNL     1       5.889   6.982  16.835  0.00  0.00    +0.000 Cl
BRANCH   8  12
ATOM     12  C   UNL     1       3.308   3.558  20.044  0.00  0.00    +0.000 C 
ATOM     13  F   UNL     1       2.282   3.034  19.314  0.00  0.00    +0.000 F 
ATOM     14  F   UNL     1       3.858   2.513  20.717  0.00  0.00    +0.000 F 
ATOM     15  F   UNL     1       2.730   4.381  20.959  0.00  0.00    +0.000 F 
ENDBRANCH   8  12
ENDBRANCH   1   9
BRANCH   3  16
ATOM     16  C   UNL     1       1.855   8.449  18.996  0.00  0.00    +0.000 A 
ATOM     17  C   UNL     1       1.237   8.700  20.224  0.00  0.00    +0.000 A 
ATOM     18  C   UNL     1       0.171   9.595  20.318  0.00  0.00    +0.000 A 
ATOM     19  C   UNL     1      -0.305  10.265  19.186  0.00  0.00    +0.000 A 
ATOM     20  C   UNL     1       0.317  10.019  17.953  0.00  0.00    +0.000 A 
ATOM     21  C   UNL     1       1.396   9.128  17.862  0.00  0.00    +0.000 A 
BRANCH  19  22
ATOM     22  C   UNL     1      -1.455  11.235  19.295  0.00  0.00    +0.000 C 
ATOM     23  F   UNL     1      -2.606  10.783  18.721  0.00  0.00    +0.000 F 
ATOM     24  F   UNL     1      -1.774  11.519  20.588  0.00  0.00    +0.000 F 
ATOM     25  F   UNL     1      -1.189  12.432  18.702  0.00  0.00    +0.000 F 
ENDBRANCH  19  22
ENDBRANCH   3  16
TORSDOF 4
ENDMDL
MODEL 2
REMARK VINA RESULT:      -7.3      0.022      1.089
REMARK  Name = 
REMARK  5 active torsions:
REMARK  status: ('A' for Active; 'I' for Inactive)
REMARK    1  A    between atoms: C_1  and  N_2
REMARK    2  A    between atoms: C_4  and  C_5
REMARK    3  A    between atoms: C_9  and  C_10
REMARK    4  A    between atoms: N_12  and  C_13
REMARK    5  A    between atoms: C_16  and  C_17
REMARK                            x       y       z     vdW  Elec       q    Type
REMARK                         _______ _______ _______ _____ _____    ______ ____
ROOT
ATOM      1  C   UNL     1       2.865   6.261  18.389  0.00  0.00    +0.000 C 
ATOM      2  O   UNL     1       1.865   5.735  17.926  0.00  0.00    +0.000 OA
ATOM      3  N   UNL     1       2.931   7.563  18.857  0.00  0.00    +0.000 N 
ATOM      4  H   UNL     1       3.848   7.933  19.076  0.00  0.00    +0.000 HD
ENDROOT
BRANCH   1   9
ATOM      5  C   UNL     1       7.566   4.564  17.904  0.00  0.00    +0.000 C 
ATOM      6  N   UNL     1       6.173   4.742  18.244  0.00  0.00    +0.000 N 
ATOM      7  N   UNL     1       5.580   3.839  19.046  0.00  0.00    +0.000 NA
ATOM      8  C   UNL     1       4.314   4.292  19.188  0.00  0.00    +0.000 A 
ATOM      9  C   UNL     1       4.105   5.502  18.444  0.00  0.00    +0.000 A 
ATOM     10  C   UNL     1       5.329   5.741  17.862  0.00  0.00    +0.000 A 
ATOM     11 CL   UNL     1       5.897   6.993  16.854  0.00  0.00    +0.000 Cl
BRANCH   8  12
ATOM     12  C   UNL     1       3.292   3.566  20.041  0.00  0.00    +0.000 C 
ATOM     13  F   UNL     1       3.835   2.525  20.735  0.00  0.00    +0.000 F 
ATOM     14  F   UNL     1       2.728   4.380  20.972  0.00  0.00    +0.000 F 
ATOM     15  F   UNL     1       2.289   3.032  19.295  0.00  0.00    +0.000 F 
ENDBRANCH   8  12
ENDBRANCH   1   9
BRANCH   3  16
ATOM     16  C   UNL     1       1.844   8.453  18.997  0.00  0.00    +0.000 A 
ATOM     17  C   UNL     1       1.224   8.709  20.223  0.00  0.00    +0.000 A 
ATOM     18  C   UNL     1       0.156   9.602  20.311  0.00  0.00    +0.000 A 
ATOM     19  C   UNL     1      -0.319  10.266  19.176  0.00  0.00    +0.000 A 
ATOM     20  C   UNL     1       0.305  10.016  17.945  0.00  0.00    +0.000 A 
ATOM     21  C   UNL     1       1.386   9.126  17.859  0.00  0.00    +0.000 A 
BRANCH  19  22
ATOM     22  C   UNL     1      -1.471  11.235  19.279  0.00  0.00    +0.000 C 
ATOM     23  F   UNL     1      -1.815  11.539  20.562  0.00  0.00    +0.000 F 
ATOM     24  F   UNL     1      -1.202  12.426  18.676  0.00  0.00    +0.000 F 
ATOM     25  F   UNL     1      -2.606  10.764  18.692  0.00  0.00    +0.000 F 
ENDBRANCH  19  22
ENDBRANCH   3  16
TORSDOF 4
ENDMDL
MODEL 3
REMARK VINA RESULT:      -7.2      1.707      2.195
REMARK  Name = 
REMARK  5 active torsions:
REMARK  status: ('A' for Active; 'I' for Inactive)
REMARK    1  A    between atoms: C_1  and  N_2
REMARK    2  A    between atoms: C_4  and  C_5
REMARK    3  A    between atoms: C_9  and  C_10
REMARK    4  A    between atoms: N_12  and  C_13
REMARK    5  A    between atoms: C_16  and  C_17
REMARK                            x       y       z     vdW  Elec       q    Type
REMARK                         _______ _______ _______ _____ _____    ______ ____
ROOT
ATOM      1  C   UNL     1       3.407   6.151  18.843  0.00  0.00    +0.000 C 
ATOM      2  O   UNL     1       3.534   5.847  20.020  0.00  0.00    +0.000 OA
ATOM      3  N   UNL     1       2.595   7.169  18.370  0.00  0.00    +0.000 N 
ATOM      4  H   UNL     1       2.456   7.226  17.368  0.00  0.00    +0.000 HD
ENDROOT
BRANCH   1   9
ATOM      5  C   UNL     1       6.676   4.453  15.430  0.00  0.00    +0.000 C 
ATOM      6  N   UNL     1       5.559   4.625  16.330  0.00  0.00    +0.000 N 
ATOM      7  N   UNL     1       4.638   3.647  16.417  0.00  0.00    +0.000 NA
ATOM      8  C   UNL     1       3.756   4.093  17.340  0.00  0.00    +0.000 A 
ATOM      9  C   UNL     1       4.126   5.390  17.833  0.00  0.00    +0.000 A 
ATOM     10  C   UNL     1       5.287   5.677  17.151  0.00  0.00    +0.000 A 
ATOM     11 CL   UNL     1       6.345   7.014  17.197  0.00  0.00    +0.000 Cl
BRANCH   8  12
ATOM     12  C   UNL     1       2.549   3.277  17.757  0.00  0.00    +0.000 C 
ATOM     13  F   UNL     1       2.467   2.088  17.095  0.00  0.00    +0.000 F 
ATOM     14  F   UNL     1       2.572   2.965  19.080  0.00  0.00    +0.000 F 
ATOM     15  F   UNL     1       1.380   3.924  17.505  0.00  0.00    +0.000 F 
ENDBRANCH   8  12
ENDBRANCH   1   9
BRANCH   3  16
ATOM     16  C   UNL     1       1.884   8.100  19.158  0.00  0.00    +0.000 A 
ATOM     17  C   UNL     1       1.639   7.912  20.520  0.00  0.00    +0.000 A 
ATOM     18  C   UNL     1       0.936   8.865  21.258  0.00  0.00    +0.000 A 
ATOM     19  C   UNL     1       0.460  10.033  20.654  0.00  0.00    +0.000 A 
ATOM     20  C   UNL     1       0.709  10.226  19.287  0.00  0.00    +0.000 A 
ATOM     21  C   UNL     1       1.426   9.273  18.548  0.00  0.00    +0.000 A 
BRANCH  19  22
ATOM     22  C   UNL     1      -0.295  11.061  21.457  0.00  0.00    +0.000 C 
ATOM     23  F   UNL     1       0.398  12.219  21.650  0.00  0.00    +0.000 F 
ATOM     24  F   UNL     1      -1.465  11.426  20.864  0.00  0.00    +0.000 F 
ATOM     25  F   UNL     1      -0.627  10.615  22.700  0.00  0.00    +0.000 F 
ENDBRANCH  19  22
ENDBRANCH   3  16
TORSDOF 4
ENDMDL
MODEL 4
REMARK VINA RESULT:      -7.2      1.691      2.043
REMARK  Name = 
REMARK  5 active torsions:
REMARK  status: ('A' for Active; 'I' for Inactive)
REMARK    1  A    between atoms: C_1  and  N_2
REMARK    2  A    between atoms: C_4  and  C_5
REMARK    3  A    between atoms: C_9  and  C_10
REMARK    4  A    between atoms: N_12  and  C_13
REMARK    5  A    between atoms: C_16  and  C_17
REMARK                            x       y       z     vdW  Elec       q    Type
REMARK                         _______ _______ _______ _____ _____    ______ ____
ROOT
ATOM      1  C   UNL     1       3.322   6.142  18.888  0.00  0.00    +0.000 C 
ATOM      2  O   UNL     1       3.386   5.800  20.060  0.00  0.00    +0.000 OA
ATOM      3  N   UNL     1       2.570   7.204  18.413  0.00  0.00    +0.000 N 
ATOM      4  H   UNL     1       2.477   7.296  17.408  0.00  0.00    +0.000 HD
ENDROOT
BRANCH   1   9
ATOM      5  C   UNL     1       6.628   4.462  15.503  0.00  0.00    +0.000 C 
ATOM      6  N   UNL     1       5.505   4.626  16.396  0.00  0.00    +0.000 N 
ATOM      7  N   UNL     1       4.596   3.638  16.485  0.00  0.00    +0.000 NA
ATOM      8  C   UNL     1       3.704   4.079  17.401  0.00  0.00    +0.000 A 
ATOM      9  C   UNL     1       4.056   5.384  17.887  0.00  0.00    +0.000 A 
ATOM     10  C   UNL     1       5.216   5.681  17.209  0.00  0.00    +0.000 A 
ATOM     11 CL   UNL     1       6.257   7.030  17.251  0.00  0.00    +0.000 Cl
BRANCH   8  12
ATOM     12  C   UNL     1       2.505   3.251  17.817  0.00  0.00    +0.000 C 
ATOM     13  F   UNL     1       1.323   3.897  17.603  0.00  0.00    +0.000 F 
ATOM     14  F   UNL     1       2.421   2.084  17.126  0.00  0.00    +0.000 F 
ATOM     15  F   UNL     1       2.526   2.947  19.142  0.00  0.00    +0.000 F 
ENDBRANCH   8  12
ENDBRANCH   1   9
BRANCH   3  16
ATOM     16  C   UNL     1       1.860   8.139  19.198  0.00  0.00    +0.000 A 
ATOM     17  C   UNL     1       1.600   7.948  20.557  0.00  0.00    +0.000 A 
ATOM     18  C   UNL     1       0.900   8.904  21.293  0.00  0.00    +0.000 A 
ATOM     19  C   UNL     1       0.442  10.079  20.689  0.00  0.00    +0.000 A 
ATOM     20  C   UNL     1       0.706  10.276  19.325  0.00  0.00    +0.000 A 
ATOM     21  C   UNL     1       1.420   9.320  18.589  0.00  0.00    +0.000 A 
BRANCH  19  22
ATOM     22  C   UNL     1      -0.311  11.112  21.490  0.00  0.00    +0.000 C 
ATOM     23  F   UNL     1      -1.494  11.484  20.924  0.00  0.00    +0.000 F 
ATOM     24  F   UNL     1      -0.621  10.672  22.741  0.00  0.00    +0.000 F 
ATOM     25  F   UNL     1       0.397  12.262  21.660  0.00  0.00    +0.000 F 
ENDBRANCH  19  22
ENDBRANCH   3  16
TORSDOF 4
ENDMDL
MODEL 5
REMARK VINA RESULT:      -7.2      1.746      2.219
REMARK  Name = 
REMARK  5 active torsions:
REMARK  status: ('A' for Active; 'I' for Inactive)
REMARK    1  A    between atoms: C_1  and  N_2
REMARK    2  A    between atoms: C_4  and  C_5
REMARK    3  A    between atoms: C_9  and  C_10
REMARK    4  A    between atoms: N_12  and  C_13
REMARK    5  A    between atoms: C_16  and  C_17
REMARK                            x       y       z     vdW  Elec       q    Type
REMARK                         _______ _______ _______ _____ _____    ______ ____
ROOT
ATOM      1  C   UNL     1       2.861   7.136  18.390  0.00  0.00    +0.000 C 
ATOM      2  O   UNL     1       2.583   7.065  19.578  0.00  0.00    +0.000 OA
ATOM      3  N   UNL     1       2.426   8.134  17.533  0.00  0.00    +0.000 N 
ATOM      4  H   UNL     1       2.596   8.004  16.543  0.00  0.00    +0.000 HD
ENDROOT
BRANCH   1   9
ATOM      5  C   UNL     1       6.554   4.420  16.342  0.00  0.00    +0.000 C 
ATOM      6  N   UNL     1       5.301   4.884  16.892  0.00  0.00    +0.000 N 
ATOM      7  N   UNL     1       4.280   4.016  17.004  0.00  0.00    +0.000 NA
ATOM      8  C   UNL     1       3.281   4.737  17.562  0.00  0.00    +0.000 A 
ATOM      9  C   UNL     1       3.684   6.097  17.791  0.00  0.00    +0.000 A 
ATOM     10  C   UNL     1       4.985   6.130  17.343  0.00  0.00    +0.000 A 
ATOM     11 CL   UNL     1       6.152   7.372  17.298  0.00  0.00    +0.000 Cl
BRANCH   8  12
ATOM     12  C   UNL     1       1.931   4.127  17.881  0.00  0.00    +0.000 C 
ATOM     13  F   UNL     1       1.855   2.812  17.529  0.00  0.00    +0.000 F 
ATOM     14  F   UNL     1       1.646   4.175  19.209  0.00  0.00    +0.000 F 
ATOM     15  F   UNL     1       0.919   4.748  17.217  0.00  0.00    +0.000 F 
ENDBRANCH   8  12
ENDBRANCH   1   9
BRANCH   3  16
ATOM     16  C   UNL     1       1.707   9.292  17.901  0.00  0.00    +0.000 A 
ATOM     17  C   UNL     1       2.323  10.515  18.173  0.00  0.00    +0.000 A 
ATOM     18  C   UNL     1       1.568  11.634  18.526  0.00  0.00    +0.000 A 
ATOM     19  C   UNL     1       0.175  11.559  18.617  0.00  0.00    +0.000 A 
ATOM     20  C   UNL     1      -0.448  10.333  18.339  0.00  0.00    +0.000 A 
ATOM     21  C   UNL     1       0.311   9.212  17.973  0.00  0.00    +0.000 A 
BRANCH  19  22
ATOM     22  C   UNL     1      -0.637  12.772  18.995  0.00  0.00    +0.000 C 
ATOM     23  F   UNL     1      -0.316  13.283  20.218  0.00  0.00    +0.000 F 
ATOM     24  F   UNL     1      -0.480  13.797  18.113  0.00  0.00    +0.000 F 
ATOM     25  F   UNL     1      -1.974  12.516  19.039  0.00  0.00    +0.000 F 
ENDBRANCH  19  22
ENDBRANCH   3  16
TORSDOF 4
ENDMDL
MODEL 6
REMARK VINA RESULT:      -7.1      1.766      2.184
REMARK  Name = 
REMARK  5 active torsions:
REMARK  status: ('A' for Active; 'I' for Inactive)
REMARK    1  A    between atoms: C_1  and  N_2
REMARK    2  A    between atoms: C_4  and  C_5
REMARK    3  A    between atoms: C_9  and  C_10
REMARK    4  A    between atoms: N_12  and  C_13
REMARK    5  A    between atoms: C_16  and  C_17
REMARK                            x       y       z     vdW  Elec       q    Type
REMARK                         _______ _______ _______ _____ _____    ______ ____
ROOT
ATOM      1  C   UNL     1       2.848   7.139  18.403  0.00  0.00    +0.000 C 
ATOM      2  O   UNL     1       2.602   7.085  19.598  0.00  0.00    +0.000 OA
ATOM      3  N   UNL     1       2.386   8.122  17.542  0.00  0.00    +0.000 N 
ATOM      4  H   UNL     1       2.531   7.977  16.551  0.00  0.00    +0.000 HD
ENDROOT
BRANCH   1   9
ATOM      5  C   UNL     1       6.515   4.398  16.340  0.00  0.00    +0.000 C 
ATOM      6  N   UNL     1       5.267   4.871  16.892  0.00  0.00    +0.000 N 
ATOM      7  N   UNL     1       4.237   4.013  17.000  0.00  0.00    +0.000 NA
ATOM      8  C   UNL     1       3.245   4.741  17.562  0.00  0.00    +0.000 A 
ATOM      9  C   UNL     1       3.661   6.095  17.798  0.00  0.00    +0.000 A 
ATOM     10  C   UNL     1       4.962   6.118  17.350  0.00  0.00    +0.000 A 
ATOM     11 CL   UNL     1       6.142   7.348  17.312  0.00  0.00    +0.000 Cl
BRANCH   8  12
ATOM     12  C   UNL     1       1.889   4.143  17.878  0.00  0.00    +0.000 C 
ATOM     13  F   UNL     1       1.571   4.236  19.201  0.00  0.00    +0.000 F 
ATOM     14  F   UNL     1       0.884   4.766  17.208  0.00  0.00    +0.000 F 
ATOM     15  F   UNL     1       1.829   2.819  17.575  0.00  0.00    +0.000 F 
ENDBRANCH   8  12
ENDBRANCH   1   9
BRANCH   3  16
ATOM     16  C   UNL     1       1.670   9.281  17.911  0.00  0.00    +0.000 A 
ATOM     17  C   UNL     1       2.290  10.502  18.186  0.00  0.00    +0.000 A 
ATOM     18  C   UNL     1       1.539  11.623  18.540  0.00  0.00    +0.000 A 
ATOM     19  C   UNL     1       0.145  11.553  18.629  0.00  0.00    +0.000 A 
ATOM     20  C   UNL     1      -0.481  10.329  18.349  0.00  0.00    +0.000 A 
ATOM     21  C   UNL     1       0.274   9.206  17.981  0.00  0.00    +0.000 A 
BRANCH  19  22
ATOM     22  C   UNL     1      -0.663  12.768  19.009  0.00  0.00    +0.000 C 
ATOM     23  F   UNL     1      -2.010  12.557  18.984  0.00  0.00    +0.000 F 
ATOM     24  F   UNL     1      -0.381  13.206  20.267  0.00  0.00    +0.000 F 
ATOM     25  F   UNL     1      -0.438  13.827  18.183  0.00  0.00    +0.000 F 
ENDBRANCH  19  22
ENDBRANCH   3  16
TORSDOF 4
ENDMDL
MODEL 7
REMARK VINA RESULT:      -7.1      2.394      2.972
REMARK  Name = 
REMARK  5 active torsions:
REMARK  status: ('A' for Active; 'I' for Inactive)
REMARK    1  A    between atoms: C_1  and  N_2
REMARK    2  A    between atoms: C_4  and  C_5
REMARK    3  A    between atoms: C_9  and  C_10
REMARK    4  A    between atoms: N_12  and  C_13
REMARK    5  A    between atoms: C_16  and  C_17
REMARK                            x       y       z     vdW  Elec       q    Type
REMARK                         _______ _______ _______ _____ _____    ______ ____
ROOT
ATOM      1  C   UNL     1       2.610   5.501  18.947  0.00  0.00    +0.000 C 
ATOM      2  O   UNL     1       1.774   5.316  18.075  0.00  0.00    +0.000 OA
ATOM      3  N   UNL     1       2.801   6.696  19.620  0.00  0.00    +0.000 N 
ATOM      4  H   UNL     1       3.620   6.771  20.211  0.00  0.00    +0.000 HD
ENDROOT
BRANCH   1   9
ATOM      5  C   UNL     1       4.767   1.415  20.913  0.00  0.00    +0.000 C 
ATOM      6  N   UNL     1       4.469   2.615  20.165  0.00  0.00    +0.000 N 
ATOM      7  N   UNL     1       5.378   3.075  19.287  0.00  0.00    +0.000 NA
ATOM      8  C   UNL     1       4.803   4.172  18.746  0.00  0.00    +0.000 A 
ATOM      9  C   UNL     1       3.505   4.414  19.312  0.00  0.00    +0.000 A 
ATOM     10  C   UNL     1       3.347   3.386  20.212  0.00  0.00    +0.000 A 
ATOM     11 CL   UNL     1       2.068   2.960  21.257  0.00  0.00    +0.000 Cl
BRANCH   8  12
ATOM     12  C   UNL     1       5.494   5.000  17.681  0.00  0.00    +0.000 C 
ATOM     13  F   UNL     1       4.753   5.109  16.540  0.00  0.00    +0.000 F 
ATOM     14  F   UNL     1       5.732   6.273  18.093  0.00  0.00    +0.000 F 
ATOM     15  F   UNL     1       6.682   4.458  17.301  0.00  0.00    +0.000 F 
ENDBRANCH   8  12
ENDBRANCH   1   9
BRANCH   3  16
ATOM     16  C   UNL     1       1.997   7.851  19.510  0.00  0.00    +0.000 A 
ATOM     17  C   UNL     1       1.244   8.357  20.572  0.00  0.00    +0.000 A 
ATOM     18  C   UNL     1       0.469   9.506  20.416  0.00  0.00    +0.000 A 
ATOM     19  C   UNL     1       0.426  10.182  19.193  0.00  0.00    +0.000 A 
ATOM     20  C   UNL     1       1.186   9.680  18.125  0.00  0.00    +0.000 A 
ATOM     21  C   UNL     1       1.974   8.531  18.287  0.00  0.00    +0.000 A 
BRANCH  19  22
ATOM     22  C   UNL     1      -0.410  11.427  19.030  0.00  0.00    +0.000 C 
ATOM     23  F   UNL     1      -1.297  11.624  20.047  0.00  0.00    +0.000 F 
ATOM     24  F   UNL     1       0.348  12.557  18.977  0.00  0.00    +0.000 F 
ATOM     25  F   UNL     1      -1.150  11.416  17.888  0.00  0.00    +0.000 F 
ENDBRANCH  19  22
ENDBRANCH   3  16
TORSDOF 4
ENDMDL
MODEL 8
REMARK VINA RESULT:      -7.1      2.383      3.156
REMARK  Name = 
REMARK  5 active torsions:
REMARK  status: ('A' for Active; 'I' for Inactive)
REMARK    1  A    between atoms: C_1  and  N_2
REMARK    2  A    between atoms: C_4  and  C_5
REMARK    3  A    between atoms: C_9  and  C_10
REMARK    4  A    between atoms: N_12  and  C_13
REMARK    5  A    between atoms: C_16  and  C_17
REMARK                            x       y       z     vdW  Elec       q    Type
REMARK                         _______ _______ _______ _____ _____    ______ ____
ROOT
ATOM      1  C   UNL     1       2.642   5.618  18.896  0.00  0.00    +0.000 C 
ATOM      2  O   UNL     1       1.882   5.487  17.948  0.00  0.00    +0.000 OA
ATOM      3  N   UNL     1       2.766   6.767  19.660  0.00  0.00    +0.000 N 
ATOM      4  H   UNL     1       3.533   6.807  20.320  0.00  0.00    +0.000 HD
ENDROOT
BRANCH   1   9
ATOM      5  C   UNL     1       4.722   1.498  20.873  0.00  0.00    +0.000 C 
ATOM      6  N   UNL     1       4.446   2.699  20.120  0.00  0.00    +0.000 N 
ATOM      7  N   UNL     1       5.358   3.132  19.231  0.00  0.00    +0.000 NA
ATOM      8  C   UNL     1       4.803   4.239  18.687  0.00  0.00    +0.000 A 
ATOM      9  C   UNL     1       3.516   4.514  19.262  0.00  0.00    +0.000 A 
ATOM     10  C   UNL     1       3.342   3.496  20.171  0.00  0.00    +0.000 A 
ATOM     11 CL   UNL     1       2.062   3.107  21.228  0.00  0.00    +0.000 Cl
BRANCH   8  12
ATOM     12  C   UNL     1       5.503   5.043  17.610  0.00  0.00    +0.000 C 
ATOM     13  F   UNL     1       4.788   5.099  16.450  0.00  0.00    +0.000 F 
ATOM     14  F   UNL     1       5.708   6.334  17.984  0.00  0.00    +0.000 F 
ATOM     15  F   UNL     1       6.710   4.512  17.277  0.00  0.00    +0.000 F 
ENDBRANCH   8  12
ENDBRANCH   1   9
BRANCH   3  16
ATOM     16  C   UNL     1       1.961   7.923  19.560  0.00  0.00    +0.000 A 
ATOM     17  C   UNL     1       1.866   8.685  18.392  0.00  0.00    +0.000 A 
ATOM     18  C   UNL     1       1.051   9.816  18.340  0.00  0.00    +0.000 A 
ATOM     19  C   UNL     1       0.308  10.217  19.456  0.00  0.00    +0.000 A 
ATOM     20  C   UNL     1       0.398   9.451  20.628  0.00  0.00    +0.000 A 
ATOM     21  C   UNL     1       1.208   8.307  20.675  0.00  0.00    +0.000 A 
BRANCH  19  22
ATOM     22  C   UNL     1      -0.574  11.438  19.393  0.00  0.00    +0.000 C 
ATOM     23  F   UNL     1      -0.428  12.271  20.462  0.00  0.00    +0.000 F 
ATOM     24  F   UNL     1      -0.324  12.202  18.294  0.00  0.00    +0.000 F 
ATOM     25  F   UNL     1      -1.898  11.126  19.342  0.00  0.00    +0.000 F 
ENDBRANCH  19  22
ENDBRANCH   3  16
TORSDOF 4
ENDMDL
MODEL 9
REMARK VINA RESULT:      -7.1      1.701      2.510
REMARK  Name = 
REMARK  5 active torsions:
REMARK  status: ('A' for Active; 'I' for Inactive)
REMARK    1  A    between atoms: C_1  and  N_2
REMARK    2  A    between atoms: C_4  and  C_5
REMARK    3  A    between atoms: C_9  and  C_10
REMARK    4  A    between atoms: N_12  and  C_13
REMARK    5  A    between atoms: C_16  and  C_17
REMARK                            x       y       z     vdW  Elec       q    Type
REMARK                         _______ _______ _______ _____ _____    ______ ____
ROOT
ATOM      1  C   UNL     1       3.388   6.234  18.790  0.00  0.00    +0.000 C 
ATOM      2  O   UNL     1       3.450   5.921  19.970  0.00  0.00    +0.000 OA
ATOM      3  N   UNL     1       2.623   7.274  18.286  0.00  0.00    +0.000 N 
ATOM      4  H   UNL     1       2.535   7.340  17.279  0.00  0.00    +0.000 HD
ENDROOT
BRANCH   1   9
ATOM      5  C   UNL     1       6.774   4.488  15.519  0.00  0.00    +0.000 C 
ATOM      6  N   UNL     1       5.622   4.677  16.371  0.00  0.00    +0.000 N 
ATOM      7  N   UNL     1       4.683   3.714  16.417  0.00  0.00    +0.000 NA
ATOM      8  C   UNL     1       3.770   4.172  17.302  0.00  0.00    +0.000 A 
ATOM      9  C   UNL     1       4.138   5.463  17.811  0.00  0.00    +0.000 A 
ATOM     10  C   UNL     1       5.331   5.733  17.181  0.00  0.00    +0.000 A 
ATOM     11 CL   UNL     1       6.406   7.053  17.273  0.00  0.00    +0.000 Cl
BRANCH   8  12
ATOM     12  C   UNL     1       2.533   3.375  17.666  0.00  0.00    +0.000 C 
ATOM     13  F   UNL     1       2.483   3.065  18.993  0.00  0.00    +0.000 F 
ATOM     14  F   UNL     1       1.387   4.054  17.398  0.00  0.00    +0.000 F 
ATOM     15  F   UNL     1       2.476   2.188  17.005  0.00  0.00    +0.000 F 
ENDBRANCH   8  12
ENDBRANCH   1   9
BRANCH   3  16
ATOM     16  C   UNL     1       1.896   8.216  19.045  0.00  0.00    +0.000 A 
ATOM     17  C   UNL     1       1.391   9.401  18.504  0.00  0.00    +0.000 A 
ATOM     18  C   UNL     1       0.672  10.298  19.293  0.00  0.00    +0.000 A 
ATOM     19  C   UNL     1       0.437  10.035  20.647  0.00  0.00    +0.000 A 
ATOM     20  C   UNL     1       0.938   8.843  21.192  0.00  0.00    +0.000 A 
ATOM     21  C   UNL     1       1.651   7.936  20.394  0.00  0.00    +0.000 A 
BRANCH  19  22
ATOM     22  C   UNL     1      -0.345  11.007  21.495  0.00  0.00    +0.000 C 
ATOM     23  F   UNL     1       0.339  12.150  21.783  0.00  0.00    +0.000 F 
ATOM     24  F   UNL     1      -1.499  11.407  20.893  0.00  0.00    +0.000 F 
ATOM     25  F   UNL     1      -0.710  10.479  22.695  0.00  0.00    +0.000 F 
ENDBRANCH  19  22
ENDBRANCH   3  16
TORSDOF 4
ENDMDL
