MODEL 1
REMARK VINA RESULT:      -7.3      0.000      0.000
REMARK  Name = 
REMARK  3 active torsions:
REMARK  status: ('A' for Active; 'I' for Inactive)
REMARK    1  A    between atoms: C_5  and  S_6
REMARK    2  A    between atoms: S_6  and  C_7
REMARK    3  A    between atoms: C_9  and  C_10
REMARK                            x       y       z     vdW  Elec       q    Type
REMARK                         _______ _______ _______ _____ _____    ______ ____
ROOT
ATOM      1  C   UNL     1       3.409   6.188  17.874  0.00  0.00    +0.000 A 
ATOM      2  N   UNL     1       4.734   6.433  17.923  0.00  0.00    +0.000 NA
ATOM      3  C   UNL     1       5.559   5.424  18.251  0.00  0.00    +0.000 A 
ATOM      4  N   UNL     1       5.108   4.186  18.546  0.00  0.00    +0.000 NA
ATOM      5  C   UNL     1       3.792   3.948  18.494  0.00  0.00    +0.000 A 
ATOM      6  C   UNL     1       3.342   2.671  18.811  0.00  0.00    +0.000 A 
ATOM      7  C   UNL     1       1.989   2.329  18.773  0.00  0.00    +0.000 A 
ATOM      8  C   UNL     1       1.052   3.282  18.400  0.00  0.00    +0.000 A 
ATOM      9  C   UNL     1       1.477   4.571  18.087  0.00  0.00    +0.000 A 
ATOM     10  C   UNL     1       2.856   4.925  18.140  0.00  0.00    +0.000 A 
ENDROOT
BRANCH   3  11
ATOM     11  C   UNL     1       7.076   5.678  18.298  0.00  0.00    +0.000 C 
ATOM     12 CL   UNL     1       7.733   5.693  19.974  0.00  0.00    +0.000 Cl
ATOM     13 CL   UNL     1       7.943   4.391  17.388  0.00  0.00    +0.000 Cl
ATOM     14 CL   UNL     1       7.456   7.272  17.554  0.00  0.00    +0.000 Cl
ENDBRANCH   3  11
BRANCH   1  15
ATOM     15  S   UNL     1       2.372   7.601  17.472  0.00  0.00    +0.000 S 
BRANCH  15  20
ATOM     16  F   UNL     1       0.502   9.526  22.741  0.00  0.00    +0.000 F 
ATOM     17  C   UNL     1       0.946   9.097  21.551  0.00  0.00    +0.000 A 
ATOM     18  C   UNL     1       0.756   9.889  20.424  0.00  0.00    +0.000 A 
ATOM     19  C   UNL     1       1.206   9.437  19.181  0.00  0.00    +0.000 A 
ATOM     20  C   UNL     1       1.848   8.197  19.071  0.00  0.00    +0.000 A 
ATOM     21  C   UNL     1       2.029   7.409  20.217  0.00  0.00    +0.000 A 
ATOM     22  C   UNL     1       1.578   7.863  21.460  0.00  0.00    +0.000 A 
ENDBRANCH  15  20
ENDBRANCH   1  15
TORSDOF 3
ENDMDL
MODEL 2
REMARK VINA RESULT:      -7.3      2.671      3.972
REMARK  Name = 
REMARK  3 active torsions:
REMARK  status: ('A' for Active; 'I' for Inactive)
REMARK    1  A    between atoms: C_5  and  S_6
REMARK    2  A    between atoms: S_6  and  C_7
REMARK    3  A    between atoms: C_9  and  C_10
REMARK                            x       y       z     vdW  Elec       q    Type
REMARK                         _______ _______ _______ _____ _____    ______ ____
ROOT
ATOM      1  C   UNL     1       3.453   6.460  18.141  0.00  0.00    +0.000 A 
ATOM      2  N   UNL     1       2.606   5.581  18.712  0.00  0.00    +0.000 NA
ATOM      3  C   UNL     1       3.090   4.392  19.110  0.00  0.00    +0.000 A 
ATOM      4  N   UNL     1       4.386   4.045  18.944  0.00  0.00    +0.000 NA
ATOM      5  C   UNL     1       5.222   4.922  18.378  0.00  0.00    +0.000 A 
ATOM      6  C   UNL     1       6.549   4.547  18.204  0.00  0.00    +0.000 A 
ATOM      7  C   UNL     1       7.495   5.401  17.633  0.00  0.00    +0.000 A 
ATOM      8  C   UNL     1       7.114   6.672  17.229  0.00  0.00    +0.000 A 
ATOM      9  C   UNL     1       5.788   7.069  17.384  0.00  0.00    +0.000 A 
ATOM     10  C   UNL     1       4.819   6.193  17.953  0.00  0.00    +0.000 A 
ENDROOT
BRANCH   3  11
ATOM     11  C   UNL     1       2.145   3.379  19.779  0.00  0.00    +0.000 C 
ATOM     12 CL   UNL     1       1.570   2.102  18.647  0.00  0.00    +0.000 Cl
ATOM     13 CL   UNL     1       2.986   2.558  21.141  0.00  0.00    +0.000 Cl
ATOM     14 CL   UNL     1       0.692   4.226  20.420  0.00  0.00    +0.000 Cl
ENDBRANCH   3  11
BRANCH   1  15
ATOM     15  S   UNL     1       2.716   8.007  17.594  0.00  0.00    +0.000 S 
BRANCH  15  20
ATOM     16  F   UNL     1      -0.571   9.658  22.224  0.00  0.00    +0.000 F 
ATOM     17  C   UNL     1       0.190   9.295  21.182  0.00  0.00    +0.000 A 
ATOM     18  C   UNL     1       0.060   9.968  19.972  0.00  0.00    +0.000 A 
ATOM     19  C   UNL     1       0.843   9.583  18.882  0.00  0.00    +0.000 A 
ATOM     20  C   UNL     1       1.758   8.529  19.006  0.00  0.00    +0.000 A 
ATOM     21  C   UNL     1       1.876   7.860  20.232  0.00  0.00    +0.000 A 
ATOM     22  C   UNL     1       1.090   8.246  21.323  0.00  0.00    +0.000 A 
ENDBRANCH  15  20
ENDBRANCH   1  15
TORSDOF 3
ENDMDL
MODEL 3
REMARK VINA RESULT:      -7.3      2.711      3.972
REMARK  Name = 
REMARK  3 active torsions:
REMARK  status: ('A' for Active; 'I' for Inactive)
REMARK    1  A    between atoms: C_5  and  S_6
REMARK    2  A    between atoms: S_6  and  C_7
REMARK    3  A    between atoms: C_9  and  C_10
REMARK                            x       y       z     vdW  Elec       q    Type
REMARK                         _______ _______ _______ _____ _____    ______ ____
ROOT
ATOM      1  C   UNL     1       3.449   6.445  18.158  0.00  0.00    +0.000 A 
ATOM      2  N   UNL     1       2.608   5.568  18.742  0.00  0.00    +0.000 NA
ATOM      3  C   UNL     1       3.101   4.391  19.162  0.00  0.00    +0.000 A 
ATOM      4  N   UNL     1       4.400   4.052  19.005  0.00  0.00    +0.000 NA
ATOM      5  C   UNL     1       5.231   4.927  18.426  0.00  0.00    +0.000 A 
ATOM      6  C   UNL     1       6.561   4.560  18.262  0.00  0.00    +0.000 A 
ATOM      7  C   UNL     1       7.501   5.412  17.678  0.00  0.00    +0.000 A 
ATOM      8  C   UNL     1       7.110   6.673  17.251  0.00  0.00    +0.000 A 
ATOM      9  C   UNL     1       5.780   7.060  17.396  0.00  0.00    +0.000 A 
ATOM     10  C   UNL     1       4.817   6.186  17.978  0.00  0.00    +0.000 A 
ENDROOT
BRANCH   3  11
ATOM     11  C   UNL     1       2.163   3.382  19.846  0.00  0.00    +0.000 C 
ATOM     12 CL   UNL     1       2.907   2.594  21.284  0.00  0.00    +0.000 Cl
ATOM     13 CL   UNL     1       0.665   4.212  20.398  0.00  0.00    +0.000 Cl
ATOM     14 CL   UNL     1       1.713   2.079  18.689  0.00  0.00    +0.000 Cl
ENDBRANCH   3  11
BRANCH   1  15
ATOM     15  S   UNL     1       2.700   7.976  17.583  0.00  0.00    +0.000 S 
BRANCH  15  20
ATOM     16  F   UNL     1      -0.528   9.737  22.214  0.00  0.00    +0.000 F 
ATOM     17  C   UNL     1       0.220   9.349  21.171  0.00  0.00    +0.000 A 
ATOM     18  C   UNL     1       0.091  10.008  19.954  0.00  0.00    +0.000 A 
ATOM     19  C   UNL     1       0.860   9.597  18.863  0.00  0.00    +0.000 A 
ATOM     20  C   UNL     1       1.760   8.531  18.995  0.00  0.00    +0.000 A 
ATOM     21  C   UNL     1       1.877   7.876  20.229  0.00  0.00    +0.000 A 
ATOM     22  C   UNL     1       1.106   8.289  21.320  0.00  0.00    +0.000 A 
ENDBRANCH  15  20
ENDBRANCH   1  15
TORSDOF 3
ENDMDL
MODEL 4
REMARK VINA RESULT:      -7.3      2.664      3.950
REMARK  Name = 
REMARK  3 active torsions:
REMARK  status: ('A' for Active; 'I' for Inactive)
REMARK    1  A    between atoms: C_5  and  S_6
REMARK    2  A    between atoms: S_6  and  C_7
REMARK    3  A    between atoms: C_9  and  C_10
REMARK                            x       y       z     vdW  Elec       q    Type
REMARK                         _______ _______ _______ _____ _____    ______ ____
ROOT
ATOM      1  C   UNL     1       3.464   6.448  18.134  0.00  0.00    +0.000 A 
ATOM      2  N   UNL     1       2.620   5.563  18.700  0.00  0.00    +0.000 NA
ATOM      3  C   UNL     1       3.110   4.379  19.105  0.00  0.00    +0.000 A 
ATOM      4  N   UNL     1       4.410   4.044  18.951  0.00  0.00    +0.000 NA
ATOM      5  C   UNL     1       5.244   4.927  18.391  0.00  0.00    +0.000 A 
ATOM      6  C   UNL     1       6.576   4.562  18.230  0.00  0.00    +0.000 A 
ATOM      7  C   UNL     1       7.519   5.423  17.665  0.00  0.00    +0.000 A 
ATOM      8  C   UNL     1       7.131   6.690  17.255  0.00  0.00    +0.000 A 
ATOM      9  C   UNL     1       5.800   7.076  17.397  0.00  0.00    +0.000 A 
ATOM     10  C   UNL     1       4.834   6.193  17.959  0.00  0.00    +0.000 A 
ENDROOT
BRANCH   3  11
ATOM     11  C   UNL     1       2.167   3.361  19.768  0.00  0.00    +0.000 C 
ATOM     12 CL   UNL     1       0.662   4.112  20.411  0.00  0.00    +0.000 Cl
ATOM     13 CL   UNL     1       1.679   2.107  18.574  0.00  0.00    +0.000 Cl
ATOM     14 CL   UNL     1       3.000   2.558  21.146  0.00  0.00    +0.000 Cl
ENDBRANCH   3  11
BRANCH   1  15
ATOM     15  S   UNL     1       2.719   7.988  17.578  0.00  0.00    +0.000 S 
BRANCH  15  20
ATOM     16  F   UNL     1      -0.535   9.683  22.215  0.00  0.00    +0.000 F 
ATOM     17  C   UNL     1       0.219   9.310  21.171  0.00  0.00    +0.000 A 
ATOM     18  C   UNL     1       0.101   9.990  19.964  0.00  0.00    +0.000 A 
ATOM     19  C   UNL     1       0.876   9.595  18.872  0.00  0.00    +0.000 A 
ATOM     20  C   UNL     1       1.771   8.523  18.992  0.00  0.00    +0.000 A 
ATOM     21  C   UNL     1       1.876   7.846  20.215  0.00  0.00    +0.000 A 
ATOM     22  C   UNL     1       1.098   8.243  21.308  0.00  0.00    +0.000 A 
ENDBRANCH  15  20
ENDBRANCH   1  15
TORSDOF 3
ENDMDL
MODEL 5
REMARK VINA RESULT:      -7.3      2.677      4.100
REMARK  Name = 
REMARK  3 active torsions:
REMARK  status: ('A' for Active; 'I' for Inactive)
REMARK    1  A    between atoms: C_5  and  S_6
REMARK    2  A    between atoms: S_6  and  C_7
REMARK    3  A    between atoms: C_9  and  C_10
REMARK                            x       y       z     vdW  Elec       q    Type
REMARK                         _______ _______ _______ _____ _____    ______ ____
ROOT
ATOM      1  C   UNL     1       3.467   6.479  18.141  0.00  0.00    +0.000 A 
ATOM      2  N   UNL     1       2.609   5.612  18.715  0.00  0.00    +0.000 NA
ATOM      3  C   UNL     1       3.075   4.411  19.100  0.00  0.00    +0.000 A 
ATOM      4  N   UNL     1       4.362   4.041  18.918  0.00  0.00    +0.000 NA
ATOM      5  C   UNL     1       5.209   4.907  18.350  0.00  0.00    +0.000 A 
ATOM      6  C   UNL     1       6.527   4.508  18.161  0.00  0.00    +0.000 A 
ATOM      7  C   UNL     1       7.483   5.348  17.586  0.00  0.00    +0.000 A 
ATOM      8  C   UNL     1       7.123   6.629  17.195  0.00  0.00    +0.000 A 
ATOM      9  C   UNL     1       5.805   7.049  17.366  0.00  0.00    +0.000 A 
ATOM     10  C   UNL     1       4.826   6.188  17.938  0.00  0.00    +0.000 A 
ENDROOT
BRANCH   3  11
ATOM     11  C   UNL     1       2.116   3.412  19.770  0.00  0.00    +0.000 C 
ATOM     12 CL   UNL     1       1.508   2.154  18.635  0.00  0.00    +0.000 Cl
ATOM     13 CL   UNL     1       2.955   2.566  21.118  0.00  0.00    +0.000 Cl
ATOM     14 CL   UNL     1       0.686   4.281  20.430  0.00  0.00    +0.000 Cl
ENDBRANCH   3  11
BRANCH   1  15
ATOM     15  S   UNL     1       2.754   8.044  17.614  0.00  0.00    +0.000 S 
BRANCH  15  20
ATOM     16  F   UNL     1      -0.531   9.698  22.243  0.00  0.00    +0.000 F 
ATOM     17  C   UNL     1       0.198   9.311  21.187  0.00  0.00    +0.000 A 
ATOM     18  C   UNL     1       1.110   8.272  21.329  0.00  0.00    +0.000 A 
ATOM     19  C   UNL     1       1.880   7.876  20.232  0.00  0.00    +0.000 A 
ATOM     20  C   UNL     1       1.730   8.518  18.996  0.00  0.00    +0.000 A 
ATOM     21  C   UNL     1       0.807   9.566  18.870  0.00  0.00    +0.000 A 
ATOM     22  C   UNL     1       0.038   9.961  19.969  0.00  0.00    +0.000 A 
ENDBRANCH  15  20
ENDBRANCH   1  15
TORSDOF 3
ENDMDL
MODEL 6
REMARK VINA RESULT:      -7.3      0.691      1.263
REMARK  Name = 
REMARK  3 active torsions:
REMARK  status: ('A' for Active; 'I' for Inactive)
REMARK    1  A    between atoms: C_5  and  S_6
REMARK    2  A    between atoms: S_6  and  C_7
REMARK    3  A    between atoms: C_9  and  C_10
REMARK                            x       y       z     vdW  Elec       q    Type
REMARK                         _______ _______ _______ _____ _____    ______ ____
ROOT
ATOM      1  C   UNL     1       3.419   6.057  18.245  0.00  0.00    +0.000 A 
ATOM      2  N   UNL     1       4.734   6.306  18.092  0.00  0.00    +0.000 NA
ATOM      3  C   UNL     1       5.615   5.417  18.583  0.00  0.00    +0.000 A 
ATOM      4  N   UNL     1       5.228   4.298  19.234  0.00  0.00    +0.000 NA
ATOM      5  C   UNL     1       3.921   4.055  19.381  0.00  0.00    +0.000 A 
ATOM      6  C   UNL     1       3.539   2.905  20.061  0.00  0.00    +0.000 A 
ATOM      7  C   UNL     1       2.198   2.565  20.253  0.00  0.00    +0.000 A 
ATOM      8  C   UNL     1       1.203   3.388  19.745  0.00  0.00    +0.000 A 
ATOM      9  C   UNL     1       1.561   4.551  19.066  0.00  0.00    +0.000 A 
ATOM     10  C   UNL     1       2.928   4.907  18.884  0.00  0.00    +0.000 A 
ENDROOT
BRANCH   3  11
ATOM     11  C   UNL     1       7.122   5.674  18.406  0.00  0.00    +0.000 C 
ATOM     12 CL   UNL     1       7.478   7.274  17.661  0.00  0.00    +0.000 Cl
ATOM     13 CL   UNL     1       7.946   5.625  20.004  0.00  0.00    +0.000 Cl
ATOM     14 CL   UNL     1       7.840   4.412  17.343  0.00  0.00    +0.000 Cl
ENDBRANCH   3  11
BRANCH   1  15
ATOM     15  S   UNL     1       2.309   7.317  17.600  0.00  0.00    +0.000 S 
BRANCH  15  20
ATOM     16  F   UNL     1       0.474  10.210  22.420  0.00  0.00    +0.000 F 
ATOM     17  C   UNL     1       0.910   9.561  21.331  0.00  0.00    +0.000 A 
ATOM     18  C   UNL     1       0.805  10.167  20.085  0.00  0.00    +0.000 A 
ATOM     19  C   UNL     1       1.246   9.487  18.948  0.00  0.00    +0.000 A 
ATOM     20  C   UNL     1       1.797   8.203  19.062  0.00  0.00    +0.000 A 
ATOM     21  C   UNL     1       1.894   7.605  20.326  0.00  0.00    +0.000 A 
ATOM     22  C   UNL     1       1.450   8.287  21.464  0.00  0.00    +0.000 A 
ENDBRANCH  15  20
ENDBRANCH   1  15
TORSDOF 3
ENDMDL
MODEL 7
REMARK VINA RESULT:      -7.3      2.702      4.099
REMARK  Name = 
REMARK  3 active torsions:
REMARK  status: ('A' for Active; 'I' for Inactive)
REMARK    1  A    between atoms: C_5  and  S_6
REMARK    2  A    between atoms: S_6  and  C_7
REMARK    3  A    between atoms: C_9  and  C_10
REMARK                            x       y       z     vdW  Elec       q    Type
REMARK                         _______ _______ _______ _____ _____    ______ ____
ROOT
ATOM      1  C   UNL     1       3.458   6.448  18.156  0.00  0.00    +0.000 A 
ATOM      2  N   UNL     1       2.617   5.570  18.738  0.00  0.00    +0.000 NA
ATOM      3  C   UNL     1       3.109   4.390  19.153  0.00  0.00    +0.000 A 
ATOM      4  N   UNL     1       4.408   4.051  18.994  0.00  0.00    +0.000 NA
ATOM      5  C   UNL     1       5.239   4.927  18.418  0.00  0.00    +0.000 A 
ATOM      6  C   UNL     1       6.569   4.559  18.252  0.00  0.00    +0.000 A 
ATOM      7  C   UNL     1       7.509   5.413  17.671  0.00  0.00    +0.000 A 
ATOM      8  C   UNL     1       7.120   6.676  17.249  0.00  0.00    +0.000 A 
ATOM      9  C   UNL     1       5.790   7.064  17.396  0.00  0.00    +0.000 A 
ATOM     10  C   UNL     1       4.827   6.189  17.975  0.00  0.00    +0.000 A 
ENDROOT
BRANCH   3  11
ATOM     11  C   UNL     1       2.170   3.380  19.834  0.00  0.00    +0.000 C 
ATOM     12 CL   UNL     1       2.925   2.565  21.252  0.00  0.00    +0.000 Cl
ATOM     13 CL   UNL     1       0.686   4.215  20.416  0.00  0.00    +0.000 Cl
ATOM     14 CL   UNL     1       1.695   2.098  18.665  0.00  0.00    +0.000 Cl
ENDBRANCH   3  11
BRANCH   1  15
ATOM     15  S   UNL     1       2.711   7.982  17.588  0.00  0.00    +0.000 S 
BRANCH  15  20
ATOM     16  F   UNL     1      -0.415   9.802  22.265  0.00  0.00    +0.000 F 
ATOM     17  C   UNL     1       0.276   9.378  21.198  0.00  0.00    +0.000 A 
ATOM     18  C   UNL     1       1.139   8.295  21.328  0.00  0.00    +0.000 A 
ATOM     19  C   UNL     1       1.871   7.861  20.220  0.00  0.00    +0.000 A 
ATOM     20  C   UNL     1       1.733   8.507  18.985  0.00  0.00    +0.000 A 
ATOM     21  C   UNL     1       0.860   9.599  18.871  0.00  0.00    +0.000 A 
ATOM     22  C   UNL     1       0.129  10.033  19.981  0.00  0.00    +0.000 A 
ENDBRANCH  15  20
ENDBRANCH   1  15
TORSDOF 3
ENDMDL
MODEL 8
REMARK VINA RESULT:      -7.3      2.665      4.080
REMARK  Name = 
REMARK  3 active torsions:
REMARK  status: ('A' for Active; 'I' for Inactive)
REMARK    1  A    between atoms: C_5  and  S_6
REMARK    2  A    between atoms: S_6  and  C_7
REMARK    3  A    between atoms: C_9  and  C_10
REMARK                            x       y       z     vdW  Elec       q    Type
REMARK                         _______ _______ _______ _____ _____    ______ ____
ROOT
ATOM      1  C   UNL     1       3.480   6.471  18.136  0.00  0.00    +0.000 A 
ATOM      2  N   UNL     1       2.627   5.594  18.703  0.00  0.00    +0.000 NA
ATOM      3  C   UNL     1       3.104   4.401  19.097  0.00  0.00    +0.000 A 
ATOM      4  N   UNL     1       4.397   4.048  18.931  0.00  0.00    +0.000 NA
ATOM      5  C   UNL     1       5.240   4.923  18.370  0.00  0.00    +0.000 A 
ATOM      6  C   UNL     1       6.565   4.540  18.197  0.00  0.00    +0.000 A 
ATOM      7  C   UNL     1       7.516   5.391  17.630  0.00  0.00    +0.000 A 
ATOM      8  C   UNL     1       7.143   6.666  17.230  0.00  0.00    +0.000 A 
ATOM      9  C   UNL     1       5.818   7.069  17.385  0.00  0.00    +0.000 A 
ATOM     10  C   UNL     1       4.844   6.197  17.949  0.00  0.00    +0.000 A 
ENDROOT
BRANCH   3  11
ATOM     11  C   UNL     1       2.151   3.392  19.761  0.00  0.00    +0.000 C 
ATOM     12 CL   UNL     1       0.658   4.159  20.411  0.00  0.00    +0.000 Cl
ATOM     13 CL   UNL     1       1.644   2.147  18.566  0.00  0.00    +0.000 Cl
ATOM     14 CL   UNL     1       2.980   2.576  21.134  0.00  0.00    +0.000 Cl
ENDBRANCH   3  11
BRANCH   1  15
ATOM     15  S   UNL     1       2.752   8.024  17.594  0.00  0.00    +0.000 S 
BRANCH  15  20
ATOM     16  F   UNL     1      -0.495   9.716  22.237  0.00  0.00    +0.000 F 
ATOM     17  C   UNL     1       0.225   9.321  21.178  0.00  0.00    +0.000 A 
ATOM     18  C   UNL     1       1.107   8.255  21.309  0.00  0.00    +0.000 A 
ATOM     19  C   UNL     1       1.868   7.850  20.209  0.00  0.00    +0.000 A 
ATOM     20  C   UNL     1       1.739   8.511  18.980  0.00  0.00    +0.000 A 
ATOM     21  C   UNL     1       0.845   9.585  18.865  0.00  0.00    +0.000 A 
ATOM     22  C   UNL     1       0.086   9.989  19.967  0.00  0.00    +0.000 A 
ENDBRANCH  15  20
ENDBRANCH   1  15
TORSDOF 3
ENDMDL
MODEL 9
REMARK VINA RESULT:      -7.2      0.704      1.291
REMARK  Name = 
REMARK  3 active torsions:
REMARK  status: ('A' for Active; 'I' for Inactive)
REMARK    1  A    between atoms: C_5  and  S_6
REMARK    2  A    between atoms: S_6  and  C_7
REMARK    3  A    between atoms: C_9  and  C_10
REMARK                            x       y       z     vdW  Elec       q    Type
REMARK                         _______ _______ _______ _____ _____    ______ ____
ROOT
ATOM      1  C   UNL     1       3.342   6.124  18.236  0.00  0.00    +0.000 A 
ATOM      2  N   UNL     1       4.660   6.350  18.070  0.00  0.00    +0.000 NA
ATOM      3  C   UNL     1       5.531   5.448  18.555  0.00  0.00    +0.000 A 
ATOM      4  N   UNL     1       5.131   4.337  19.213  0.00  0.00    +0.000 NA
ATOM      5  C   UNL     1       3.821   4.117  19.373  0.00  0.00    +0.000 A 
ATOM      6  C   UNL     1       3.426   2.976  20.061  0.00  0.00    +0.000 A 
ATOM      7  C   UNL     1       2.081   2.660  20.267  0.00  0.00    +0.000 A 
ATOM      8  C   UNL     1       1.096   3.499  19.766  0.00  0.00    +0.000 A 
ATOM      9  C   UNL     1       1.467   4.654  19.081  0.00  0.00    +0.000 A 
ATOM     10  C   UNL     1       2.838   4.985  18.884  0.00  0.00    +0.000 A 
ENDROOT
BRANCH   3  11
ATOM     11  C   UNL     1       7.039   5.678  18.363  0.00  0.00    +0.000 C 
ATOM     12 CL   UNL     1       7.815   4.420  17.333  0.00  0.00    +0.000 Cl
ATOM     13 CL   UNL     1       7.324   7.271  17.578  0.00  0.00    +0.000 Cl
ATOM     14 CL   UNL     1       7.872   5.659  19.957  0.00  0.00    +0.000 Cl
ENDBRANCH   3  11
BRANCH   1  15
ATOM     15  S   UNL     1       2.248   7.402  17.599  0.00  0.00    +0.000 S 
BRANCH  15  20
ATOM     16  F   UNL     1       0.451  10.288  22.437  0.00  0.00    +0.000 F 
ATOM     17  C   UNL     1       0.878   9.640  21.344  0.00  0.00    +0.000 A 
ATOM     18  C   UNL     1       0.756  10.245  20.098  0.00  0.00    +0.000 A 
ATOM     19  C   UNL     1       1.188   9.567  18.957  0.00  0.00    +0.000 A 
ATOM     20  C   UNL     1       1.747   8.286  19.066  0.00  0.00    +0.000 A 
ATOM     21  C   UNL     1       1.861   7.689  20.330  0.00  0.00    +0.000 A 
ATOM     22  C   UNL     1       1.427   8.370  21.471  0.00  0.00    +0.000 A 
ENDBRANCH  15  20
ENDBRANCH   1  15
TORSDOF 3
ENDMDL
