MODEL 1
REMARK VINA RESULT:      -7.3      0.000      0.000
REMARK  Name = 
REMARK  6 active torsions:
REMARK  status: ('A' for Active; 'I' for Inactive)
REMARK    1  A    between atoms: C_1  and  N_2
REMARK    2  A    between atoms: N_2  and  C_3
REMARK    3  A    between atoms: N_2  and  S_17
REMARK    4  A    between atoms: C_3  and  C_4
REMARK    5  A    between atoms: N_6  and  C_7
REMARK    6  A    between atoms: S_17  and  C_20
REMARK                            x       y       z     vdW  Elec       q    Type
REMARK                         _______ _______ _______ _____ _____    ______ ____
ROOT
ATOM      1  C   UNL     1       4.845   6.974  16.869  0.00  0.00    +0.000 C 
ATOM      2  O   UNL     1       4.328   7.391  15.833  0.00  0.00    +0.000 OA
ATOM      3  N   UNL     1       4.127   6.491  17.941  0.00  0.00    +0.000 N 
ATOM      4  H   UNL     1       4.627   5.992  18.664  0.00  0.00    +0.000 HD
ENDROOT
BRANCH   3   5
ATOM      5  C   UNL     1       2.668   6.302  17.915  0.00  0.00    +0.000 C 
ATOM      6  C   UNL     1       1.873   7.325  18.753  0.00  0.00    +0.000 C 
ATOM      7  C   UNL     1       2.202   7.129  20.230  0.00  0.00    +0.000 C 
ATOM      8  C   UNL     1       1.582   5.816  20.681  0.00  0.00    +0.000 C 
ATOM      9  C   UNL     1       1.850   4.676  19.723  0.00  0.00    +0.000 A 
ATOM     10  C   UNL     1       1.529   3.377  20.144  0.00  0.00    +0.000 A 
ATOM     11  C   UNL     1       1.694   2.293  19.287  0.00  0.00    +0.000 A 
ATOM     12  C   UNL     1       2.175   2.498  17.995  0.00  0.00    +0.000 A 
ATOM     13  C   UNL     1       2.490   3.787  17.557  0.00  0.00    +0.000 A 
ATOM     14  C   UNL     1       2.329   4.894  18.408  0.00  0.00    +0.000 A 
ENDBRANCH   3   5
BRANCH   1  15
ATOM     15  C   UNL     1       6.353   7.048  17.025  0.00  0.00    +0.000 C 
BRANCH  15  17
ATOM     16  C   UNL     1       8.070   6.743  18.804  0.00  0.00    +0.000 C 
ATOM     17  N   UNL     1       6.877   6.177  18.121  0.00  0.00    +0.000 NA
BRANCH  17  18
ATOM     18  S   UNL     1       7.041   4.550  17.655  0.00  0.00    +0.000 S 
ATOM     19  O   UNL     1       8.405   4.145  17.881  0.00  0.00    +0.000 OA
ATOM     20  O   UNL     1       5.938   3.800  18.224  0.00  0.00    +0.000 OA
BRANCH  18  21
ATOM     21  C   UNL     1       6.786   4.465  15.891  0.00  0.00    +0.000 A 
ATOM     22  C   UNL     1       7.524   4.937  14.824  0.00  0.00    +0.000 A 
ATOM     23  C   UNL     1       6.936   4.609  13.568  0.00  0.00    +0.000 A 
ATOM     24  C   UNL     1       5.770   3.892  13.720  0.00  0.00    +0.000 A 
ATOM     25  S   UNL     1       5.394   3.619  15.368  0.00  0.00    +0.000 S 
ENDBRANCH  18  21
ENDBRANCH  17  18
ENDBRANCH  15  17
ENDBRANCH   1  15
TORSDOF 5
ENDMDL
MODEL 2
REMARK VINA RESULT:      -7.1      4.700      7.698
REMARK  Name = 
REMARK  6 active torsions:
REMARK  status: ('A' for Active; 'I' for Inactive)
REMARK    1  A    between atoms: C_1  and  N_2
REMARK    2  A    between atoms: N_2  and  C_3
REMARK    3  A    between atoms: N_2  and  S_17
REMARK    4  A    between atoms: C_3  and  C_4
REMARK    5  A    between atoms: N_6  and  C_7
REMARK    6  A    between atoms: S_17  and  C_20
REMARK                            x       y       z     vdW  Elec       q    Type
REMARK                         _______ _______ _______ _____ _____    ______ ____
ROOT
ATOM      1  C   UNL     1       2.079   8.268  18.638  0.00  0.00    +0.000 C 
ATOM      2  O   UNL     1       1.956   8.279  19.863  0.00  0.00    +0.000 OA
ATOM      3  N   UNL     1       2.910   7.402  17.962  0.00  0.00    +0.000 N 
ATOM      4  H   UNL     1       2.805   7.327  16.958  0.00  0.00    +0.000 HD
ENDROOT
BRANCH   3   5
ATOM      5  C   UNL     1       3.647   6.311  18.618  0.00  0.00    +0.000 C 
ATOM      6  C   UNL     1       5.031   6.012  18.005  0.00  0.00    +0.000 C 
ATOM      7  C   UNL     1       4.849   5.477  16.588  0.00  0.00    +0.000 C 
ATOM      8  C   UNL     1       4.248   4.083  16.684  0.00  0.00    +0.000 C 
ATOM      9  C   UNL     1       3.080   4.008  17.642  0.00  0.00    +0.000 A 
ATOM     10  C   UNL     1       2.305   2.838  17.640  0.00  0.00    +0.000 A 
ATOM     11  C   UNL     1       1.255   2.682  18.539  0.00  0.00    +0.000 A 
ATOM     12  C   UNL     1       0.972   3.691  19.457  0.00  0.00    +0.000 A 
ATOM     13  C   UNL     1       1.740   4.859  19.479  0.00  0.00    +0.000 A 
ATOM     14  C   UNL     1       2.806   5.033  18.579  0.00  0.00    +0.000 A 
ENDBRANCH   3   5
BRANCH   1  15
ATOM     15  C   UNL     1       1.334   9.299  17.811  0.00  0.00    +0.000 C 
BRANCH  15  17
ATOM     16  C   UNL     1      -1.120   9.656  17.577  0.00  0.00    +0.000 C 
ATOM     17  N   UNL     1       0.073   9.775  18.456  0.00  0.00    +0.000 NA
BRANCH  17  18
ATOM     18  S   UNL     1       0.243  11.291  19.207  0.00  0.00    +0.000 S 
ATOM     19  O   UNL     1       1.647  11.597  19.307  0.00  0.00    +0.000 OA
ATOM     20  O   UNL     1      -0.678  12.217  18.576  0.00  0.00    +0.000 OA
BRANCH  18  21
ATOM     21  C   UNL     1      -0.351  11.133  20.882  0.00  0.00    +0.000 A 
ATOM     22  C   UNL     1      -0.252  10.114  21.808  0.00  0.00    +0.000 A 
ATOM     23  C   UNL     1      -0.868  10.445  23.049  0.00  0.00    +0.000 A 
ATOM     24  C   UNL     1      -1.412  11.710  23.030  0.00  0.00    +0.000 A 
ATOM     25  S   UNL     1      -1.176  12.488  21.523  0.00  0.00    +0.000 S 
ENDBRANCH  18  21
ENDBRANCH  17  18
ENDBRANCH  15  17
ENDBRANCH   1  15
TORSDOF 5
ENDMDL
MODEL 3
REMARK VINA RESULT:      -6.8      3.472      5.288
REMARK  Name = 
REMARK  6 active torsions:
REMARK  status: ('A' for Active; 'I' for Inactive)
REMARK    1  A    between atoms: C_1  and  N_2
REMARK    2  A    between atoms: N_2  and  C_3
REMARK    3  A    between atoms: N_2  and  S_17
REMARK    4  A    between atoms: C_3  and  C_4
REMARK    5  A    between atoms: N_6  and  C_7
REMARK    6  A    between atoms: S_17  and  C_20
REMARK                            x       y       z     vdW  Elec       q    Type
REMARK                         _______ _______ _______ _____ _____    ______ ____
ROOT
ATOM      1  C   UNL     1       2.276   7.923  18.405  0.00  0.00    +0.000 C 
ATOM      2  O   UNL     1       3.035   8.146  17.463  0.00  0.00    +0.000 OA
ATOM      3  N   UNL     1       1.344   8.827  18.866  0.00  0.00    +0.000 N 
ATOM      4  H   UNL     1       0.634   8.496  19.507  0.00  0.00    +0.000 HD
ENDROOT
BRANCH   3   5
ATOM      5  C   UNL     1       1.067  10.111  18.202  0.00  0.00    +0.000 C 
ATOM      6  C   UNL     1       1.762  11.329  18.846  0.00  0.00    +0.000 C 
ATOM      7  C   UNL     1       1.190  11.554  20.242  0.00  0.00    +0.000 C 
ATOM      8  C   UNL     1      -0.237  12.058  20.093  0.00  0.00    +0.000 C 
ATOM      9  C   UNL     1      -1.047  11.253  19.101  0.00  0.00    +0.000 A 
ATOM     10  C   UNL     1      -2.431  11.476  19.050  0.00  0.00    +0.000 A 
ATOM     11  C   UNL     1      -3.222  10.813  18.117  0.00  0.00    +0.000 A 
ATOM     12  C   UNL     1      -2.637   9.924  17.218  0.00  0.00    +0.000 A 
ATOM     13  C   UNL     1      -1.258   9.696  17.249  0.00  0.00    +0.000 A 
ATOM     14  C   UNL     1      -0.443  10.359  18.183  0.00  0.00    +0.000 A 
ENDBRANCH   3   5
BRANCH   1  15
ATOM     15  C   UNL     1       2.397   6.612  19.159  0.00  0.00    +0.000 C 
BRANCH  15  17
ATOM     16  C   UNL     1       1.626   4.514  18.061  0.00  0.00    +0.000 C 
ATOM     17  N   UNL     1       2.754   5.456  18.282  0.00  0.00    +0.000 NA
BRANCH  17  18
ATOM     18  S   UNL     1       4.215   4.710  18.728  0.00  0.00    +0.000 S 
ATOM     19  O   UNL     1       4.946   5.610  19.582  0.00  0.00    +0.000 OA
ATOM     20  O   UNL     1       3.923   3.354  19.152  0.00  0.00    +0.000 OA
BRANCH  18  21
ATOM     21  C   UNL     1       5.198   4.521  17.251  0.00  0.00    +0.000 A 
ATOM     22  C   UNL     1       4.900   4.026  15.997  0.00  0.00    +0.000 A 
ATOM     23  C   UNL     1       6.011   4.092  15.108  0.00  0.00    +0.000 A 
ATOM     24  C   UNL     1       7.120   4.641  15.714  0.00  0.00    +0.000 A 
ATOM     25  S   UNL     1       6.815   5.073  17.342  0.00  0.00    +0.000 S 
ENDBRANCH  18  21
ENDBRANCH  17  18
ENDBRANCH  15  17
ENDBRANCH   1  15
TORSDOF 5
ENDMDL
MODEL 4
REMARK VINA RESULT:      -6.8      1.951      3.511
REMARK  Name = 
REMARK  6 active torsions:
REMARK  status: ('A' for Active; 'I' for Inactive)
REMARK    1  A    between atoms: C_1  and  N_2
REMARK    2  A    between atoms: N_2  and  C_3
REMARK    3  A    between atoms: N_2  and  S_17
REMARK    4  A    between atoms: C_3  and  C_4
REMARK    5  A    between atoms: N_6  and  C_7
REMARK    6  A    between atoms: S_17  and  C_20
REMARK                            x       y       z     vdW  Elec       q    Type
REMARK                         _______ _______ _______ _____ _____    ______ ____
ROOT
ATOM      1  C   UNL     1       6.743   4.528  18.489  0.00  0.00    +0.000 C 
ATOM      2  O   UNL     1       7.099   5.186  19.466  0.00  0.00    +0.000 OA
ATOM      3  N   UNL     1       5.742   3.583  18.528  0.00  0.00    +0.000 N 
ATOM      4  H   UNL     1       5.381   3.234  17.649  0.00  0.00    +0.000 HD
ENDROOT
BRANCH   3   5
ATOM      5  C   UNL     1       4.901   3.345  19.711  0.00  0.00    +0.000 C 
ATOM      6  C   UNL     1       4.546   1.864  19.960  0.00  0.00    +0.000 C 
ATOM      7  C   UNL     1       3.660   1.363  18.824  0.00  0.00    +0.000 C 
ATOM      8  C   UNL     1       2.300   2.030  18.956  0.00  0.00    +0.000 C 
ATOM      9  C   UNL     1       2.394   3.521  19.196  0.00  0.00    +0.000 A 
ATOM     10  C   UNL     1       1.215   4.276  19.104  0.00  0.00    +0.000 A 
ATOM     11  C   UNL     1       1.224   5.640  19.373  0.00  0.00    +0.000 A 
ATOM     12  C   UNL     1       2.413   6.266  19.745  0.00  0.00    +0.000 A 
ATOM     13  C   UNL     1       3.595   5.527  19.851  0.00  0.00    +0.000 A 
ATOM     14  C   UNL     1       3.604   4.147  19.584  0.00  0.00    +0.000 A 
ENDBRANCH   3   5
BRANCH   1  15
ATOM     15  C   UNL     1       7.477   4.702  17.172  0.00  0.00    +0.000 C 
BRANCH  15  17
ATOM     16  C   UNL     1       7.137   7.168  17.260  0.00  0.00    +0.000 C 
ATOM     17  N   UNL     1       7.076   5.936  16.431  0.00  0.00    +0.000 NA
BRANCH  17  18
ATOM     18  S   UNL     1       5.628   5.746  15.561  0.00  0.00    +0.000 S 
ATOM     19  O   UNL     1       4.715   4.966  16.357  0.00  0.00    +0.000 OA
ATOM     20  O   UNL     1       5.238   7.042  15.037  0.00  0.00    +0.000 OA
BRANCH  18  21
ATOM     21  C   UNL     1       5.990   4.764  14.116  0.00  0.00    +0.000 A 
ATOM     22  C   UNL     1       5.271   3.788  13.455  0.00  0.00    +0.000 A 
ATOM     23  C   UNL     1       5.958   3.286  12.313  0.00  0.00    +0.000 A 
ATOM     24  C   UNL     1       7.178   3.900  12.138  0.00  0.00    +0.000 A 
ATOM     25  S   UNL     1       7.485   5.075  13.345  0.00  0.00    +0.000 S 
ENDBRANCH  18  21
ENDBRANCH  17  18
ENDBRANCH  15  17
ENDBRANCH   1  15
TORSDOF 5
ENDMDL
MODEL 5
REMARK VINA RESULT:      -6.8      1.862      3.331
REMARK  Name = 
REMARK  6 active torsions:
REMARK  status: ('A' for Active; 'I' for Inactive)
REMARK    1  A    between atoms: C_1  and  N_2
REMARK    2  A    between atoms: N_2  and  C_3
REMARK    3  A    between atoms: N_2  and  S_17
REMARK    4  A    between atoms: C_3  and  C_4
REMARK    5  A    between atoms: N_6  and  C_7
REMARK    6  A    between atoms: S_17  and  C_20
REMARK                            x       y       z     vdW  Elec       q    Type
REMARK                         _______ _______ _______ _____ _____    ______ ____
ROOT
ATOM      1  C   UNL     1       6.756   4.621  18.878  0.00  0.00    +0.000 C 
ATOM      2  O   UNL     1       6.792   5.399  19.831  0.00  0.00    +0.000 OA
ATOM      3  N   UNL     1       5.768   3.679  18.697  0.00  0.00    +0.000 N 
ATOM      4  H   UNL     1       5.705   3.220  17.798  0.00  0.00    +0.000 HD
ENDROOT
BRANCH   3   5
ATOM      5  C   UNL     1       4.577   3.583  19.556  0.00  0.00    +0.000 C 
ATOM      6  C   UNL     1       4.085   2.143  19.812  0.00  0.00    +0.000 C 
ATOM      7  C   UNL     1       3.591   1.540  18.501  0.00  0.00    +0.000 C 
ATOM      8  C   UNL     1       2.298   2.241  18.116  0.00  0.00    +0.000 C 
ATOM      9  C   UNL     1       2.386   3.747  18.231  0.00  0.00    +0.000 A 
ATOM     10  C   UNL     1       1.341   4.509  17.686  0.00  0.00    +0.000 A 
ATOM     11  C   UNL     1       1.333   5.894  17.813  0.00  0.00    +0.000 A 
ATOM     12  C   UNL     1       2.366   6.534  18.494  0.00  0.00    +0.000 A 
ATOM     13  C   UNL     1       3.410   5.790  19.051  0.00  0.00    +0.000 A 
ATOM     14  C   UNL     1       3.434   4.389  18.934  0.00  0.00    +0.000 A 
ENDBRANCH   3   5
BRANCH   1  15
ATOM     15  C   UNL     1       7.888   4.637  17.868  0.00  0.00    +0.000 C 
BRANCH  15  17
ATOM     16  C   UNL     1       7.349   6.848  16.857  0.00  0.00    +0.000 C 
ATOM     17  N   UNL     1       7.559   5.395  16.623  0.00  0.00    +0.000 NA
BRANCH  17  18
ATOM     18  S   UNL     1       6.346   4.652  15.693  0.00  0.00    +0.000 S 
ATOM     19  O   UNL     1       6.303   3.252  16.032  0.00  0.00    +0.000 OA
ATOM     20  O   UNL     1       5.151   5.471  15.765  0.00  0.00    +0.000 OA
BRANCH  18  21
ATOM     21  C   UNL     1       6.849   4.733  13.983  0.00  0.00    +0.000 A 
ATOM     22  C   UNL     1       7.783   5.511  13.328  0.00  0.00    +0.000 A 
ATOM     23  C   UNL     1       7.863   5.210  11.938  0.00  0.00    +0.000 A 
ATOM     24  C   UNL     1       6.989   4.207  11.580  0.00  0.00    +0.000 A 
ATOM     25  S   UNL     1       6.084   3.636  12.916  0.00  0.00    +0.000 S 
ENDBRANCH  18  21
ENDBRANCH  17  18
ENDBRANCH  15  17
ENDBRANCH   1  15
TORSDOF 5
ENDMDL
MODEL 6
REMARK VINA RESULT:      -6.8      4.822      7.355
REMARK  Name = 
REMARK  6 active torsions:
REMARK  status: ('A' for Active; 'I' for Inactive)
REMARK    1  A    between atoms: C_1  and  N_2
REMARK    2  A    between atoms: N_2  and  C_3
REMARK    3  A    between atoms: N_2  and  S_17
REMARK    4  A    between atoms: C_3  and  C_4
REMARK    5  A    between atoms: N_6  and  C_7
REMARK    6  A    between atoms: S_17  and  C_20
REMARK                            x       y       z     vdW  Elec       q    Type
REMARK                         _______ _______ _______ _____ _____    ______ ____
ROOT
ATOM      1  C   UNL     1       1.298   8.269  20.867  0.00  0.00    +0.000 C 
ATOM      2  O   UNL     1       1.837   8.290  21.973  0.00  0.00    +0.000 OA
ATOM      3  N   UNL     1       1.679   7.425  19.848  0.00  0.00    +0.000 N 
ATOM      4  H   UNL     1       1.065   7.333  19.049  0.00  0.00    +0.000 HD
ENDROOT
BRANCH   3   5
ATOM      5  C   UNL     1       2.690   6.367  20.009  0.00  0.00    +0.000 C 
ATOM      6  C   UNL     1       3.969   6.568  19.170  0.00  0.00    +0.000 C 
ATOM      7  C   UNL     1       3.619   6.461  17.689  0.00  0.00    +0.000 C 
ATOM      8  C   UNL     1       3.279   5.010  17.387  0.00  0.00    +0.000 C 
ATOM      9  C   UNL     1       2.333   4.403  18.399  0.00  0.00    +0.000 A 
ATOM     10  C   UNL     1       1.769   3.153  18.102  0.00  0.00    +0.000 A 
ATOM     11  C   UNL     1       0.939   2.514  19.018  0.00  0.00    +0.000 A 
ATOM     12  C   UNL     1       0.670   3.113  20.246  0.00  0.00    +0.000 A 
ATOM     13  C   UNL     1       1.231   4.354  20.563  0.00  0.00    +0.000 A 
ATOM     14  C   UNL     1       2.073   5.014  19.650  0.00  0.00    +0.000 A 
ENDBRANCH   3   5
BRANCH   1  15
ATOM     15  C   UNL     1       0.192   9.263  20.563  0.00  0.00    +0.000 C 
BRANCH  15  17
ATOM     16  C   UNL     1       0.117  11.555  21.535  0.00  0.00    +0.000 C 
ATOM     17  N   UNL     1       0.675  10.674  20.475  0.00  0.00    +0.000 NA
BRANCH  17  18
ATOM     18  S   UNL     1       0.570  11.315  18.903  0.00  0.00    +0.000 S 
ATOM     19  O   UNL     1       0.597  12.752  18.993  0.00  0.00    +0.000 OA
ATOM     20  O   UNL     1       1.512  10.604  18.059  0.00  0.00    +0.000 OA
BRANCH  18  21
ATOM     21  C   UNL     1      -1.035  10.888  18.252  0.00  0.00    +0.000 A 
ATOM     22  C   UNL     1      -1.448   9.904  17.376  0.00  0.00    +0.000 A 
ATOM     23  C   UNL     1      -2.855   9.926  17.157  0.00  0.00    +0.000 A 
ATOM     24  C   UNL     1      -3.470  10.924  17.879  0.00  0.00    +0.000 A 
ATOM     25  S   UNL     1      -2.352  11.824  18.813  0.00  0.00    +0.000 S 
ENDBRANCH  18  21
ENDBRANCH  17  18
ENDBRANCH  15  17
ENDBRANCH   1  15
TORSDOF 5
ENDMDL
MODEL 7
REMARK VINA RESULT:      -6.7      4.898      7.439
REMARK  Name = 
REMARK  6 active torsions:
REMARK  status: ('A' for Active; 'I' for Inactive)
REMARK    1  A    between atoms: C_1  and  N_2
REMARK    2  A    between atoms: N_2  and  C_3
REMARK    3  A    between atoms: N_2  and  S_17
REMARK    4  A    between atoms: C_3  and  C_4
REMARK    5  A    between atoms: N_6  and  C_7
REMARK    6  A    between atoms: S_17  and  C_20
REMARK                            x       y       z     vdW  Elec       q    Type
REMARK                         _______ _______ _______ _____ _____    ______ ____
ROOT
ATOM      1  C   UNL     1       2.033   7.846  19.790  0.00  0.00    +0.000 C 
ATOM      2  O   UNL     1       2.064   7.731  21.015  0.00  0.00    +0.000 OA
ATOM      3  N   UNL     1       2.715   7.018  18.927  0.00  0.00    +0.000 N 
ATOM      4  H   UNL     1       2.482   7.056  17.944  0.00  0.00    +0.000 HD
ENDROOT
BRANCH   3   5
ATOM      5  C   UNL     1       3.456   5.826  19.369  0.00  0.00    +0.000 C 
ATOM      6  C   UNL     1       4.802   5.602  18.647  0.00  0.00    +0.000 C 
ATOM      7  C   UNL     1       4.538   5.296  17.176  0.00  0.00    +0.000 C 
ATOM      8  C   UNL     1       3.909   3.914  17.087  0.00  0.00    +0.000 C 
ATOM      9  C   UNL     1       2.787   3.711  18.081  0.00  0.00    +0.000 A 
ATOM     10  C   UNL     1       1.984   2.569  17.939  0.00  0.00    +0.000 A 
ATOM     11  C   UNL     1       0.975   2.293  18.856  0.00  0.00    +0.000 A 
ATOM     12  C   UNL     1       0.762   3.153  19.932  0.00  0.00    +0.000 A 
ATOM     13  C   UNL     1       1.559   4.290  20.094  0.00  0.00    +0.000 A 
ATOM     14  C   UNL     1       2.584   4.583  19.177  0.00  0.00    +0.000 A 
ENDBRANCH   3   5
BRANCH   1  15
ATOM     15  C   UNL     1       1.258   8.997  19.175  0.00  0.00    +0.000 C 
BRANCH  15  17
ATOM     16  C   UNL     1      -0.343   9.241  21.067  0.00  0.00    +0.000 C 
ATOM     17  N   UNL     1       0.652   9.911  20.189  0.00  0.00    +0.000 NA
BRANCH  17  18
ATOM     18  S   UNL     1       0.121  11.383  19.523  0.00  0.00    +0.000 S 
ATOM     19  O   UNL     1      -0.269  12.257  20.600  0.00  0.00    +0.000 OA
ATOM     20  O   UNL     1       1.090  11.810  18.532  0.00  0.00    +0.000 OA
BRANCH  18  21
ATOM     21  C   UNL     1      -1.364  11.051  18.592  0.00  0.00    +0.000 A 
ATOM     22  C   UNL     1      -1.642  10.153  17.580  0.00  0.00    +0.000 A 
ATOM     23  C   UNL     1      -2.996  10.226  17.144  0.00  0.00    +0.000 A 
ATOM     24  C   UNL     1      -3.708  11.176  17.843  0.00  0.00    +0.000 A 
ATOM     25  S   UNL     1      -2.744  11.968  19.016  0.00  0.00    +0.000 S 
ENDBRANCH  18  21
ENDBRANCH  17  18
ENDBRANCH  15  17
ENDBRANCH   1  15
TORSDOF 5
ENDMDL
MODEL 8
REMARK VINA RESULT:      -6.7      3.213      5.363
REMARK  Name = 
REMARK  6 active torsions:
REMARK  status: ('A' for Active; 'I' for Inactive)
REMARK    1  A    between atoms: C_1  and  N_2
REMARK    2  A    between atoms: N_2  and  C_3
REMARK    3  A    between atoms: N_2  and  S_17
REMARK    4  A    between atoms: C_3  and  C_4
REMARK    5  A    between atoms: N_6  and  C_7
REMARK    6  A    between atoms: S_17  and  C_20
REMARK                            x       y       z     vdW  Elec       q    Type
REMARK                         _______ _______ _______ _____ _____    ______ ____
ROOT
ATOM      1  C   UNL     1       2.016   6.167  20.355  0.00  0.00    +0.000 C 
ATOM      2  O   UNL     1       3.001   6.435  19.666  0.00  0.00    +0.000 OA
ATOM      3  N   UNL     1       1.361   7.090  21.140  0.00  0.00    +0.000 N 
ATOM      4  H   UNL     1       0.455   6.839  21.515  0.00  0.00    +0.000 HD
ENDROOT
BRANCH   3   5
ATOM      5  C   UNL     1       1.687   8.524  21.144  0.00  0.00    +0.000 C 
ATOM      6  C   UNL     1       1.530   9.214  22.516  0.00  0.00    +0.000 C 
ATOM      7  C   UNL     1       0.057   9.213  22.913  0.00  0.00    +0.000 C 
ATOM      8  C   UNL     1      -0.679  10.179  21.998  0.00  0.00    +0.000 C 
ATOM      9  C   UNL     1      -0.324   9.998  20.539  0.00  0.00    +0.000 A 
ATOM     10  C   UNL     1      -1.105  10.669  19.586  0.00  0.00    +0.000 A 
ATOM     11  C   UNL     1      -0.792  10.592  18.232  0.00  0.00    +0.000 A 
ATOM     12  C   UNL     1       0.312   9.850  17.817  0.00  0.00    +0.000 A 
ATOM     13  C   UNL     1       1.106   9.183  18.754  0.00  0.00    +0.000 A 
ATOM     14  C   UNL     1       0.805   9.250  20.126  0.00  0.00    +0.000 A 
ENDBRANCH   3   5
BRANCH   1  15
ATOM     15  C   UNL     1       1.519   4.735  20.409  0.00  0.00    +0.000 C 
BRANCH  15  17
ATOM     16  C   UNL     1       0.682   3.247  18.596  0.00  0.00    +0.000 C 
ATOM     17  N   UNL     1       1.853   3.946  19.186  0.00  0.00    +0.000 NA
BRANCH  17  18
ATOM     18  S   UNL     1       3.229   2.965  19.384  0.00  0.00    +0.000 S 
ATOM     19  O   UNL     1       3.549   2.905  20.787  0.00  0.00    +0.000 OA
ATOM     20  O   UNL     1       3.038   1.752  18.611  0.00  0.00    +0.000 OA
BRANCH  18  21
ATOM     21  C   UNL     1       4.600   3.793  18.597  0.00  0.00    +0.000 A 
ATOM     22  C   UNL     1       5.731   4.400  19.106  0.00  0.00    +0.000 A 
ATOM     23  C   UNL     1       6.577   4.917  18.083  0.00  0.00    +0.000 A 
ATOM     24  C   UNL     1       6.065   4.682  16.827  0.00  0.00    +0.000 A 
ATOM     25  S   UNL     1       4.574   3.842  16.887  0.00  0.00    +0.000 S 
ENDBRANCH  18  21
ENDBRANCH  17  18
ENDBRANCH  15  17
ENDBRANCH   1  15
TORSDOF 5
ENDMDL
MODEL 9
REMARK VINA RESULT:      -6.6      5.207      8.041
REMARK  Name = 
REMARK  6 active torsions:
REMARK  status: ('A' for Active; 'I' for Inactive)
REMARK    1  A    between atoms: C_1  and  N_2
REMARK    2  A    between atoms: N_2  and  C_3
REMARK    3  A    between atoms: N_2  and  S_17
REMARK    4  A    between atoms: C_3  and  C_4
REMARK    5  A    between atoms: N_6  and  C_7
REMARK    6  A    between atoms: S_17  and  C_20
REMARK                            x       y       z     vdW  Elec       q    Type
REMARK                         _______ _______ _______ _____ _____    ______ ____
ROOT
ATOM      1  C   UNL     1       1.954   8.014  19.606  0.00  0.00    +0.000 C 
ATOM      2  O   UNL     1       1.848   7.885  20.826  0.00  0.00    +0.000 OA
ATOM      3  N   UNL     1       2.733   7.198  18.817  0.00  0.00    +0.000 N 
ATOM      4  H   UNL     1       2.611   7.246  17.813  0.00  0.00    +0.000 HD
ENDROOT
BRANCH   3   5
ATOM      5  C   UNL     1       3.427   6.004  19.326  0.00  0.00    +0.000 C 
ATOM      6  C   UNL     1       4.763   5.688  18.621  0.00  0.00    +0.000 C 
ATOM      7  C   UNL     1       4.489   5.311  17.169  0.00  0.00    +0.000 C 
ATOM      8  C   UNL     1       3.806   3.953  17.154  0.00  0.00    +0.000 C 
ATOM      9  C   UNL     1       2.675   3.849  18.154  0.00  0.00    +0.000 A 
ATOM     10  C   UNL     1       1.828   2.733  18.073  0.00  0.00    +0.000 A 
ATOM     11  C   UNL     1       0.808   2.549  19.001  0.00  0.00    +0.000 A 
ATOM     12  C   UNL     1       0.628   3.474  20.027  0.00  0.00    +0.000 A 
ATOM     13  C   UNL     1       1.469   4.586  20.128  0.00  0.00    +0.000 A 
ATOM     14  C   UNL     1       2.506   4.788  19.200  0.00  0.00    +0.000 A 
ENDBRANCH   3   5
BRANCH   1  15
ATOM     15  C   UNL     1       1.248   9.168  18.920  0.00  0.00    +0.000 C 
BRANCH  15  17
ATOM     16  C   UNL     1      -1.110   9.961  19.056  0.00  0.00    +0.000 C 
ATOM     17  N   UNL     1       0.187   9.798  19.764  0.00  0.00    +0.000 NA
BRANCH  17  18
ATOM     18  S   UNL     1       0.724  11.193  20.574  0.00  0.00    +0.000 S 
ATOM     19  O   UNL     1       1.289  10.798  21.839  0.00  0.00    +0.000 OA
ATOM     20  O   UNL     1       1.485  11.999  19.638  0.00  0.00    +0.000 OA
BRANCH  18  21
ATOM     21  C   UNL     1      -0.711  12.180  20.959  0.00  0.00    +0.000 A 
ATOM     22  C   UNL     1      -1.678  12.067  21.938  0.00  0.00    +0.000 A 
ATOM     23  C   UNL     1      -2.639  13.117  21.877  0.00  0.00    +0.000 A 
ATOM     24  C   UNL     1      -2.370  13.999  20.855  0.00  0.00    +0.000 A 
ATOM     25  S   UNL     1      -0.965  13.560  19.980  0.00  0.00    +0.000 S 
ENDBRANCH  18  21
ENDBRANCH  17  18
ENDBRANCH  15  17
ENDBRANCH   1  15
TORSDOF 5
ENDMDL
