MODEL 1
REMARK VINA RESULT:      -9.2      0.000      0.000
REMARK  Name = 
REMARK  7 active torsions:
REMARK  status: ('A' for Active; 'I' for Inactive)
REMARK    1  A    between atoms: C_1  and  O_2
REMARK    2  A    between atoms: O_2  and  C_3
REMARK    3  A    between atoms: C_11  and  C_12
REMARK    4  A    between atoms: C_12  and  C_14
REMARK    5  A    between atoms: N_22  and  C_23
REMARK    6  A    between atoms: C_23  and  C_24
REMARK    7  A    between atoms: N_26  and  C_27
REMARK                            x       y       z     vdW  Elec       q    Type
REMARK                         _______ _______ _______ _____ _____    ______ ____
ROOT
ATOM      1  C   UNL     1       5.822   4.128  14.175  0.00  0.00    +0.000 A 
ATOM      2  C   UNL     1       7.126   4.394  14.582  0.00  0.00    +0.000 A 
ATOM      3  C   UNL     1       7.392   4.857  15.885  0.00  0.00    +0.000 A 
ATOM      4  C   UNL     1       6.362   5.064  16.816  0.00  0.00    +0.000 A 
ATOM      5  C   UNL     1       5.054   4.766  16.382  0.00  0.00    +0.000 A 
ATOM      6  C   UNL     1       4.786   4.321  15.081  0.00  0.00    +0.000 A 
ATOM      7  C   UNL     1       3.914   4.905  17.316  0.00  0.00    +0.000 A 
ATOM      8  O   UNL     1       2.788   4.565  16.970  0.00  0.00    +0.000 OA
ATOM      9  C   UNL     1       4.188   5.441  18.669  0.00  0.00    +0.000 A 
ATOM     10  C   UNL     1       5.471   5.681  18.971  0.00  0.00    +0.000 A 
ATOM     11  N   UNL     1       6.575   5.520  18.139  0.00  0.00    +0.000 N 
ENDROOT
BRANCH   1  13
ATOM     12  C   UNL     1       6.437   3.197  12.073  0.00  0.00    +0.000 C 
ATOM     13  O   UNL     1       5.427   3.675  12.950  0.00  0.00    +0.000 OA
ENDBRANCH   1  13
BRANCH   9  14
ATOM     14  C   UNL     1       3.153   5.711  19.706  0.00  0.00    +0.000 C 
ATOM     15  O   UNL     1       2.903   4.884  20.581  0.00  0.00    +0.000 OA
BRANCH  14  16
ATOM     16  C   UNL     1       2.417   7.002  19.695  0.00  0.00    +0.000 A 
ATOM     17  C   UNL     1       1.741   7.403  20.856  0.00  0.00    +0.000 A 
ATOM     18  C   UNL     1       0.986   8.580  20.858  0.00  0.00    +0.000 A 
ATOM     19  C   UNL     1       0.918   9.361  19.705  0.00  0.00    +0.000 A 
ATOM     20 CL   UNL     1      -0.055  10.780  19.687  0.00  0.00    +0.000 Cl
ATOM     21  C   UNL     1       1.627   8.997  18.563  0.00  0.00    +0.000 A 
ATOM     22  C   UNL     1       2.394   7.829  18.562  0.00  0.00    +0.000 A 
ENDBRANCH  14  16
ENDBRANCH   9  14
BRANCH  11  23
ATOM     23  C   UNL     1       7.872   6.143  18.496  0.00  0.00    +0.000 C 
BRANCH  23  24
ATOM     24  C   UNL     1       7.943   7.643  18.233  0.00  0.00    +0.000 C 
ATOM     25  O   UNL     1       7.308   8.127  17.292  0.00  0.00    +0.000 OA
ATOM     26  N   UNL     1       8.734   8.374  19.105  0.00  0.00    +0.000 N 
ATOM     27  H   UNL     1       9.485   7.846  19.539  0.00  0.00    +0.000 HD
BRANCH  26  28
ATOM     28  C   UNL     1       8.894   9.765  18.957  0.00  0.00    +0.000 A 
ATOM     29  C   UNL     1       8.440  10.431  17.810  0.00  0.00    +0.000 A 
ATOM     30  C   UNL     1       8.715  11.787  17.629  0.00  0.00    +0.000 A 
ATOM     31  C   UNL     1       9.458  12.462  18.589  0.00  0.00    +0.000 A 
ATOM     32  F   UNL     1       9.786  13.745  18.387  0.00  0.00    +0.000 F 
ATOM     33  C   UNL     1       9.877  11.821  19.751  0.00  0.00    +0.000 A 
ATOM     34  C   UNL     1       9.564  10.475  19.955  0.00  0.00    +0.000 A 
ENDBRANCH  26  28
ENDBRANCH  23  24
ENDBRANCH  11  23
TORSDOF 6
ENDMDL
MODEL 2
REMARK VINA RESULT:      -8.1      5.653      9.360
REMARK  Name = 
REMARK  7 active torsions:
REMARK  status: ('A' for Active; 'I' for Inactive)
REMARK    1  A    between atoms: C_1  and  O_2
REMARK    2  A    between atoms: O_2  and  C_3
REMARK    3  A    between atoms: C_11  and  C_12
REMARK    4  A    between atoms: C_12  and  C_14
REMARK    5  A    between atoms: N_22  and  C_23
REMARK    6  A    between atoms: C_23  and  C_24
REMARK    7  A    between atoms: N_26  and  C_27
REMARK                            x       y       z     vdW  Elec       q    Type
REMARK                         _______ _______ _______ _____ _____    ______ ____
ROOT
ATOM      1  C   UNL     1      -3.240  10.879  17.693  0.00  0.00    +0.000 A 
ATOM      2  C   UNL     1      -2.448   9.826  17.244  0.00  0.00    +0.000 A 
ATOM      3  C   UNL     1      -1.088   9.747  17.601  0.00  0.00    +0.000 A 
ATOM      4  C   UNL     1      -0.485  10.715  18.419  0.00  0.00    +0.000 A 
ATOM      5  C   UNL     1      -1.317  11.758  18.876  0.00  0.00    +0.000 A 
ATOM      6  C   UNL     1      -2.666  11.848  18.508  0.00  0.00    +0.000 A 
ATOM      7  C   UNL     1      -0.776  12.793  19.786  0.00  0.00    +0.000 A 
ATOM      8  O   UNL     1      -1.516  13.651  20.254  0.00  0.00    +0.000 OA
ATOM      9  C   UNL     1       0.666  12.737  20.118  0.00  0.00    +0.000 A 
ATOM     10  C   UNL     1       1.355  11.695  19.632  0.00  0.00    +0.000 A 
ATOM     11  N   UNL     1       0.874  10.678  18.813  0.00  0.00    +0.000 N 
ENDROOT
BRANCH   1  13
ATOM     12  C   UNL     1      -5.446  11.179  18.535  0.00  0.00    +0.000 C 
ATOM     13  O   UNL     1      -4.564  11.075  17.426  0.00  0.00    +0.000 OA
ENDBRANCH   1  13
BRANCH   9  14
ATOM     14  C   UNL     1       1.388  13.734  20.958  0.00  0.00    +0.000 C 
ATOM     15  O   UNL     1       1.070  13.922  22.131  0.00  0.00    +0.000 OA
BRANCH  14  16
ATOM     16  C   UNL     1       2.516  14.508  20.378  0.00  0.00    +0.000 A 
ATOM     17  C   UNL     1       3.737  14.537  21.066  0.00  0.00    +0.000 A 
ATOM     18  C   UNL     1       4.799  15.307  20.580  0.00  0.00    +0.000 A 
ATOM     19  C   UNL     1       4.642  16.037  19.403  0.00  0.00    +0.000 A 
ATOM     20 CL   UNL     1       5.926  17.031  18.833  0.00  0.00    +0.000 Cl
ATOM     21  C   UNL     1       3.449  15.975  18.686  0.00  0.00    +0.000 A 
ATOM     22  C   UNL     1       2.392  15.194  19.161  0.00  0.00    +0.000 A 
ENDBRANCH  14  16
ENDBRANCH   9  14
BRANCH  11  23
ATOM     23  C   UNL     1       1.821   9.798  18.088  0.00  0.00    +0.000 C 
BRANCH  23  24
ATOM     24  C   UNL     1       1.972   8.405  18.689  0.00  0.00    +0.000 C 
ATOM     25  O   UNL     1       1.672   8.216  19.871  0.00  0.00    +0.000 OA
ATOM     26  N   UNL     1       2.443   7.423  17.832  0.00  0.00    +0.000 N 
ATOM     27  H   UNL     1       3.015   7.768  17.068  0.00  0.00    +0.000 HD
BRANCH  26  28
ATOM     28  C   UNL     1       2.642   6.101  18.272  0.00  0.00    +0.000 A 
ATOM     29  C   UNL     1       1.746   5.078  17.929  0.00  0.00    +0.000 A 
ATOM     30  C   UNL     1       1.895   3.802  18.473  0.00  0.00    +0.000 A 
ATOM     31  C   UNL     1       2.928   3.563  19.369  0.00  0.00    +0.000 A 
ATOM     32  F   UNL     1       3.033   2.360  19.950  0.00  0.00    +0.000 F 
ATOM     33  C   UNL     1       3.848   4.559  19.683  0.00  0.00    +0.000 A 
ATOM     34  C   UNL     1       3.727   5.825  19.105  0.00  0.00    +0.000 A 
ENDBRANCH  26  28
ENDBRANCH  23  24
ENDBRANCH  11  23
TORSDOF 6
ENDMDL
MODEL 3
REMARK VINA RESULT:      -7.9      5.514      9.082
REMARK  Name = 
REMARK  7 active torsions:
REMARK  status: ('A' for Active; 'I' for Inactive)
REMARK    1  A    between atoms: C_1  and  O_2
REMARK    2  A    between atoms: O_2  and  C_3
REMARK    3  A    between atoms: C_11  and  C_12
REMARK    4  A    between atoms: C_12  and  C_14
REMARK    5  A    between atoms: N_22  and  C_23
REMARK    6  A    between atoms: C_23  and  C_24
REMARK    7  A    between atoms: N_26  and  C_27
REMARK                            x       y       z     vdW  Elec       q    Type
REMARK                         _______ _______ _______ _____ _____    ______ ____
ROOT
ATOM      1  C   UNL     1       3.214  14.367  19.250  0.00  0.00    +0.000 A 
ATOM      2  C   UNL     1       3.119  13.512  18.155  0.00  0.00    +0.000 A 
ATOM      3  C   UNL     1       2.188  12.456  18.146  0.00  0.00    +0.000 A 
ATOM      4  C   UNL     1       1.325  12.227  19.229  0.00  0.00    +0.000 A 
ATOM      5  C   UNL     1       1.429  13.121  20.315  0.00  0.00    +0.000 A 
ATOM      6  C   UNL     1       2.367  14.163  20.333  0.00  0.00    +0.000 A 
ATOM      7  C   UNL     1       0.521  12.985  21.477  0.00  0.00    +0.000 A 
ATOM      8  O   UNL     1       0.550  13.811  22.382  0.00  0.00    +0.000 OA
ATOM      9  C   UNL     1      -0.421  11.843  21.488  0.00  0.00    +0.000 A 
ATOM     10  C   UNL     1      -0.436  11.065  20.398  0.00  0.00    +0.000 A 
ATOM     11  N   UNL     1       0.367  11.186  19.268  0.00  0.00    +0.000 N 
ENDROOT
BRANCH   1  13
ATOM     12  C   UNL     1       5.111  15.302  20.341  0.00  0.00    +0.000 C 
ATOM     13  O   UNL     1       4.065  15.424  19.387  0.00  0.00    +0.000 OA
ENDBRANCH   1  13
BRANCH   9  14
ATOM     14  C   UNL     1      -1.352  11.517  22.605  0.00  0.00    +0.000 C 
ATOM     15  O   UNL     1      -1.061  10.666  23.444  0.00  0.00    +0.000 OA
BRANCH  14  16
ATOM     16  C   UNL     1      -2.648  12.236  22.719  0.00  0.00    +0.000 A 
ATOM     17  C   UNL     1      -3.320  12.222  23.949  0.00  0.00    +0.000 A 
ATOM     18  C   UNL     1      -4.571  12.835  24.072  0.00  0.00    +0.000 A 
ATOM     19  C   UNL     1      -5.142  13.470  22.971  0.00  0.00    +0.000 A 
ATOM     20 CL   UNL     1      -6.706  14.176  23.103  0.00  0.00    +0.000 Cl
ATOM     21  C   UNL     1      -4.459  13.532  21.758  0.00  0.00    +0.000 A 
ATOM     22  C   UNL     1      -3.202  12.934  21.636  0.00  0.00    +0.000 A 
ENDBRANCH  14  16
ENDBRANCH   9  14
BRANCH  11  23
ATOM     23  C   UNL     1       0.471  10.062  18.306  0.00  0.00    +0.000 C 
BRANCH  23  24
ATOM     24  C   UNL     1       1.423   8.953  18.737  0.00  0.00    +0.000 C 
ATOM     25  O   UNL     1       1.672   8.794  19.936  0.00  0.00    +0.000 OA
ATOM     26  N   UNL     1       1.949   8.175  17.718  0.00  0.00    +0.000 N 
ATOM     27  H   UNL     1       2.002   8.639  16.816  0.00  0.00    +0.000 HD
BRANCH  26  28
ATOM     28  C   UNL     1       2.853   7.130  17.985  0.00  0.00    +0.000 A 
ATOM     29  C   UNL     1       4.204   7.226  17.621  0.00  0.00    +0.000 A 
ATOM     30  C   UNL     1       5.056   6.134  17.785  0.00  0.00    +0.000 A 
ATOM     31  C   UNL     1       4.546   4.948  18.296  0.00  0.00    +0.000 A 
ATOM     32  F   UNL     1       5.342   3.874  18.390  0.00  0.00    +0.000 F 
ATOM     33  C   UNL     1       3.218   4.854  18.701  0.00  0.00    +0.000 A 
ATOM     34  C   UNL     1       2.374   5.961  18.578  0.00  0.00    +0.000 A 
ENDBRANCH  26  28
ENDBRANCH  23  24
ENDBRANCH  11  23
TORSDOF 6
ENDMDL
MODEL 4
REMARK VINA RESULT:      -7.9      6.416      9.820
REMARK  Name = 
REMARK  7 active torsions:
REMARK  status: ('A' for Active; 'I' for Inactive)
REMARK    1  A    between atoms: C_1  and  O_2
REMARK    2  A    between atoms: O_2  and  C_3
REMARK    3  A    between atoms: C_11  and  C_12
REMARK    4  A    between atoms: C_12  and  C_14
REMARK    5  A    between atoms: N_22  and  C_23
REMARK    6  A    between atoms: C_23  and  C_24
REMARK    7  A    between atoms: N_26  and  C_27
REMARK                            x       y       z     vdW  Elec       q    Type
REMARK                         _______ _______ _______ _____ _____    ______ ____
ROOT
ATOM      1  C   UNL     1      -1.881  10.799  17.185  0.00  0.00    +0.000 A 
ATOM      2  C   UNL     1      -0.892   9.844  17.408  0.00  0.00    +0.000 A 
ATOM      3  C   UNL     1      -0.284   9.720  18.672  0.00  0.00    +0.000 A 
ATOM      4  C   UNL     1      -0.650  10.544  19.747  0.00  0.00    +0.000 A 
ATOM      5  C   UNL     1      -1.669  11.488  19.498  0.00  0.00    +0.000 A 
ATOM      6  C   UNL     1      -2.263  11.623  18.236  0.00  0.00    +0.000 A 
ATOM      7  C   UNL     1      -2.154  12.361  20.591  0.00  0.00    +0.000 A 
ATOM      8  O   UNL     1      -3.097  13.120  20.401  0.00  0.00    +0.000 OA
ATOM      9  C   UNL     1      -1.478  12.265  21.905  0.00  0.00    +0.000 A 
ATOM     10  C   UNL     1      -0.530  11.327  22.026  0.00  0.00    +0.000 A 
ATOM     11  N   UNL     1      -0.078  10.456  21.039  0.00  0.00    +0.000 N 
ENDROOT
BRANCH   1  13
ATOM     12  C   UNL     1      -3.950  11.243  16.097  0.00  0.00    +0.000 C 
ATOM     13  O   UNL     1      -2.549  11.023  16.017  0.00  0.00    +0.000 OA
ENDBRANCH   1  13
BRANCH   9  14
ATOM     14  C   UNL     1      -1.790  13.115  23.088  0.00  0.00    +0.000 C 
ATOM     15  O   UNL     1      -0.892  13.631  23.752  0.00  0.00    +0.000 OA
BRANCH  14  16
ATOM     16  C   UNL     1      -3.206  13.356  23.471  0.00  0.00    +0.000 A 
ATOM     17  C   UNL     1      -3.929  12.314  24.067  0.00  0.00    +0.000 A 
ATOM     18  C   UNL     1      -5.281  12.488  24.381  0.00  0.00    +0.000 A 
ATOM     19  C   UNL     1      -5.904  13.705  24.109  0.00  0.00    +0.000 A 
ATOM     20 CL   UNL     1      -7.580  13.904  24.441  0.00  0.00    +0.000 Cl
ATOM     21  C   UNL     1      -5.179  14.763  23.563  0.00  0.00    +0.000 A 
ATOM     22  C   UNL     1      -3.825  14.597  23.263  0.00  0.00    +0.000 A 
ENDBRANCH  14  16
ENDBRANCH   9  14
BRANCH  11  23
ATOM     23  C   UNL     1       1.196   9.719  21.224  0.00  0.00    +0.000 C 
BRANCH  23  24
ATOM     24  C   UNL     1       1.092   8.216  20.995  0.00  0.00    +0.000 C 
ATOM     25  O   UNL     1       0.133   7.594  21.460  0.00  0.00    +0.000 OA
ATOM     26  N   UNL     1       2.111   7.644  20.251  0.00  0.00    +0.000 N 
ATOM     27  H   UNL     1       2.994   8.146  20.288  0.00  0.00    +0.000 HD
BRANCH  26  28
ATOM     28  C   UNL     1       2.138   6.262  19.985  0.00  0.00    +0.000 A 
ATOM     29  C   UNL     1       2.140   5.775  18.670  0.00  0.00    +0.000 A 
ATOM     30  C   UNL     1       2.046   4.404  18.429  0.00  0.00    +0.000 A 
ATOM     31  C   UNL     1       1.932   3.533  19.504  0.00  0.00    +0.000 A 
ATOM     32  F   UNL     1       1.769   2.223  19.277  0.00  0.00    +0.000 F 
ATOM     33  C   UNL     1       1.972   4.002  20.814  0.00  0.00    +0.000 A 
ATOM     34  C   UNL     1       2.112   5.370  21.058  0.00  0.00    +0.000 A 
ENDBRANCH  26  28
ENDBRANCH  23  24
ENDBRANCH  11  23
TORSDOF 6
ENDMDL
MODEL 5
REMARK VINA RESULT:      -7.7      5.693      9.384
REMARK  Name = 
REMARK  7 active torsions:
REMARK  status: ('A' for Active; 'I' for Inactive)
REMARK    1  A    between atoms: C_1  and  O_2
REMARK    2  A    between atoms: O_2  and  C_3
REMARK    3  A    between atoms: C_11  and  C_12
REMARK    4  A    between atoms: C_12  and  C_14
REMARK    5  A    between atoms: N_22  and  C_23
REMARK    6  A    between atoms: C_23  and  C_24
REMARK    7  A    between atoms: N_26  and  C_27
REMARK                            x       y       z     vdW  Elec       q    Type
REMARK                         _______ _______ _______ _____ _____    ______ ____
ROOT
ATOM      1  C   UNL     1      -4.039  11.041  18.091  0.00  0.00    +0.000 A 
ATOM      2  C   UNL     1      -3.319  10.005  17.502  0.00  0.00    +0.000 A 
ATOM      3  C   UNL     1      -1.932   9.880  17.716  0.00  0.00    +0.000 A 
ATOM      4  C   UNL     1      -1.230  10.786  18.526  0.00  0.00    +0.000 A 
ATOM      5  C   UNL     1      -1.988  11.813  19.125  0.00  0.00    +0.000 A 
ATOM      6  C   UNL     1      -3.365  11.947  18.900  0.00  0.00    +0.000 A 
ATOM      7  C   UNL     1      -1.337  12.780  20.037  0.00  0.00    +0.000 A 
ATOM      8  O   UNL     1      -2.007  13.619  20.628  0.00  0.00    +0.000 OA
ATOM      9  C   UNL     1       0.130  12.679  20.220  0.00  0.00    +0.000 A 
ATOM     10  C   UNL     1       0.743  11.659  19.606  0.00  0.00    +0.000 A 
ATOM     11  N   UNL     1       0.160  10.702  18.780  0.00  0.00    +0.000 N 
ENDROOT
BRANCH   1  13
ATOM     12  C   UNL     1      -5.779  12.373  17.163  0.00  0.00    +0.000 C 
ATOM     13  O   UNL     1      -5.377  11.275  17.970  0.00  0.00    +0.000 OA
ENDBRANCH   1  13
BRANCH   9  14
ATOM     14  C   UNL     1       0.953  13.610  21.041  0.00  0.00    +0.000 C 
ATOM     15  O   UNL     1       0.750  13.739  22.248  0.00  0.00    +0.000 OA
BRANCH  14  16
ATOM     16  C   UNL     1       2.045  14.390  20.401  0.00  0.00    +0.000 A 
ATOM     17  C   UNL     1       3.341  14.288  20.925  0.00  0.00    +0.000 A 
ATOM     18  C   UNL     1       4.378  15.057  20.386  0.00  0.00    +0.000 A 
ATOM     19  C   UNL     1       4.120  15.916  19.319  0.00  0.00    +0.000 A 
ATOM     20 CL   UNL     1       5.380  16.905  18.690  0.00  0.00    +0.000 Cl
ATOM     21  C   UNL     1       2.846  15.985  18.760  0.00  0.00    +0.000 A 
ATOM     22  C   UNL     1       1.812  15.207  19.286  0.00  0.00    +0.000 A 
ENDBRANCH  14  16
ENDBRANCH   9  14
BRANCH  11  23
ATOM     23  C   UNL     1       1.011   9.853  17.911  0.00  0.00    +0.000 C 
BRANCH  23  24
ATOM     24  C   UNL     1       1.694   8.699  18.636  0.00  0.00    +0.000 C 
ATOM     25  O   UNL     1       1.665   8.650  19.868  0.00  0.00    +0.000 OA
ATOM     26  N   UNL     1       2.311   7.756  17.828  0.00  0.00    +0.000 N 
ATOM     27  H   UNL     1       2.611   8.107  16.923  0.00  0.00    +0.000 HD
BRANCH  26  28
ATOM     28  C   UNL     1       2.991   6.653  18.377  0.00  0.00    +0.000 A 
ATOM     29  C   UNL     1       4.353   6.439  18.123  0.00  0.00    +0.000 A 
ATOM     30  C   UNL     1       4.978   5.277  18.576  0.00  0.00    +0.000 A 
ATOM     31  C   UNL     1       4.232   4.330  19.266  0.00  0.00    +0.000 A 
ATOM     32  F   UNL     1       4.810   3.181  19.641  0.00  0.00    +0.000 F 
ATOM     33  C   UNL     1       2.890   4.552  19.561  0.00  0.00    +0.000 A 
ATOM     34  C   UNL     1       2.273   5.735  19.146  0.00  0.00    +0.000 A 
ENDBRANCH  26  28
ENDBRANCH  23  24
ENDBRANCH  11  23
TORSDOF 6
ENDMDL
MODEL 6
REMARK VINA RESULT:      -7.7      6.778     10.460
REMARK  Name = 
REMARK  7 active torsions:
REMARK  status: ('A' for Active; 'I' for Inactive)
REMARK    1  A    between atoms: C_1  and  O_2
REMARK    2  A    between atoms: O_2  and  C_3
REMARK    3  A    between atoms: C_11  and  C_12
REMARK    4  A    between atoms: C_12  and  C_14
REMARK    5  A    between atoms: N_22  and  C_23
REMARK    6  A    between atoms: C_23  and  C_24
REMARK    7  A    between atoms: N_26  and  C_27
REMARK                            x       y       z     vdW  Elec       q    Type
REMARK                         _______ _______ _______ _____ _____    ______ ____
ROOT
ATOM      1  C   UNL     1       0.956  13.637  19.328  0.00  0.00    +0.000 A 
ATOM      2  C   UNL     1       1.569  12.400  19.513  0.00  0.00    +0.000 A 
ATOM      3  C   UNL     1       1.091  11.499  20.483  0.00  0.00    +0.000 A 
ATOM      4  C   UNL     1      -0.014  11.807  21.292  0.00  0.00    +0.000 A 
ATOM      5  C   UNL     1      -0.627  13.058  21.068  0.00  0.00    +0.000 A 
ATOM      6  C   UNL     1      -0.142  13.963  20.114  0.00  0.00    +0.000 A 
ATOM      7  C   UNL     1      -1.831  13.442  21.839  0.00  0.00    +0.000 A 
ATOM      8  O   UNL     1      -2.417  14.488  21.587  0.00  0.00    +0.000 OA
ATOM      9  C   UNL     1      -2.301  12.515  22.894  0.00  0.00    +0.000 A 
ATOM     10  C   UNL     1      -1.645  11.353  23.011  0.00  0.00    +0.000 A 
ATOM     11  N   UNL     1      -0.540  10.935  22.274  0.00  0.00    +0.000 N 
ENDROOT
BRANCH   1  13
ATOM     12  C   UNL     1       2.652  15.071  18.474  0.00  0.00    +0.000 C 
ATOM     13  O   UNL     1       1.314  14.597  18.428  0.00  0.00    +0.000 OA
ENDBRANCH   1  13
BRANCH   9  14
ATOM     14  C   UNL     1      -3.448  12.775  23.809  0.00  0.00    +0.000 C 
ATOM     15  O   UNL     1      -4.167  11.857  24.201  0.00  0.00    +0.000 OA
BRANCH  14  16
ATOM     16  C   UNL     1      -3.727  14.162  24.266  0.00  0.00    +0.000 A 
ATOM     17  C   UNL     1      -4.963  14.741  23.947  0.00  0.00    +0.000 A 
ATOM     18  C   UNL     1      -5.232  16.066  24.307  0.00  0.00    +0.000 A 
ATOM     19  C   UNL     1      -4.270  16.804  24.996  0.00  0.00    +0.000 A 
ATOM     20 CL   UNL     1      -4.575  18.451  25.391  0.00  0.00    +0.000 Cl
ATOM     21  C   UNL     1      -3.059  16.220  25.361  0.00  0.00    +0.000 A 
ATOM     22  C   UNL     1      -2.794  14.893  25.016  0.00  0.00    +0.000 A 
ENDBRANCH  14  16
ENDBRANCH   9  14
BRANCH  11  23
ATOM     23  C   UNL     1       0.275   9.789  22.744  0.00  0.00    +0.000 C 
BRANCH  23  24
ATOM     24  C   UNL     1       0.340   8.621  21.767  0.00  0.00    +0.000 C 
ATOM     25  O   UNL     1      -0.699   8.044  21.437  0.00  0.00    +0.000 OA
ATOM     26  N   UNL     1       1.603   8.291  21.301  0.00  0.00    +0.000 N 
ATOM     27  H   UNL     1       2.363   8.541  21.926  0.00  0.00    +0.000 HD
BRANCH  26  28
ATOM     28  C   UNL     1       1.797   7.221  20.407  0.00  0.00    +0.000 A 
ATOM     29  C   UNL     1       1.638   5.890  20.821  0.00  0.00    +0.000 A 
ATOM     30  C   UNL     1       1.952   4.843  19.954  0.00  0.00    +0.000 A 
ATOM     31  C   UNL     1       2.439   5.134  18.687  0.00  0.00    +0.000 A 
ATOM     32  F   UNL     1       2.809   4.133  17.877  0.00  0.00    +0.000 F 
ATOM     33  C   UNL     1       2.560   6.450  18.251  0.00  0.00    +0.000 A 
ATOM     34  C   UNL     1       2.204   7.500  19.101  0.00  0.00    +0.000 A 
ENDBRANCH  26  28
ENDBRANCH  23  24
ENDBRANCH  11  23
TORSDOF 6
ENDMDL
MODEL 7
REMARK VINA RESULT:      -7.6      7.296     11.345
REMARK  Name = 
REMARK  7 active torsions:
REMARK  status: ('A' for Active; 'I' for Inactive)
REMARK    1  A    between atoms: C_1  and  O_2
REMARK    2  A    between atoms: O_2  and  C_3
REMARK    3  A    between atoms: C_11  and  C_12
REMARK    4  A    between atoms: C_12  and  C_14
REMARK    5  A    between atoms: N_22  and  C_23
REMARK    6  A    between atoms: C_23  and  C_24
REMARK    7  A    between atoms: N_26  and  C_27
REMARK                            x       y       z     vdW  Elec       q    Type
REMARK                         _______ _______ _______ _____ _____    ______ ____
ROOT
ATOM      1  C   UNL     1       0.122  16.663  20.193  0.00  0.00    +0.000 A 
ATOM      2  C   UNL     1      -1.265  16.754  20.116  0.00  0.00    +0.000 A 
ATOM      3  C   UNL     1      -2.077  15.645  20.425  0.00  0.00    +0.000 A 
ATOM      4  C   UNL     1      -1.524  14.418  20.822  0.00  0.00    +0.000 A 
ATOM      5  C   UNL     1      -0.118  14.361  20.912  0.00  0.00    +0.000 A 
ATOM      6  C   UNL     1       0.692  15.458  20.589  0.00  0.00    +0.000 A 
ATOM      7  C   UNL     1       0.546  13.121  21.374  0.00  0.00    +0.000 A 
ATOM      8  O   UNL     1       1.761  13.096  21.536  0.00  0.00    +0.000 OA
ATOM      9  C   UNL     1      -0.306  11.941  21.649  0.00  0.00    +0.000 A 
ATOM     10  C   UNL     1      -1.629  12.116  21.537  0.00  0.00    +0.000 A 
ATOM     11  N   UNL     1      -2.294  13.277  21.152  0.00  0.00    +0.000 N 
ENDROOT
BRANCH   1  13
ATOM     12  C   UNL     1       2.385  17.398  20.227  0.00  0.00    +0.000 C 
ATOM     13  O   UNL     1       1.020  17.654  19.926  0.00  0.00    +0.000 OA
ENDBRANCH   1  13
BRANCH   9  14
ATOM     14  C   UNL     1       0.201  10.599  22.051  0.00  0.00    +0.000 C 
ATOM     15  O   UNL     1       0.143  10.226  23.222  0.00  0.00    +0.000 OA
BRANCH  14  16
ATOM     16  C   UNL     1       0.775   9.689  21.026  0.00  0.00    +0.000 A 
ATOM     17  C   UNL     1       1.235   8.427  21.427  0.00  0.00    +0.000 A 
ATOM     18  C   UNL     1       1.839   7.573  20.499  0.00  0.00    +0.000 A 
ATOM     19  C   UNL     1       1.970   7.975  19.171  0.00  0.00    +0.000 A 
ATOM     20 CL   UNL     1       2.762   6.950  18.039  0.00  0.00    +0.000 Cl
ATOM     21  C   UNL     1       1.470   9.206  18.753  0.00  0.00    +0.000 A 
ATOM     22  C   UNL     1       0.853  10.056  19.675  0.00  0.00    +0.000 A 
ENDBRANCH  14  16
ENDBRANCH   9  14
BRANCH  11  23
ATOM     23  C   UNL     1      -3.720  13.217  20.749  0.00  0.00    +0.000 C 
BRANCH  23  24
ATOM     24  C   UNL     1      -3.997  12.317  19.550  0.00  0.00    +0.000 C 
ATOM     25  O   UNL     1      -5.085  11.742  19.459  0.00  0.00    +0.000 OA
ATOM     26  N   UNL     1      -2.976  12.217  18.619  0.00  0.00    +0.000 N 
ATOM     27  H   UNL     1      -2.046  12.382  18.992  0.00  0.00    +0.000 HD
BRANCH  26  28
ATOM     28  C   UNL     1      -3.103  11.404  17.477  0.00  0.00    +0.000 A 
ATOM     29  C   UNL     1      -2.217  10.344  17.236  0.00  0.00    +0.000 A 
ATOM     30  C   UNL     1      -2.286   9.628  16.041  0.00  0.00    +0.000 A 
ATOM     31  C   UNL     1      -3.229   9.988  15.088  0.00  0.00    +0.000 A 
ATOM     32  F   UNL     1      -3.253   9.351  13.910  0.00  0.00    +0.000 F 
ATOM     33  C   UNL     1      -4.142  11.010  15.334  0.00  0.00    +0.000 A 
ATOM     34  C   UNL     1      -4.103  11.699  16.549  0.00  0.00    +0.000 A 
ENDBRANCH  26  28
ENDBRANCH  23  24
ENDBRANCH  11  23
TORSDOF 6
ENDMDL
MODEL 8
REMARK VINA RESULT:      -7.6      5.766      9.495
REMARK  Name = 
REMARK  7 active torsions:
REMARK  status: ('A' for Active; 'I' for Inactive)
REMARK    1  A    between atoms: C_1  and  O_2
REMARK    2  A    between atoms: O_2  and  C_3
REMARK    3  A    between atoms: C_11  and  C_12
REMARK    4  A    between atoms: C_12  and  C_14
REMARK    5  A    between atoms: N_22  and  C_23
REMARK    6  A    between atoms: C_23  and  C_24
REMARK    7  A    between atoms: N_26  and  C_27
REMARK                            x       y       z     vdW  Elec       q    Type
REMARK                         _______ _______ _______ _____ _____    ______ ____
ROOT
ATOM      1  C   UNL     1       3.299  15.889  19.014  0.00  0.00    +0.000 A 
ATOM      2  C   UNL     1       3.589  15.059  17.935  0.00  0.00    +0.000 A 
ATOM      3  C   UNL     1       3.057  13.757  17.866  0.00  0.00    +0.000 A 
ATOM      4  C   UNL     1       2.219  13.251  18.871  0.00  0.00    +0.000 A 
ATOM      5  C   UNL     1       1.925  14.122  19.941  0.00  0.00    +0.000 A 
ATOM      6  C   UNL     1       2.467  15.413  20.019  0.00  0.00    +0.000 A 
ATOM      7  C   UNL     1       1.006  13.690  21.018  0.00  0.00    +0.000 A 
ATOM      8  O   UNL     1       0.680  14.473  21.903  0.00  0.00    +0.000 OA
ATOM      9  C   UNL     1       0.489  12.303  20.971  0.00  0.00    +0.000 A 
ATOM     10  C   UNL     1       0.830  11.570  19.903  0.00  0.00    +0.000 A 
ATOM     11  N   UNL     1       1.652  11.955  18.847  0.00  0.00    +0.000 N 
ENDROOT
BRANCH   1  13
ATOM     12  C   UNL     1       5.058  17.331  19.712  0.00  0.00    +0.000 C 
ATOM     13  O   UNL     1       3.743  17.166  19.203  0.00  0.00    +0.000 OA
ENDBRANCH   1  13
BRANCH   9  14
ATOM     14  C   UNL     1      -0.385  11.683  22.006  0.00  0.00    +0.000 C 
ATOM     15  O   UNL     1       0.046  10.813  22.762  0.00  0.00    +0.000 OA
BRANCH  14  16
ATOM     16  C   UNL     1      -1.798  12.126  22.140  0.00  0.00    +0.000 A 
ATOM     17  C   UNL     1      -2.386  12.124  23.413  0.00  0.00    +0.000 A 
ATOM     18  C   UNL     1      -3.732  12.475  23.564  0.00  0.00    +0.000 A 
ATOM     19  C   UNL     1      -4.483  12.837  22.447  0.00  0.00    +0.000 A 
ATOM     20 CL   UNL     1      -6.152  13.214  22.622  0.00  0.00    +0.000 Cl
ATOM     21  C   UNL     1      -3.892  12.891  21.186  0.00  0.00    +0.000 A 
ATOM     22  C   UNL     1      -2.545  12.556  21.034  0.00  0.00    +0.000 A 
ENDBRANCH  14  16
ENDBRANCH   9  14
BRANCH  11  23
ATOM     23  C   UNL     1       2.205  10.933  17.926  0.00  0.00    +0.000 C 
BRANCH  23  24
ATOM     24  C   UNL     1       1.699   9.518  18.180  0.00  0.00    +0.000 C 
ATOM     25  O   UNL     1       0.522   9.239  17.936  0.00  0.00    +0.000 OA
ATOM     26  N   UNL     1       2.633   8.621  18.673  0.00  0.00    +0.000 N 
ATOM     27  H   UNL     1       3.393   9.046  19.196  0.00  0.00    +0.000 HD
BRANCH  26  28
ATOM     28  C   UNL     1       2.285   7.288  18.965  0.00  0.00    +0.000 A 
ATOM     29  C   UNL     1       1.940   6.895  20.266  0.00  0.00    +0.000 A 
ATOM     30  C   UNL     1       1.716   5.549  20.557  0.00  0.00    +0.000 A 
ATOM     31  C   UNL     1       1.856   4.605  19.549  0.00  0.00    +0.000 A 
ATOM     32  F   UNL     1       1.713   3.305  19.839  0.00  0.00    +0.000 F 
ATOM     33  C   UNL     1       2.157   4.988  18.245  0.00  0.00    +0.000 A 
ATOM     34  C   UNL     1       2.338   6.340  17.942  0.00  0.00    +0.000 A 
ENDBRANCH  26  28
ENDBRANCH  23  24
ENDBRANCH  11  23
TORSDOF 6
ENDMDL
MODEL 9
REMARK VINA RESULT:      -7.6      5.873      9.516
REMARK  Name = 
REMARK  7 active torsions:
REMARK  status: ('A' for Active; 'I' for Inactive)
REMARK    1  A    between atoms: C_1  and  O_2
REMARK    2  A    between atoms: O_2  and  C_3
REMARK    3  A    between atoms: C_11  and  C_12
REMARK    4  A    between atoms: C_12  and  C_14
REMARK    5  A    between atoms: N_22  and  C_23
REMARK    6  A    between atoms: C_23  and  C_24
REMARK    7  A    between atoms: N_26  and  C_27
REMARK                            x       y       z     vdW  Elec       q    Type
REMARK                         _______ _______ _______ _____ _____    ______ ____
ROOT
ATOM      1  C   UNL     1      -3.589  10.795  17.497  0.00  0.00    +0.000 A 
ATOM      2  C   UNL     1      -2.699   9.845  17.003  0.00  0.00    +0.000 A 
ATOM      3  C   UNL     1      -1.369   9.797  17.463  0.00  0.00    +0.000 A 
ATOM      4  C   UNL     1      -0.894  10.695  18.431  0.00  0.00    +0.000 A 
ATOM      5  C   UNL     1      -1.823  11.633  18.929  0.00  0.00    +0.000 A 
ATOM      6  C   UNL     1      -3.142  11.692  18.460  0.00  0.00    +0.000 A 
ATOM      7  C   UNL     1      -1.421  12.582  19.991  0.00  0.00    +0.000 A 
ATOM      8  O   UNL     1      -2.248  13.339  20.487  0.00  0.00    +0.000 OA
ATOM      9  C   UNL     1      -0.008  12.565  20.436  0.00  0.00    +0.000 A 
ATOM     10  C   UNL     1       0.780  11.625  19.898  0.00  0.00    +0.000 A 
ATOM     11  N   UNL     1       0.429  10.685  18.934  0.00  0.00    +0.000 N 
ENDROOT
BRANCH   1  13
ATOM     12  C   UNL     1      -5.865  10.913  18.181  0.00  0.00    +0.000 C 
ATOM     13  O   UNL     1      -4.897  10.949  17.142  0.00  0.00    +0.000 OA
ENDBRANCH   1  13
BRANCH   9  14
ATOM     14  C   UNL     1       0.581  13.496  21.440  0.00  0.00    +0.000 C 
ATOM     15  O   UNL     1       1.800  13.609  21.559  0.00  0.00    +0.000 OA
BRANCH  14  16
ATOM     16  C   UNL     1      -0.313  14.310  22.305  0.00  0.00    +0.000 A 
ATOM     17  C   UNL     1      -0.432  15.683  22.046  0.00  0.00    +0.000 A 
ATOM     18  C   UNL     1      -1.214  16.489  22.880  0.00  0.00    +0.000 A 
ATOM     19  C   UNL     1      -1.885  15.920  23.961  0.00  0.00    +0.000 A 
ATOM     20 CL   UNL     1      -2.803  16.917  25.022  0.00  0.00    +0.000 Cl
ATOM     21  C   UNL     1      -1.813  14.548  24.195  0.00  0.00    +0.000 A 
ATOM     22  C   UNL     1      -1.045  13.738  23.355  0.00  0.00    +0.000 A 
ENDBRANCH  14  16
ENDBRANCH   9  14
BRANCH  11  23
ATOM     23  C   UNL     1       1.484   9.947  18.198  0.00  0.00    +0.000 C 
BRANCH  23  24
ATOM     24  C   UNL     1       1.804   8.571  18.771  0.00  0.00    +0.000 C 
ATOM     25  O   UNL     1       1.509   8.314  19.941  0.00  0.00    +0.000 OA
ATOM     26  N   UNL     1       2.414   7.680  17.902  0.00  0.00    +0.000 N 
ATOM     27  H   UNL     1       2.951   8.116  17.158  0.00  0.00    +0.000 HD
BRANCH  26  28
ATOM     28  C   UNL     1       2.776   6.384  18.316  0.00  0.00    +0.000 A 
ATOM     29  C   UNL     1       3.958   6.154  19.034  0.00  0.00    +0.000 A 
ATOM     30  C   UNL     1       4.358   4.851  19.330  0.00  0.00    +0.000 A 
ATOM     31  C   UNL     1       3.582   3.787  18.890  0.00  0.00    +0.000 A 
ATOM     32  F   UNL     1       3.997   2.532  19.109  0.00  0.00    +0.000 F 
ATOM     33  C   UNL     1       2.385   4.005  18.214  0.00  0.00    +0.000 A 
ATOM     34  C   UNL     1       1.960   5.311  17.956  0.00  0.00    +0.000 A 
ENDBRANCH  26  28
ENDBRANCH  23  24
ENDBRANCH  11  23
TORSDOF 6
ENDMDL
