MODEL 1
REMARK VINA RESULT:      -8.5      0.000      0.000
REMARK  Name = 
REMARK  4 active torsions:
REMARK  status: ('A' for Active; 'I' for Inactive)
REMARK    1  A    between atoms: C_2  and  C_3
REMARK    2  A    between atoms: N_17  and  C_18
REMARK    3  A    between atoms: C_18  and  C_19
REMARK    4  A    between atoms: C_19  and  C_20
REMARK                            x       y       z     vdW  Elec       q    Type
REMARK                         _______ _______ _______ _____ _____    ______ ____
ROOT
ATOM      1  O   UNL     1       7.958   4.212  17.077  0.00  0.00    +0.000 OA
ATOM      2  C   UNL     1       7.081   4.793  16.447  0.00  0.00    +0.000 C 
ATOM      3  N   UNL     1       6.131   5.586  17.109  0.00  0.00    +0.000 N 
ATOM      4  C   UNL     1       6.347   5.895  18.524  0.00  0.00    +0.000 C 
ATOM      5  C   UNL     1       5.199   5.394  19.397  0.00  0.00    +0.000 C 
ATOM      6  C   UNL     1       3.852   5.907  18.867  0.00  0.00    +0.000 C 
ATOM      7  C   UNL     1       3.658   5.561  17.393  0.00  0.00    +0.000 C 
ATOM      8  C   UNL     1       3.391   4.063  17.174  0.00  0.00    +0.000 C 
ATOM      9  C   UNL     1       2.867   3.282  18.377  0.00  0.00    +0.000 C 
ATOM     10  C   UNL     1       2.320   4.079  19.543  0.00  0.00    +0.000 C 
ATOM     11  O   UNL     1       1.569   3.543  20.358  0.00  0.00    +0.000 OA
ATOM     12  N   UNL     1       2.714   5.401  19.635  0.00  0.00    +0.000 N 
ATOM     13  C   UNL     1       4.853   6.041  16.556  0.00  0.00    +0.000 C 
ENDROOT
BRANCH   2  14
ATOM     14  C   UNL     1       7.017   4.679  15.000  0.00  0.00    +0.000 A 
ATOM     15  C   UNL     1       6.246   3.794  14.256  0.00  0.00    +0.000 A 
ATOM     16  C   UNL     1       6.518   4.007  12.883  0.00  0.00    +0.000 A 
ATOM     17  C   UNL     1       7.474   4.993  12.809  0.00  0.00    +0.000 A 
ATOM     18  N   UNL     1       7.810   5.345  14.090  0.00  0.00    +0.000 N 
ATOM     19  H   UNL     1       8.535   6.006  14.337  0.00  0.00    +0.000 HD
ENDBRANCH   2  14
BRANCH  12  20
ATOM     20  C   UNL     1       1.982   6.310  20.529  0.00  0.00    +0.000 C 
BRANCH  20  21
ATOM     21  C   UNL     1       1.933   7.747  19.992  0.00  0.00    +0.000 C 
BRANCH  21  22
ATOM     22  C   UNL     1       1.100   8.635  20.847  0.00  0.00    +0.000 A 
ATOM     23  C   UNL     1       0.098   9.508  20.475  0.00  0.00    +0.000 A 
ATOM     24  N   UNL     1      -0.357  10.051  21.644  0.00  0.00    +0.000 N 
ATOM     25  C   UNL     1       0.375   9.514  22.662  0.00  0.00    +0.000 A 
ATOM     26  N   UNL     1       1.263   8.655  22.212  0.00  0.00    +0.000 NA
ATOM     27  H   UNL     1      -1.100  10.731  21.740  0.00  0.00    +0.000 HD
ENDBRANCH  21  22
ENDBRANCH  20  21
ENDBRANCH  12  20
TORSDOF 4
ENDMDL
MODEL 2
REMARK VINA RESULT:      -7.5      0.932      1.143
REMARK  Name = 
REMARK  4 active torsions:
REMARK  status: ('A' for Active; 'I' for Inactive)
REMARK    1  A    between atoms: C_2  and  C_3
REMARK    2  A    between atoms: N_17  and  C_18
REMARK    3  A    between atoms: C_18  and  C_19
REMARK    4  A    between atoms: C_19  and  C_20
REMARK                            x       y       z     vdW  Elec       q    Type
REMARK                         _______ _______ _______ _____ _____    ______ ____
ROOT
ATOM      1  O   UNL     1       8.174   4.365  16.966  0.00  0.00    +0.000 OA
ATOM      2  C   UNL     1       7.140   4.760  16.441  0.00  0.00    +0.000 C 
ATOM      3  N   UNL     1       6.121   5.340  17.213  0.00  0.00    +0.000 N 
ATOM      4  C   UNL     1       6.412   5.677  18.607  0.00  0.00    +0.000 C 
ATOM      5  C   UNL     1       5.483   4.947  19.575  0.00  0.00    +0.000 C 
ATOM      6  C   UNL     1       4.013   5.180  19.193  0.00  0.00    +0.000 C 
ATOM      7  C   UNL     1       3.745   4.813  17.736  0.00  0.00    +0.000 C 
ATOM      8  C   UNL     1       3.764   3.292  17.504  0.00  0.00    +0.000 C 
ATOM      9  C   UNL     1       3.532   2.414  18.731  0.00  0.00    +0.000 C 
ATOM     10  C   UNL     1       2.956   3.076  19.966  0.00  0.00    +0.000 C 
ATOM     11  O   UNL     1       2.415   2.393  20.836  0.00  0.00    +0.000 OA
ATOM     12  N   UNL     1       3.084   4.449  20.054  0.00  0.00    +0.000 N 
ATOM     13  C   UNL     1       4.728   5.530  16.799  0.00  0.00    +0.000 C 
ENDROOT
BRANCH   2  14
ATOM     14  C   UNL     1       6.954   4.645  15.004  0.00  0.00    +0.000 A 
ATOM     15  C   UNL     1       6.147   3.739  14.326  0.00  0.00    +0.000 A 
ATOM     16  C   UNL     1       6.293   3.961  12.936  0.00  0.00    +0.000 A 
ATOM     17  C   UNL     1       7.211   4.974  12.782  0.00  0.00    +0.000 A 
ATOM     18  N   UNL     1       7.646   5.335  14.030  0.00  0.00    +0.000 N 
ATOM     19  H   UNL     1       8.370   6.016  14.216  0.00  0.00    +0.000 HD
ENDBRANCH   2  14
BRANCH  12  20
ATOM     20  C   UNL     1       2.278   5.185  21.039  0.00  0.00    +0.000 C 
BRANCH  20  21
ATOM     21  C   UNL     1       1.069   5.884  20.403  0.00  0.00    +0.000 C 
BRANCH  21  22
ATOM     22  C   UNL     1       1.191   7.366  20.453  0.00  0.00    +0.000 A 
ATOM     23  C   UNL     1       1.730   8.225  19.517  0.00  0.00    +0.000 A 
ATOM     24  N   UNL     1       1.567   9.477  20.043  0.00  0.00    +0.000 N 
ATOM     25  C   UNL     1       0.963   9.340  21.258  0.00  0.00    +0.000 A 
ATOM     26  N   UNL     1       0.722   8.077  21.534  0.00  0.00    +0.000 NA
ATOM     27  H   UNL     1       1.846  10.349  19.612  0.00  0.00    +0.000 HD
ENDBRANCH  21  22
ENDBRANCH  20  21
ENDBRANCH  12  20
TORSDOF 4
ENDMDL
MODEL 3
REMARK VINA RESULT:      -7.3      0.990      1.270
REMARK  Name = 
REMARK  4 active torsions:
REMARK  status: ('A' for Active; 'I' for Inactive)
REMARK    1  A    between atoms: C_2  and  C_3
REMARK    2  A    between atoms: N_17  and  C_18
REMARK    3  A    between atoms: C_18  and  C_19
REMARK    4  A    between atoms: C_19  and  C_20
REMARK                            x       y       z     vdW  Elec       q    Type
REMARK                         _______ _______ _______ _____ _____    ______ ____
ROOT
ATOM      1  O   UNL     1       7.647   4.045  17.498  0.00  0.00    +0.000 OA
ATOM      2  C   UNL     1       6.788   4.594  16.817  0.00  0.00    +0.000 C 
ATOM      3  N   UNL     1       5.785   5.369  17.419  0.00  0.00    +0.000 N 
ATOM      4  C   UNL     1       5.921   5.704  18.838  0.00  0.00    +0.000 C 
ATOM      5  C   UNL     1       4.745   5.182  19.661  0.00  0.00    +0.000 C 
ATOM      6  C   UNL     1       3.413   5.652  19.057  0.00  0.00    +0.000 C 
ATOM      7  C   UNL     1       3.302   5.281  17.581  0.00  0.00    +0.000 C 
ATOM      8  C   UNL     1       3.086   3.773  17.371  0.00  0.00    +0.000 C 
ATOM      9  C   UNL     1       2.524   2.995  18.558  0.00  0.00    +0.000 C 
ATOM     10  C   UNL     1       1.898   3.792  19.684  0.00  0.00    +0.000 C 
ATOM     11  O   UNL     1       1.122   3.247  20.468  0.00  0.00    +0.000 OA
ATOM     12  N   UNL     1       2.252   5.125  19.775  0.00  0.00    +0.000 N 
ATOM     13  C   UNL     1       4.524   5.782  16.797  0.00  0.00    +0.000 C 
ENDROOT
BRANCH   2  14
ATOM     14  C   UNL     1       6.799   4.459  15.370  0.00  0.00    +0.000 A 
ATOM     15  C   UNL     1       7.375   5.322  14.446  0.00  0.00    +0.000 A 
ATOM     16  C   UNL     1       7.119   4.823  13.146  0.00  0.00    +0.000 A 
ATOM     17  C   UNL     1       6.363   3.683  13.292  0.00  0.00    +0.000 A 
ATOM     18  N   UNL     1       6.126   3.509  14.631  0.00  0.00    +0.000 N 
ATOM     19  H   UNL     1       5.544   2.783  15.025  0.00  0.00    +0.000 HD
ENDBRANCH   2  14
BRANCH  12  20
ATOM     20  C   UNL     1       1.453   6.026  20.618  0.00  0.00    +0.000 C 
BRANCH  20  21
ATOM     21  C   UNL     1       2.105   7.405  20.787  0.00  0.00    +0.000 C 
BRANCH  21  22
ATOM     22  C   UNL     1       1.141   8.512  20.547  0.00  0.00    +0.000 A 
ATOM     23  C   UNL     1       0.143   8.988  21.372  0.00  0.00    +0.000 A 
ATOM     24  N   UNL     1      -0.426  10.025  20.686  0.00  0.00    +0.000 N 
ATOM     25  C   UNL     1       0.219  10.133  19.489  0.00  0.00    +0.000 A 
ATOM     26  N   UNL     1       1.171   9.233  19.376  0.00  0.00    +0.000 NA
ATOM     27  H   UNL     1      -1.190  10.607  21.005  0.00  0.00    +0.000 HD
ENDBRANCH  21  22
ENDBRANCH  20  21
ENDBRANCH  12  20
TORSDOF 4
ENDMDL
MODEL 4
REMARK VINA RESULT:      -7.2      1.270      1.515
REMARK  Name = 
REMARK  4 active torsions:
REMARK  status: ('A' for Active; 'I' for Inactive)
REMARK    1  A    between atoms: C_2  and  C_3
REMARK    2  A    between atoms: N_17  and  C_18
REMARK    3  A    between atoms: C_18  and  C_19
REMARK    4  A    between atoms: C_19  and  C_20
REMARK                            x       y       z     vdW  Elec       q    Type
REMARK                         _______ _______ _______ _____ _____    ______ ____
ROOT
ATOM      1  O   UNL     1       7.967   4.087  16.954  0.00  0.00    +0.000 OA
ATOM      2  C   UNL     1       7.137   4.761  16.354  0.00  0.00    +0.000 C 
ATOM      3  N   UNL     1       6.295   5.644  17.048  0.00  0.00    +0.000 N 
ATOM      4  C   UNL     1       6.584   5.919  18.457  0.00  0.00    +0.000 C 
ATOM      5  C   UNL     1       5.417   5.533  19.363  0.00  0.00    +0.000 C 
ATOM      6  C   UNL     1       4.115   6.188  18.877  0.00  0.00    +0.000 C 
ATOM      7  C   UNL     1       3.843   5.876  17.408  0.00  0.00    +0.000 C 
ATOM      8  C   UNL     1       3.413   4.415  17.190  0.00  0.00    +0.000 C 
ATOM      9  C   UNL     1       2.847   3.684  18.405  0.00  0.00    +0.000 C 
ATOM     10  C   UNL     1       2.422   4.525  19.591  0.00  0.00    +0.000 C 
ATOM     11  O   UNL     1       1.644   4.064  20.426  0.00  0.00    +0.000 OA
ATOM     12  N   UNL     1       2.955   5.798  19.677  0.00  0.00    +0.000 N 
ATOM     13  C   UNL     1       5.055   6.234  16.536  0.00  0.00    +0.000 C 
ENDROOT
BRANCH   2  14
ATOM     14  C   UNL     1       7.018   4.666  14.909  0.00  0.00    +0.000 A 
ATOM     15  C   UNL     1       6.236   3.775  14.183  0.00  0.00    +0.000 A 
ATOM     16  C   UNL     1       6.448   4.013  12.804  0.00  0.00    +0.000 A 
ATOM     17  C   UNL     1       7.381   5.020  12.706  0.00  0.00    +0.000 A 
ATOM     18  N   UNL     1       7.760   5.361  13.978  0.00  0.00    +0.000 N 
ATOM     19  H   UNL     1       8.481   6.033  14.206  0.00  0.00    +0.000 HD
ENDBRANCH   2  14
BRANCH  12  20
ATOM     20  C   UNL     1       2.349   6.772  20.597  0.00  0.00    +0.000 C 
BRANCH  20  21
ATOM     21  C   UNL     1       1.046   7.366  20.046  0.00  0.00    +0.000 C 
BRANCH  21  22
ATOM     22  C   UNL     1       1.257   8.708  19.439  0.00  0.00    +0.000 A 
ATOM     23  C   UNL     1       0.877   9.946  19.914  0.00  0.00    +0.000 A 
ATOM     24  N   UNL     1       1.337  10.843  18.991  0.00  0.00    +0.000 N 
ATOM     25  C   UNL     1       1.955  10.136  18.000  0.00  0.00    +0.000 A 
ATOM     26  N   UNL     1       1.922   8.844  18.242  0.00  0.00    +0.000 NA
ATOM     27  H   UNL     1       1.238  11.849  19.030  0.00  0.00    +0.000 HD
ENDBRANCH  21  22
ENDBRANCH  20  21
ENDBRANCH  12  20
TORSDOF 4
ENDMDL
MODEL 5
REMARK VINA RESULT:      -7.1      1.461      1.773
REMARK  Name = 
REMARK  4 active torsions:
REMARK  status: ('A' for Active; 'I' for Inactive)
REMARK    1  A    between atoms: C_2  and  C_3
REMARK    2  A    between atoms: N_17  and  C_18
REMARK    3  A    between atoms: C_18  and  C_19
REMARK    4  A    between atoms: C_19  and  C_20
REMARK                            x       y       z     vdW  Elec       q    Type
REMARK                         _______ _______ _______ _____ _____    ______ ____
ROOT
ATOM      1  O   UNL     1       8.046   4.149  16.794  0.00  0.00    +0.000 OA
ATOM      2  C   UNL     1       7.150   4.694  16.159  0.00  0.00    +0.000 C 
ATOM      3  N   UNL     1       6.289   5.612  16.779  0.00  0.00    +0.000 N 
ATOM      4  C   UNL     1       6.627   6.083  18.124  0.00  0.00    +0.000 C 
ATOM      5  C   UNL     1       5.529   5.756  19.134  0.00  0.00    +0.000 C 
ATOM      6  C   UNL     1       4.168   6.271  18.639  0.00  0.00    +0.000 C 
ATOM      7  C   UNL     1       3.847   5.756  17.239  0.00  0.00    +0.000 C 
ATOM      8  C   UNL     1       3.497   4.258  17.232  0.00  0.00    +0.000 C 
ATOM      9  C   UNL     1       3.034   3.662  18.560  0.00  0.00    +0.000 C 
ATOM     10  C   UNL     1       2.614   4.626  19.650  0.00  0.00    +0.000 C 
ATOM     11  O   UNL     1       1.906   4.236  20.578  0.00  0.00    +0.000 OA
ATOM     12  N   UNL     1       3.072   5.926  19.544  0.00  0.00    +0.000 N 
ATOM     13  C   UNL     1       4.993   6.063  16.265  0.00  0.00    +0.000 C 
ENDROOT
BRANCH   2  14
ATOM     14  C   UNL     1       6.969   4.405  14.746  0.00  0.00    +0.000 A 
ATOM     15  C   UNL     1       7.524   5.083  13.667  0.00  0.00    +0.000 A 
ATOM     16  C   UNL     1       7.057   4.485  12.473  0.00  0.00    +0.000 A 
ATOM     17  C   UNL     1       6.197   3.474  12.836  0.00  0.00    +0.000 A 
ATOM     18  N   UNL     1       6.106   3.476  14.203  0.00  0.00    +0.000 N 
ATOM     19  H   UNL     1       5.496   2.877  14.743  0.00  0.00    +0.000 HD
ENDBRANCH   2  14
BRANCH  12  20
ATOM     20  C   UNL     1       2.452   6.977  20.364  0.00  0.00    +0.000 C 
BRANCH  20  21
ATOM     21  C   UNL     1       1.182   7.550  19.721  0.00  0.00    +0.000 C 
BRANCH  21  22
ATOM     22  C   UNL     1       1.421   8.885  19.109  0.00  0.00    +0.000 A 
ATOM     23  C   UNL     1       2.072   9.198  17.933  0.00  0.00    +0.000 A 
ATOM     24  N   UNL     1       1.985  10.558  17.825  0.00  0.00    +0.000 N 
ATOM     25  C   UNL     1       1.312  11.018  18.920  0.00  0.00    +0.000 A 
ATOM     26  N   UNL     1       0.958  10.031  19.714  0.00  0.00    +0.000 NA
ATOM     27  H   UNL     1       2.354  11.125  17.073  0.00  0.00    +0.000 HD
ENDBRANCH  21  22
ENDBRANCH  20  21
ENDBRANCH  12  20
TORSDOF 4
ENDMDL
MODEL 6
REMARK VINA RESULT:      -7.0      3.104      6.916
REMARK  Name = 
REMARK  4 active torsions:
REMARK  status: ('A' for Active; 'I' for Inactive)
REMARK    1  A    between atoms: C_2  and  C_3
REMARK    2  A    between atoms: N_17  and  C_18
REMARK    3  A    between atoms: C_18  and  C_19
REMARK    4  A    between atoms: C_19  and  C_20
REMARK                            x       y       z     vdW  Elec       q    Type
REMARK                         _______ _______ _______ _____ _____    ______ ____
ROOT
ATOM      1  O   UNL     1       1.147   5.178  17.690  0.00  0.00    +0.000 OA
ATOM      2  C   UNL     1       1.963   4.971  18.582  0.00  0.00    +0.000 C 
ATOM      3  N   UNL     1       3.100   5.782  18.714  0.00  0.00    +0.000 N 
ATOM      4  C   UNL     1       3.173   7.013  17.925  0.00  0.00    +0.000 C 
ATOM      5  C   UNL     1       4.389   7.025  17.000  0.00  0.00    +0.000 C 
ATOM      6  C   UNL     1       5.674   6.741  17.793  0.00  0.00    +0.000 C 
ATOM      7  C   UNL     1       5.565   5.450  18.599  0.00  0.00    +0.000 C 
ATOM      8  C   UNL     1       5.612   4.198  17.706  0.00  0.00    +0.000 C 
ATOM      9  C   UNL     1       6.243   4.370  16.326  0.00  0.00    +0.000 C 
ATOM     10  C   UNL     1       7.075   5.613  16.088  0.00  0.00    +0.000 C 
ATOM     11  O   UNL     1       7.888   5.643  15.164  0.00  0.00    +0.000 OA
ATOM     12  N   UNL     1       6.861   6.680  16.940  0.00  0.00    +0.000 N 
ATOM     13  C   UNL     1       4.307   5.457  19.480  0.00  0.00    +0.000 C 
ENDROOT
BRANCH   2  14
ATOM     14  C   UNL     1       1.759   3.886  19.527  0.00  0.00    +0.000 A 
ATOM     15  C   UNL     1       1.358   3.985  20.854  0.00  0.00    +0.000 A 
ATOM     16  C   UNL     1       1.320   2.684  21.410  0.00  0.00    +0.000 A 
ATOM     17  C   UNL     1       1.732   1.813  20.428  0.00  0.00    +0.000 A 
ATOM     18  N   UNL     1       2.051   2.554  19.321  0.00  0.00    +0.000 N 
ATOM     19  H   UNL     1       2.442   2.179  18.467  0.00  0.00    +0.000 HD
ENDBRANCH   2  14
BRANCH  12  20
ATOM     20  C   UNL     1       7.839   7.776  16.981  0.00  0.00    +0.000 C 
BRANCH  20  21
ATOM     21  C   UNL     1       8.247   8.145  18.414  0.00  0.00    +0.000 C 
BRANCH  21  22
ATOM     22  C   UNL     1       8.661   9.570  18.528  0.00  0.00    +0.000 A 
ATOM     23  C   UNL     1       9.448  10.171  19.488  0.00  0.00    +0.000 A 
ATOM     24  N   UNL     1       9.540  11.481  19.109  0.00  0.00    +0.000 N 
ATOM     25  C   UNL     1       8.810  11.633  17.966  0.00  0.00    +0.000 A 
ATOM     26  N   UNL     1       8.268  10.496  17.590  0.00  0.00    +0.000 NA
ATOM     27  H   UNL     1      10.052  12.210  19.588  0.00  0.00    +0.000 HD
ENDBRANCH  21  22
ENDBRANCH  20  21
ENDBRANCH  12  20
TORSDOF 4
ENDMDL
MODEL 7
REMARK VINA RESULT:      -6.8      1.959      7.777
REMARK  Name = 
REMARK  4 active torsions:
REMARK  status: ('A' for Active; 'I' for Inactive)
REMARK    1  A    between atoms: C_2  and  C_3
REMARK    2  A    between atoms: N_17  and  C_18
REMARK    3  A    between atoms: C_18  and  C_19
REMARK    4  A    between atoms: C_19  and  C_20
REMARK                            x       y       z     vdW  Elec       q    Type
REMARK                         _______ _______ _______ _____ _____    ______ ____
ROOT
ATOM      1  O   UNL     1       0.217   9.301  18.436  0.00  0.00    +0.000 OA
ATOM      2  C   UNL     1       0.790   8.973  19.469  0.00  0.00    +0.000 C 
ATOM      3  N   UNL     1       1.931   8.158  19.426  0.00  0.00    +0.000 N 
ATOM      4  C   UNL     1       2.558   7.905  18.127  0.00  0.00    +0.000 C 
ATOM      5  C   UNL     1       2.595   6.416  17.792  0.00  0.00    +0.000 C 
ATOM      6  C   UNL     1       3.241   5.621  18.937  0.00  0.00    +0.000 C 
ATOM      7  C   UNL     1       2.560   5.903  20.273  0.00  0.00    +0.000 C 
ATOM      8  C   UNL     1       1.163   5.265  20.364  0.00  0.00    +0.000 C 
ATOM      9  C   UNL     1       0.886   4.098  19.419  0.00  0.00    +0.000 C 
ATOM     10  C   UNL     1       2.076   3.441  18.752  0.00  0.00    +0.000 C 
ATOM     11  O   UNL     1       1.973   2.306  18.287  0.00  0.00    +0.000 OA
ATOM     12  N   UNL     1       3.243   4.179  18.691  0.00  0.00    +0.000 N 
ATOM     13  C   UNL     1       2.501   7.412  20.551  0.00  0.00    +0.000 C 
ENDROOT
BRANCH   2  14
ATOM     14  C   UNL     1       0.302   9.432  20.759  0.00  0.00    +0.000 A 
ATOM     15  C   UNL     1      -0.277   8.667  21.764  0.00  0.00    +0.000 A 
ATOM     16  C   UNL     1      -0.634   9.525  22.831  0.00  0.00    +0.000 A 
ATOM     17  C   UNL     1      -0.300  10.805  22.450  0.00  0.00    +0.000 A 
ATOM     18  N   UNL     1       0.205  10.742  21.178  0.00  0.00    +0.000 N 
ATOM     19  H   UNL     1       0.476  11.543  20.623  0.00  0.00    +0.000 HD
ENDBRANCH   2  14
BRANCH  12  20
ATOM     20  C   UNL     1       4.506   3.502  18.363  0.00  0.00    +0.000 C 
BRANCH  20  21
ATOM     21  C   UNL     1       5.716   4.442  18.453  0.00  0.00    +0.000 C 
BRANCH  21  22
ATOM     22  C   UNL     1       6.292   4.741  17.115  0.00  0.00    +0.000 A 
ATOM     23  C   UNL     1       7.110   5.785  16.735  0.00  0.00    +0.000 A 
ATOM     24  N   UNL     1       7.369   5.574  15.409  0.00  0.00    +0.000 N 
ATOM     25  C   UNL     1       6.705   4.444  15.033  0.00  0.00    +0.000 A 
ATOM     26  N   UNL     1       6.046   3.917  16.041  0.00  0.00    +0.000 NA
ATOM     27  H   UNL     1       7.947   6.151  14.812  0.00  0.00    +0.000 HD
ENDBRANCH  21  22
ENDBRANCH  20  21
ENDBRANCH  12  20
TORSDOF 4
ENDMDL
MODEL 8
REMARK VINA RESULT:      -6.6      1.698      8.140
REMARK  Name = 
REMARK  4 active torsions:
REMARK  status: ('A' for Active; 'I' for Inactive)
REMARK    1  A    between atoms: C_2  and  C_3
REMARK    2  A    between atoms: N_17  and  C_18
REMARK    3  A    between atoms: C_18  and  C_19
REMARK    4  A    between atoms: C_19  and  C_20
REMARK                            x       y       z     vdW  Elec       q    Type
REMARK                         _______ _______ _______ _____ _____    ______ ____
ROOT
ATOM      1  O   UNL     1       2.132   4.943  20.995  0.00  0.00    +0.000 OA
ATOM      2  C   UNL     1       2.171   5.767  20.087  0.00  0.00    +0.000 C 
ATOM      3  N   UNL     1       2.579   5.392  18.798  0.00  0.00    +0.000 N 
ATOM      4  C   UNL     1       2.725   3.966  18.501  0.00  0.00    +0.000 C 
ATOM      5  C   UNL     1       4.147   3.618  18.066  0.00  0.00    +0.000 C 
ATOM      6  C   UNL     1       4.595   4.523  16.908  0.00  0.00    +0.000 C 
ATOM      7  C   UNL     1       4.435   6.001  17.255  0.00  0.00    +0.000 C 
ATOM      8  C   UNL     1       5.476   6.477  18.282  0.00  0.00    +0.000 C 
ATOM      9  C   UNL     1       6.745   5.637  18.404  0.00  0.00    +0.000 C 
ATOM     10  C   UNL     1       7.041   4.652  17.292  0.00  0.00    +0.000 C 
ATOM     11  O   UNL     1       8.184   4.223  17.137  0.00  0.00    +0.000 OA
ATOM     12  N   UNL     1       5.976   4.271  16.497  0.00  0.00    +0.000 N 
ATOM     13  C   UNL     1       3.006   6.301  17.731  0.00  0.00    +0.000 C 
ENDROOT
BRANCH   2  14
ATOM     14  C   UNL     1       1.786   7.147  20.330  0.00  0.00    +0.000 A 
ATOM     15  C   UNL     1       1.655   8.165  19.393  0.00  0.00    +0.000 A 
ATOM     16  C   UNL     1       1.294   9.354  20.070  0.00  0.00    +0.000 A 
ATOM     17  C   UNL     1       1.242   9.055  21.412  0.00  0.00    +0.000 A 
ATOM     18  N   UNL     1       1.600   7.741  21.561  0.00  0.00    +0.000 N 
ATOM     19  H   UNL     1       1.708   7.268  22.448  0.00  0.00    +0.000 HD
ENDBRANCH   2  14
BRANCH  12  20
ATOM     20  C   UNL     1       6.238   3.590  15.221  0.00  0.00    +0.000 C 
BRANCH  20  21
ATOM     21  C   UNL     1       5.764   4.408  14.012  0.00  0.00    +0.000 C 
BRANCH  21  22
ATOM     22  C   UNL     1       5.484   3.547  12.831  0.00  0.00    +0.000 A 
ATOM     23  C   UNL     1       4.336   3.460  12.071  0.00  0.00    +0.000 A 
ATOM     24  N   UNL     1       4.617   2.543  11.097  0.00  0.00    +0.000 N 
ATOM     25  C   UNL     1       5.892   2.102  11.301  0.00  0.00    +0.000 A 
ATOM     26  N   UNL     1       6.442   2.690  12.340  0.00  0.00    +0.000 NA
ATOM     27  H   UNL     1       3.994   2.242  10.359  0.00  0.00    +0.000 HD
ENDBRANCH  21  22
ENDBRANCH  20  21
ENDBRANCH  12  20
TORSDOF 4
ENDMDL
MODEL 9
REMARK VINA RESULT:      -6.4      1.991      7.710
REMARK  Name = 
REMARK  4 active torsions:
REMARK  status: ('A' for Active; 'I' for Inactive)
REMARK    1  A    between atoms: C_2  and  C_3
REMARK    2  A    between atoms: N_17  and  C_18
REMARK    3  A    between atoms: C_18  and  C_19
REMARK    4  A    between atoms: C_19  and  C_20
REMARK                            x       y       z     vdW  Elec       q    Type
REMARK                         _______ _______ _______ _____ _____    ______ ____
ROOT
ATOM      1  O   UNL     1       0.144   9.319  18.459  0.00  0.00    +0.000 OA
ATOM      2  C   UNL     1       0.707   9.005  19.502  0.00  0.00    +0.000 C 
ATOM      3  N   UNL     1       1.858   8.203  19.481  0.00  0.00    +0.000 N 
ATOM      4  C   UNL     1       2.506   7.950  18.192  0.00  0.00    +0.000 C 
ATOM      5  C   UNL     1       2.565   6.459  17.869  0.00  0.00    +0.000 C 
ATOM      6  C   UNL     1       3.205   5.679  19.027  0.00  0.00    +0.000 C 
ATOM      7  C   UNL     1       2.501   5.961  20.352  0.00  0.00    +0.000 C 
ATOM      8  C   UNL     1       1.111   5.308  20.427  0.00  0.00    +0.000 C 
ATOM      9  C   UNL     1       0.860   4.132  19.486  0.00  0.00    +0.000 C 
ATOM     10  C   UNL     1       2.068   3.484  18.840  0.00  0.00    +0.000 C 
ATOM     11  O   UNL     1       1.984   2.345  18.381  0.00  0.00    +0.000 OA
ATOM     12  N   UNL     1       3.227   4.235  18.791  0.00  0.00    +0.000 N 
ATOM     13  C   UNL     1       2.421   7.471  20.619  0.00  0.00    +0.000 C 
ENDROOT
BRANCH   2  14
ATOM     14  C   UNL     1       0.195   9.467  20.782  0.00  0.00    +0.000 A 
ATOM     15  C   UNL     1       0.181  10.769  21.265  0.00  0.00    +0.000 A 
ATOM     16  C   UNL     1      -0.377  10.760  22.566  0.00  0.00    +0.000 A 
ATOM     17  C   UNL     1      -0.665   9.449  22.872  0.00  0.00    +0.000 A 
ATOM     18  N   UNL     1      -0.260   8.676  21.816  0.00  0.00    +0.000 N 
ATOM     19  H   UNL     1      -0.293   7.666  21.793  0.00  0.00    +0.000 HD
ENDBRANCH   2  14
BRANCH  12  20
ATOM     20  C   UNL     1       4.503   3.571  18.485  0.00  0.00    +0.000 C 
BRANCH  20  21
ATOM     21  C   UNL     1       4.866   3.656  16.997  0.00  0.00    +0.000 C 
BRANCH  21  22
ATOM     22  C   UNL     1       5.947   4.646  16.741  0.00  0.00    +0.000 A 
ATOM     23  C   UNL     1       6.653   4.880  15.579  0.00  0.00    +0.000 A 
ATOM     24  N   UNL     1       7.505   5.907  15.878  0.00  0.00    +0.000 N 
ATOM     25  C   UNL     1       7.304   6.245  17.184  0.00  0.00    +0.000 A 
ATOM     26  N   UNL     1       6.369   5.501  17.733  0.00  0.00    +0.000 NA
ATOM     27  H   UNL     1       8.167   6.339  15.247  0.00  0.00    +0.000 HD
ENDBRANCH  21  22
ENDBRANCH  20  21
ENDBRANCH  12  20
TORSDOF 4
ENDMDL
