MODEL 1
REMARK VINA RESULT:      -7.3      0.000      0.000
REMARK  Name = 
REMARK  4 active torsions:
REMARK  status: ('A' for Active; 'I' for Inactive)
REMARK    1  A    between atoms: C_1  and  C_2
REMARK    2  A    between atoms: C_5  and  C_6
REMARK    3  A    between atoms: C_12  and  C_13
REMARK    4  A    between atoms: C_16  and  C_17
REMARK                            x       y       z     vdW  Elec       q    Type
REMARK                         _______ _______ _______ _____ _____    ______ ____
ROOT
ATOM      1  C   UNL     1       2.018   7.091  21.087  0.00  0.00    +0.000 C 
ATOM      2  C   UNL     1       1.580   8.169  20.313  0.00  0.00    +0.000 C 
ATOM      3  C   UNL     1       2.008   8.111  18.859  0.00  0.00    +0.000 C 
ATOM      4  N   UNL     1       1.986   9.418  18.256  0.00  0.00    +0.000 NA
ATOM      5  C   UNL     1       0.604   9.796  18.112  0.00  0.00    +0.000 C 
ATOM      6  C   UNL     1      -0.095   9.961  19.458  0.00  0.00    +0.000 C 
ATOM      7  C   UNL     1      -1.328  10.591  19.394  0.00  0.00    +0.000 C 
ATOM      8  C   UNL     1       0.683   9.388  20.680  0.00  0.00    +0.000 C 
ATOM      9  O   UNL     1       0.347   9.627  21.843  0.00  0.00    +0.000 OA
ATOM     10  H   UNL     1       2.503  10.109  18.852  0.00  0.00    +0.000 HD
ENDROOT
BRANCH   1  15
ATOM     11  C   UNL     1       2.251   2.137  17.931  0.00  0.00    +0.000 C 
ATOM     12  C   UNL     1       2.371   3.389  18.774  0.00  0.00    +0.000 A 
ATOM     13  C   UNL     1       3.493   4.251  18.767  0.00  0.00    +0.000 A 
ATOM     14  C   UNL     1       3.492   5.459  19.533  0.00  0.00    +0.000 A 
ATOM     15  C   UNL     1       2.347   5.801  20.310  0.00  0.00    +0.000 A 
ATOM     16  C   UNL     1       1.296   4.861  20.342  0.00  0.00    +0.000 A 
ATOM     17  C   UNL     1       1.294   3.703  19.586  0.00  0.00    +0.000 A 
ENDBRANCH   1  15
BRANCH   7  18
ATOM     18  C   UNL     1      -2.054  10.656  18.033  0.00  0.00    +0.000 A 
ATOM     19  C   UNL     1      -2.830   9.526  17.692  0.00  0.00    +0.000 A 
ATOM     20  C   UNL     1      -3.445   9.365  16.458  0.00  0.00    +0.000 A 
ATOM     21  C   UNL     1      -3.347  10.360  15.494  0.00  0.00    +0.000 A 
ATOM     22  C   UNL     1      -3.983  10.141  14.131  0.00  0.00    +0.000 C 
ATOM     23  C   UNL     1      -2.659  11.546  15.814  0.00  0.00    +0.000 A 
ATOM     24  C   UNL     1      -2.023  11.719  17.082  0.00  0.00    +0.000 A 
ENDBRANCH   7  18
TORSDOF 2
ENDMDL
MODEL 2
REMARK VINA RESULT:      -7.3      0.656      1.183
REMARK  Name = 
REMARK  4 active torsions:
REMARK  status: ('A' for Active; 'I' for Inactive)
REMARK    1  A    between atoms: C_1  and  C_2
REMARK    2  A    between atoms: C_5  and  C_6
REMARK    3  A    between atoms: C_12  and  C_13
REMARK    4  A    between atoms: C_16  and  C_17
REMARK                            x       y       z     vdW  Elec       q    Type
REMARK                         _______ _______ _______ _____ _____    ______ ____
ROOT
ATOM      1  C   UNL     1       2.179   6.539  20.999  0.00  0.00    +0.000 C 
ATOM      2  C   UNL     1       1.813   7.682  20.283  0.00  0.00    +0.000 C 
ATOM      3  C   UNL     1       2.111   7.613  18.798  0.00  0.00    +0.000 C 
ATOM      4  N   UNL     1       2.197   8.929  18.221  0.00  0.00    +0.000 NA
ATOM      5  C   UNL     1       0.863   9.472  18.201  0.00  0.00    +0.000 C 
ATOM      6  C   UNL     1       0.302   9.682  19.603  0.00  0.00    +0.000 C 
ATOM      7  C   UNL     1      -0.847  10.456  19.654  0.00  0.00    +0.000 C 
ATOM      8  C   UNL     1       1.102   8.988  20.745  0.00  0.00    +0.000 C 
ATOM      9  O   UNL     1       0.894   9.233  21.937  0.00  0.00    +0.000 OA
ATOM     10  H   UNL     1       2.840   9.538  18.783  0.00  0.00    +0.000 HD
ENDROOT
BRANCH   1  15
ATOM     11  C   UNL     1       3.534   1.505  18.283  0.00  0.00    +0.000 C 
ATOM     12  C   UNL     1       3.029   2.799  18.885  0.00  0.00    +0.000 A 
ATOM     13  C   UNL     1       1.672   3.060  19.191  0.00  0.00    +0.000 A 
ATOM     14  C   UNL     1       1.290   4.279  19.835  0.00  0.00    +0.000 A 
ATOM     15  C   UNL     1       2.286   5.240  20.175  0.00  0.00    +0.000 A 
ATOM     16  C   UNL     1       3.607   4.959  19.769  0.00  0.00    +0.000 A 
ATOM     17  C   UNL     1       3.974   3.772  19.162  0.00  0.00    +0.000 A 
ENDBRANCH   1  15
BRANCH   7  18
ATOM     18  C   UNL     1      -1.669  10.643  18.361  0.00  0.00    +0.000 A 
ATOM     19  C   UNL     1      -2.483   9.552  17.983  0.00  0.00    +0.000 A 
ATOM     20  C   UNL     1      -3.189   9.503  16.788  0.00  0.00    +0.000 A 
ATOM     21  C   UNL     1      -3.147  10.576  15.908  0.00  0.00    +0.000 A 
ATOM     22  C   UNL     1      -3.883  10.480  14.581  0.00  0.00    +0.000 C 
ATOM     23  C   UNL     1      -2.421  11.724  16.276  0.00  0.00    +0.000 A 
ATOM     24  C   UNL     1      -1.692  11.783  17.503  0.00  0.00    +0.000 A 
ENDBRANCH   7  18
TORSDOF 2
ENDMDL
MODEL 3
REMARK VINA RESULT:      -7.3      2.096      7.626
REMARK  Name = 
REMARK  4 active torsions:
REMARK  status: ('A' for Active; 'I' for Inactive)
REMARK    1  A    between atoms: C_1  and  C_2
REMARK    2  A    between atoms: C_5  and  C_6
REMARK    3  A    between atoms: C_12  and  C_13
REMARK    4  A    between atoms: C_16  and  C_17
REMARK                            x       y       z     vdW  Elec       q    Type
REMARK                         _______ _______ _______ _____ _____    ______ ____
ROOT
ATOM      1  C   UNL     1      -0.675  11.525  18.125  0.00  0.00    +0.000 C 
ATOM      2  C   UNL     1       0.167  10.595  18.744  0.00  0.00    +0.000 C 
ATOM      3  C   UNL     1      -0.457   9.872  19.922  0.00  0.00    +0.000 C 
ATOM      4  N   UNL     1       0.550   9.341  20.802  0.00  0.00    +0.000 NA
ATOM      5  C   UNL     1       1.177   8.241  20.115  0.00  0.00    +0.000 C 
ATOM      6  C   UNL     1       1.928   8.690  18.865  0.00  0.00    +0.000 C 
ATOM      7  C   UNL     1       2.776   7.735  18.328  0.00  0.00    +0.000 C 
ATOM      8  C   UNL     1       1.614  10.141  18.393  0.00  0.00    +0.000 C 
ATOM      9  O   UNL     1       2.288  10.712  17.531  0.00  0.00    +0.000 OA
ATOM     10  H   UNL     1       1.254  10.079  21.046  0.00  0.00    +0.000 HD
ENDROOT
BRANCH   1  15
ATOM     11  C   UNL     1      -6.476  11.672  19.064  0.00  0.00    +0.000 C 
ATOM     12  C   UNL     1      -5.000  11.452  18.808  0.00  0.00    +0.000 A 
ATOM     13  C   UNL     1      -4.481  10.476  17.924  0.00  0.00    +0.000 A 
ATOM     14  C   UNL     1      -3.075  10.388  17.677  0.00  0.00    +0.000 A 
ATOM     15  C   UNL     1      -2.186  11.294  18.325  0.00  0.00    +0.000 A 
ATOM     16  C   UNL     1      -2.755  12.187  19.257  0.00  0.00    +0.000 A 
ATOM     17  C   UNL     1      -4.117  12.280  19.480  0.00  0.00    +0.000 A 
ENDBRANCH   1  15
BRANCH   7  18
ATOM     18  C   UNL     1       2.567   6.257  18.722  0.00  0.00    +0.000 A 
ATOM     19  C   UNL     1       1.907   5.451  17.769  0.00  0.00    +0.000 A 
ATOM     20  C   UNL     1       1.529   4.137  18.010  0.00  0.00    +0.000 A 
ATOM     21  C   UNL     1       1.828   3.536  19.225  0.00  0.00    +0.000 A 
ATOM     22  C   UNL     1       1.358   2.114  19.488  0.00  0.00    +0.000 C 
ATOM     23  C   UNL     1       2.563   4.267  20.178  0.00  0.00    +0.000 A 
ATOM     24  C   UNL     1       2.956   5.619  19.937  0.00  0.00    +0.000 A 
ENDBRANCH   7  18
TORSDOF 2
ENDMDL
MODEL 4
REMARK VINA RESULT:      -7.2      1.961      7.690
REMARK  Name = 
REMARK  4 active torsions:
REMARK  status: ('A' for Active; 'I' for Inactive)
REMARK    1  A    between atoms: C_1  and  C_2
REMARK    2  A    between atoms: C_5  and  C_6
REMARK    3  A    between atoms: C_12  and  C_13
REMARK    4  A    between atoms: C_16  and  C_17
REMARK                            x       y       z     vdW  Elec       q    Type
REMARK                         _______ _______ _______ _____ _____    ______ ____
ROOT
ATOM      1  C   UNL     1      -0.497  11.381  18.082  0.00  0.00    +0.000 C 
ATOM      2  C   UNL     1       0.375  10.432  18.625  0.00  0.00    +0.000 C 
ATOM      3  C   UNL     1      -0.239   9.562  19.705  0.00  0.00    +0.000 C 
ATOM      4  N   UNL     1       0.773   8.989  20.552  0.00  0.00    +0.000 NA
ATOM      5  C   UNL     1       1.468   7.997  19.773  0.00  0.00    +0.000 C 
ATOM      6  C   UNL     1       2.224   8.608  18.598  0.00  0.00    +0.000 C 
ATOM      7  C   UNL     1       3.130   7.754  17.988  0.00  0.00    +0.000 C 
ATOM      8  C   UNL     1       1.851  10.084  18.268  0.00  0.00    +0.000 C 
ATOM      9  O   UNL     1       2.515  10.772  17.489  0.00  0.00    +0.000 OA
ATOM     10  H   UNL     1       1.435   9.729  20.891  0.00  0.00    +0.000 HD
ENDROOT
BRANCH   1  15
ATOM     11  C   UNL     1      -6.344  11.196  18.648  0.00  0.00    +0.000 C 
ATOM     12  C   UNL     1      -4.844  11.060  18.508  0.00  0.00    +0.000 A 
ATOM     13  C   UNL     1      -4.201  10.035  17.774  0.00  0.00    +0.000 A 
ATOM     14  C   UNL     1      -2.778  10.026  17.623  0.00  0.00    +0.000 A 
ATOM     15  C   UNL     1      -1.999  11.061  18.216  0.00  0.00    +0.000 A 
ATOM     16  C   UNL     1      -2.689  12.005  19.005  0.00  0.00    +0.000 A 
ATOM     17  C   UNL     1      -4.066  12.020  19.133  0.00  0.00    +0.000 A 
ENDBRANCH   1  15
BRANCH   7  18
ATOM     18  C   UNL     1       2.984   6.235  18.222  0.00  0.00    +0.000 A 
ATOM     19  C   UNL     1       4.041   5.614  18.925  0.00  0.00    +0.000 A 
ATOM     20  C   UNL     1       4.131   4.242  19.114  0.00  0.00    +0.000 A 
ATOM     21  C   UNL     1       3.133   3.404  18.633  0.00  0.00    +0.000 A 
ATOM     22  C   UNL     1       3.278   1.900  18.803  0.00  0.00    +0.000 C 
ATOM     23  C   UNL     1       2.014   3.978  18.002  0.00  0.00    +0.000 A 
ATOM     24  C   UNL     1       1.913   5.390  17.804  0.00  0.00    +0.000 A 
ENDBRANCH   7  18
TORSDOF 2
ENDMDL
MODEL 5
REMARK VINA RESULT:      -7.1      2.017      7.457
REMARK  Name = 
REMARK  4 active torsions:
REMARK  status: ('A' for Active; 'I' for Inactive)
REMARK    1  A    between atoms: C_1  and  C_2
REMARK    2  A    between atoms: C_5  and  C_6
REMARK    3  A    between atoms: C_12  and  C_13
REMARK    4  A    between atoms: C_16  and  C_17
REMARK                            x       y       z     vdW  Elec       q    Type
REMARK                         _______ _______ _______ _____ _____    ______ ____
ROOT
ATOM      1  C   UNL     1      -0.488  11.958  18.171  0.00  0.00    +0.000 C 
ATOM      2  C   UNL     1       0.254  10.958  18.806  0.00  0.00    +0.000 C 
ATOM      3  C   UNL     1      -0.451  10.305  19.980  0.00  0.00    +0.000 C 
ATOM      4  N   UNL     1       0.490   9.687  20.876  0.00  0.00    +0.000 NA
ATOM      5  C   UNL     1       1.020   8.529  20.204  0.00  0.00    +0.000 C 
ATOM      6  C   UNL     1       1.827   8.897  18.963  0.00  0.00    +0.000 C 
ATOM      7  C   UNL     1       2.588   7.862  18.443  0.00  0.00    +0.000 C 
ATOM      8  C   UNL     1       1.657  10.367  18.478  0.00  0.00    +0.000 C 
ATOM      9  O   UNL     1       2.393  10.867  17.623  0.00  0.00    +0.000 OA
ATOM     10  H   UNL     1       1.257  10.357  21.127  0.00  0.00    +0.000 HD
ENDROOT
BRANCH   1  15
ATOM     11  C   UNL     1      -6.217  10.678  18.455  0.00  0.00    +0.000 C 
ATOM     12  C   UNL     1      -4.788  11.175  18.442  0.00  0.00    +0.000 A 
ATOM     13  C   UNL     1      -4.242  12.056  19.406  0.00  0.00    +0.000 A 
ATOM     14  C   UNL     1      -2.857  12.413  19.368  0.00  0.00    +0.000 A 
ATOM     15  C   UNL     1      -2.016  11.873  18.351  0.00  0.00    +0.000 A 
ATOM     16  C   UNL     1      -2.637  11.069  17.372  0.00  0.00    +0.000 A 
ATOM     17  C   UNL     1      -3.973  10.714  17.423  0.00  0.00    +0.000 A 
ENDBRANCH   1  15
BRANCH   7  18
ATOM     18  C   UNL     1       2.235   6.413  18.842  0.00  0.00    +0.000 A 
ATOM     19  C   UNL     1       2.000   5.518  17.775  0.00  0.00    +0.000 A 
ATOM     20  C   UNL     1       1.553   4.216  17.955  0.00  0.00    +0.000 A 
ATOM     21  C   UNL     1       1.348   3.718  19.234  0.00  0.00    +0.000 A 
ATOM     22  C   UNL     1       0.807   2.308  19.407  0.00  0.00    +0.000 C 
ATOM     23  C   UNL     1       1.652   4.540  20.336  0.00  0.00    +0.000 A 
ATOM     24  C   UNL     1       2.112   5.881  20.160  0.00  0.00    +0.000 A 
ENDBRANCH   7  18
TORSDOF 2
ENDMDL
MODEL 6
REMARK VINA RESULT:      -7.1      2.719      4.335
REMARK  Name = 
REMARK  4 active torsions:
REMARK  status: ('A' for Active; 'I' for Inactive)
REMARK    1  A    between atoms: C_1  and  C_2
REMARK    2  A    between atoms: C_5  and  C_6
REMARK    3  A    between atoms: C_12  and  C_13
REMARK    4  A    between atoms: C_16  and  C_17
REMARK                            x       y       z     vdW  Elec       q    Type
REMARK                         _______ _______ _______ _____ _____    ______ ____
ROOT
ATOM      1  C   UNL     1       2.826   8.625  17.870  0.00  0.00    +0.000 C 
ATOM      2  C   UNL     1       1.785   9.547  18.009  0.00  0.00    +0.000 C 
ATOM      3  C   UNL     1       0.408   8.923  18.133  0.00  0.00    +0.000 C 
ATOM      4  N   UNL     1      -0.624   9.858  17.769  0.00  0.00    +0.000 NA
ATOM      5  C   UNL     1      -0.685  10.850  18.811  0.00  0.00    +0.000 C 
ATOM      6  C   UNL     1       0.594  11.676  18.902  0.00  0.00    +0.000 C 
ATOM      7  C   UNL     1       0.490  12.816  19.683  0.00  0.00    +0.000 C 
ATOM      8  C   UNL     1       1.808  11.101  18.114  0.00  0.00    +0.000 C 
ATOM      9  O   UNL     1       2.838  11.754  17.924  0.00  0.00    +0.000 OA
ATOM     10  H   UNL     1      -0.411  10.302  16.842  0.00  0.00    +0.000 HD
ENDROOT
BRANCH   1  15
ATOM     11  C   UNL     1       1.142   3.706  20.612  0.00  0.00    +0.000 C 
ATOM     12  C   UNL     1       1.683   4.865  19.802  0.00  0.00    +0.000 A 
ATOM     13  C   UNL     1       1.969   4.805  18.418  0.00  0.00    +0.000 A 
ATOM     14  C   UNL     1       2.400   5.971  17.709  0.00  0.00    +0.000 A 
ATOM     15  C   UNL     1       2.540   7.208  18.404  0.00  0.00    +0.000 A 
ATOM     16  C   UNL     1       2.322   7.184  19.797  0.00  0.00    +0.000 A 
ATOM     17  C   UNL     1       1.888   6.058  20.474  0.00  0.00    +0.000 A 
ENDBRANCH   1  15
BRANCH   7  18
ATOM     18  C   UNL     1      -0.672  12.914  20.695  0.00  0.00    +0.000 A 
ATOM     19  C   UNL     1      -0.457  12.292  21.945  0.00  0.00    +0.000 A 
ATOM     20  C   UNL     1      -1.438  12.178  22.920  0.00  0.00    +0.000 A 
ATOM     21  C   UNL     1      -2.699  12.721  22.710  0.00  0.00    +0.000 A 
ATOM     22  C   UNL     1      -3.775  12.538  23.769  0.00  0.00    +0.000 C 
ATOM     23  C   UNL     1      -2.940  13.428  21.517  0.00  0.00    +0.000 A 
ATOM     24  C   UNL     1      -1.935  13.550  20.508  0.00  0.00    +0.000 A 
ENDBRANCH   7  18
TORSDOF 2
ENDMDL
MODEL 7
REMARK VINA RESULT:      -7.0      5.759      8.869
REMARK  Name = 
REMARK  4 active torsions:
REMARK  status: ('A' for Active; 'I' for Inactive)
REMARK    1  A    between atoms: C_1  and  C_2
REMARK    2  A    between atoms: C_5  and  C_6
REMARK    3  A    between atoms: C_12  and  C_13
REMARK    4  A    between atoms: C_16  and  C_17
REMARK                            x       y       z     vdW  Elec       q    Type
REMARK                         _______ _______ _______ _____ _____    ______ ____
ROOT
ATOM      1  C   UNL     1       3.766   6.099  17.756  0.00  0.00    +0.000 C 
ATOM      2  C   UNL     1       4.761   5.630  16.893  0.00  0.00    +0.000 C 
ATOM      3  C   UNL     1       5.307   4.262  17.252  0.00  0.00    +0.000 C 
ATOM      4  N   UNL     1       6.613   4.055  16.685  0.00  0.00    +0.000 NA
ATOM      5  C   UNL     1       6.441   3.910  15.262  0.00  0.00    +0.000 C 
ATOM      6  C   UNL     1       5.913   5.183  14.609  0.00  0.00    +0.000 C 
ATOM      7  C   UNL     1       5.995   5.197  13.225  0.00  0.00    +0.000 C 
ATOM      8  C   UNL     1       5.361   6.252  15.598  0.00  0.00    +0.000 C 
ATOM      9  O   UNL     1       5.094   7.402  15.240  0.00  0.00    +0.000 OA
ATOM     10  H   UNL     1       7.244   4.865  16.904  0.00  0.00    +0.000 HD
ENDROOT
BRANCH   1  15
ATOM     11  C   UNL     1       1.016   2.589  21.586  0.00  0.00    +0.000 C 
ATOM     12  C   UNL     1       1.693   3.362  20.475  0.00  0.00    +0.000 A 
ATOM     13  C   UNL     1       1.254   3.373  19.129  0.00  0.00    +0.000 A 
ATOM     14  C   UNL     1       1.903   4.196  18.155  0.00  0.00    +0.000 A 
ATOM     15  C   UNL     1       3.001   5.018  18.544  0.00  0.00    +0.000 A 
ATOM     16  C   UNL     1       3.443   4.900  19.878  0.00  0.00    +0.000 A 
ATOM     17  C   UNL     1       2.802   4.115  20.820  0.00  0.00    +0.000 A 
ENDBRANCH   1  15
BRANCH   7  18
ATOM     18  C   UNL     1       6.167   3.855  12.482  0.00  0.00    +0.000 A 
ATOM     19  C   UNL     1       4.974   3.167  12.166  0.00  0.00    +0.000 A 
ATOM     20  C   UNL     1       4.949   1.894  11.613  0.00  0.00    +0.000 A 
ATOM     21  C   UNL     1       6.137   1.243  11.306  0.00  0.00    +0.000 A 
ATOM     22  C   UNL     1       6.089  -0.171  10.750  0.00  0.00    +0.000 C 
ATOM     23  C   UNL     1       7.353   1.919  11.519  0.00  0.00    +0.000 A 
ATOM     24  C   UNL     1       7.387   3.229  12.088  0.00  0.00    +0.000 A 
ENDBRANCH   7  18
TORSDOF 2
ENDMDL
MODEL 8
REMARK VINA RESULT:      -7.0      3.308      7.913
REMARK  Name = 
REMARK  4 active torsions:
REMARK  status: ('A' for Active; 'I' for Inactive)
REMARK    1  A    between atoms: C_1  and  C_2
REMARK    2  A    between atoms: C_5  and  C_6
REMARK    3  A    between atoms: C_12  and  C_13
REMARK    4  A    between atoms: C_16  and  C_17
REMARK                            x       y       z     vdW  Elec       q    Type
REMARK                         _______ _______ _______ _____ _____    ______ ____
ROOT
ATOM      1  C   UNL     1       1.005  11.858  20.598  0.00  0.00    +0.000 C 
ATOM      2  C   UNL     1       0.994  10.647  19.898  0.00  0.00    +0.000 C 
ATOM      3  C   UNL     1       0.928  10.797  18.390  0.00  0.00    +0.000 C 
ATOM      4  N   UNL     1       0.420   9.602  17.769  0.00  0.00    +0.000 NA
ATOM      5  C   UNL     1       1.439   8.592  17.894  0.00  0.00    +0.000 C 
ATOM      6  C   UNL     1       1.703   8.210  19.347  0.00  0.00    +0.000 C 
ATOM      7  C   UNL     1       2.456   7.059  19.513  0.00  0.00    +0.000 C 
ATOM      8  C   UNL     1       1.093   9.178  20.404  0.00  0.00    +0.000 C 
ATOM      9  O   UNL     1       1.045   8.895  21.604  0.00  0.00    +0.000 OA
ATOM     10  H   UNL     1      -0.470   9.295  18.232  0.00  0.00    +0.000 HD
ENDROOT
BRANCH   1  15
ATOM     11  C   UNL     1       2.137  17.043  18.073  0.00  0.00    +0.000 C 
ATOM     12  C   UNL     1       1.977  15.639  18.614  0.00  0.00    +0.000 A 
ATOM     13  C   UNL     1       3.047  14.734  18.814  0.00  0.00    +0.000 A 
ATOM     14  C   UNL     1       2.819  13.453  19.408  0.00  0.00    +0.000 A 
ATOM     15  C   UNL     1       1.501  13.083  19.806  0.00  0.00    +0.000 A 
ATOM     16  C   UNL     1       0.466  13.992  19.504  0.00  0.00    +0.000 A 
ATOM     17  C   UNL     1       0.694  15.237  18.945  0.00  0.00    +0.000 A 
ENDBRANCH   1  15
BRANCH   7  18
ATOM     18  C   UNL     1       3.296   6.549  18.322  0.00  0.00    +0.000 A 
ATOM     19  C   UNL     1       3.137   5.185  17.993  0.00  0.00    +0.000 A 
ATOM     20  C   UNL     1       3.903   4.535  17.035  0.00  0.00    +0.000 A 
ATOM     21  C   UNL     1       4.863   5.235  16.316  0.00  0.00    +0.000 A 
ATOM     22  C   UNL     1       5.728   4.492  15.310  0.00  0.00    +0.000 C 
ATOM     23  C   UNL     1       5.003   6.617  16.543  0.00  0.00    +0.000 A 
ATOM     24  C   UNL     1       4.218   7.293  17.527  0.00  0.00    +0.000 A 
ENDBRANCH   7  18
TORSDOF 2
ENDMDL
MODEL 9
REMARK VINA RESULT:      -6.8      2.034      7.582
REMARK  Name = 
REMARK  4 active torsions:
REMARK  status: ('A' for Active; 'I' for Inactive)
REMARK    1  A    between atoms: C_1  and  C_2
REMARK    2  A    between atoms: C_5  and  C_6
REMARK    3  A    between atoms: C_12  and  C_13
REMARK    4  A    between atoms: C_16  and  C_17
REMARK                            x       y       z     vdW  Elec       q    Type
REMARK                         _______ _______ _______ _____ _____    ______ ____
ROOT
ATOM      1  C   UNL     1      -0.491  11.980  18.150  0.00  0.00    +0.000 C 
ATOM      2  C   UNL     1       0.244  10.967  18.774  0.00  0.00    +0.000 C 
ATOM      3  C   UNL     1      -0.462  10.312  19.945  0.00  0.00    +0.000 C 
ATOM      4  N   UNL     1       0.477   9.676  20.832  0.00  0.00    +0.000 NA
ATOM      5  C   UNL     1       0.991   8.518  20.147  0.00  0.00    +0.000 C 
ATOM      6  C   UNL     1       1.796   8.888  18.905  0.00  0.00    +0.000 C 
ATOM      7  C   UNL     1       2.544   7.850  18.372  0.00  0.00    +0.000 C 
ATOM      8  C   UNL     1       1.639  10.365  18.433  0.00  0.00    +0.000 C 
ATOM      9  O   UNL     1       2.376  10.863  17.579  0.00  0.00    +0.000 OA
ATOM     10  H   UNL     1       1.252  10.337  21.084  0.00  0.00    +0.000 HD
ENDROOT
BRANCH   1  15
ATOM     11  C   UNL     1      -6.239  10.778  18.405  0.00  0.00    +0.000 C 
ATOM     12  C   UNL     1      -4.801  11.252  18.410  0.00  0.00    +0.000 A 
ATOM     13  C   UNL     1      -4.234  12.067  19.418  0.00  0.00    +0.000 A 
ATOM     14  C   UNL     1      -2.843  12.403  19.390  0.00  0.00    +0.000 A 
ATOM     15  C   UNL     1      -2.019  11.909  18.337  0.00  0.00    +0.000 A 
ATOM     16  C   UNL     1      -2.659  11.174  17.319  0.00  0.00    +0.000 A 
ATOM     17  C   UNL     1      -4.001  10.837  17.359  0.00  0.00    +0.000 A 
ENDBRANCH   1  15
BRANCH   7  18
ATOM     18  C   UNL     1       2.178   6.402  18.762  0.00  0.00    +0.000 A 
ATOM     19  C   UNL     1       2.295   6.082  20.133  0.00  0.00    +0.000 A 
ATOM     20  C   UNL     1       2.126   4.799  20.635  0.00  0.00    +0.000 A 
ATOM     21  C   UNL     1       1.790   3.755  19.785  0.00  0.00    +0.000 A 
ATOM     22  C   UNL     1       1.662   2.348  20.347  0.00  0.00    +0.000 C 
ATOM     23  C   UNL     1       1.575   4.035  18.422  0.00  0.00    +0.000 A 
ATOM     24  C   UNL     1       1.746   5.353  17.897  0.00  0.00    +0.000 A 
ENDBRANCH   7  18
TORSDOF 2
ENDMDL
