MODEL 1
REMARK VINA RESULT:      -7.1      0.000      0.000
REMARK  Name = 
REMARK  13 active torsions:
REMARK  status: ('A' for Active; 'I' for Inactive)
REMARK    1  A    between atoms: C_1  and  C_2
REMARK    2  A    between atoms: C_2  and  O_3
REMARK    3  A    between atoms: O_3  and  C_4
REMARK    4  A    between atoms: C_4  and  C_6
REMARK    5  A    between atoms: C_10  and  O_11
REMARK    6  A    between atoms: O_11  and  C_12
REMARK    7  A    between atoms: C_12  and  C_13
REMARK    8  A    between atoms: C_13  and  C_14
REMARK    9  A    between atoms: C_13  and  O_16
REMARK   10  A    between atoms: C_14  and  C_15
REMARK   11  A    between atoms: O_16  and  C_17
REMARK   12  A    between atoms: N_19  and  C_20
REMARK   13  A    between atoms: C_20  and  C_21
REMARK                            x       y       z     vdW  Elec       q    Type
REMARK                         _______ _______ _______ _____ _____    ______ ____
ROOT
ATOM      1  C   UNL     1       5.158   5.843  17.489  0.00  0.00    +0.000 C 
ENDROOT
BRANCH   1   2
ATOM      2  C   UNL     1       3.665   5.523  17.322  0.00  0.00    +0.000 C 
ATOM      3  C   UNL     1       2.757   6.355  18.217  0.00  0.00    +0.000 C 
ENDBRANCH   1   2
BRANCH   1   4
ATOM      4  C   UNL     1       5.778   6.157  16.121  0.00  0.00    +0.000 C 
BRANCH   4   5
ATOM      5  O   UNL     1       6.711   5.120  15.794  0.00  0.00    +0.000 OA
BRANCH   5  10
ATOM      6  C   UNL     1       6.199   3.553  12.466  0.00  0.00    +0.000 A 
ATOM      7  C   UNL     1       7.180   4.245  11.748  0.00  0.00    +0.000 A 
ATOM      8  C   UNL     1       7.975   5.190  12.391  0.00  0.00    +0.000 A 
ATOM      9  C   UNL     1       7.788   5.446  13.754  0.00  0.00    +0.000 A 
ATOM     10  C   UNL     1       6.805   4.765  14.478  0.00  0.00    +0.000 A 
ATOM     11  C   UNL     1       6.012   3.818  13.833  0.00  0.00    +0.000 A 
BRANCH   6  12
ATOM     12  C   UNL     1       5.335   2.592  11.730  0.00  0.00    +0.000 C 
ATOM     13  O   UNL     1       5.759   1.592  11.172  0.00  0.00    +0.000 OA
BRANCH  12  14
ATOM     14  O   UNL     1       4.056   3.042  11.705  0.00  0.00    +0.000 OA
BRANCH  14  16
ATOM     15  C   UNL     1       2.850   3.441   9.680  0.00  0.00    +0.000 C 
ATOM     16  C   UNL     1       3.772   4.045  10.723  0.00  0.00    +0.000 C 
ENDBRANCH  14  16
ENDBRANCH  12  14
ENDBRANCH   6  12
ENDBRANCH   5  10
ENDBRANCH   4   5
ENDBRANCH   1   4
BRANCH   1  17
ATOM     17  O   UNL     1       5.865   4.690  17.999  0.00  0.00    +0.000 OA
BRANCH  17  18
ATOM     18  C   UNL     1       6.190   4.712  19.314  0.00  0.00    +0.000 C 
ATOM     19  O   UNL     1       7.148   5.297  19.801  0.00  0.00    +0.000 OA
ATOM     20  N   UNL     1       5.309   4.026  20.097  0.00  0.00    +0.000 N 
ATOM     21  H   UNL     1       5.524   4.119  21.078  0.00  0.00    +0.000 HD
BRANCH  20  22
ATOM     22  C   UNL     1       4.688   2.789  19.685  0.00  0.00    +0.000 C 
BRANCH  22  23
ATOM     23  C   UNL     1       3.186   2.852  19.698  0.00  0.00    +0.000 A 
ATOM     24  C   UNL     1       2.519   3.551  20.714  0.00  0.00    +0.000 A 
ATOM     25  C   UNL     1       1.126   3.630  20.728  0.00  0.00    +0.000 A 
ATOM     26  C   UNL     1       0.384   3.005  19.726  0.00  0.00    +0.000 A 
ATOM     27  C   UNL     1       1.035   2.300  18.713  0.00  0.00    +0.000 A 
ATOM     28  C   UNL     1       2.429   2.222  18.700  0.00  0.00    +0.000 A 
ENDBRANCH  22  23
ENDBRANCH  20  22
ENDBRANCH  17  18
ENDBRANCH   1  17
TORSDOF 11
ENDMDL
MODEL 2
REMARK VINA RESULT:      -7.0      5.912      8.412
REMARK  Name = 
REMARK  13 active torsions:
REMARK  status: ('A' for Active; 'I' for Inactive)
REMARK    1  A    between atoms: C_1  and  C_2
REMARK    2  A    between atoms: C_2  and  O_3
REMARK    3  A    between atoms: O_3  and  C_4
REMARK    4  A    between atoms: C_4  and  C_6
REMARK    5  A    between atoms: C_10  and  O_11
REMARK    6  A    between atoms: O_11  and  C_12
REMARK    7  A    between atoms: C_12  and  C_13
REMARK    8  A    between atoms: C_13  and  C_14
REMARK    9  A    between atoms: C_13  and  O_16
REMARK   10  A    between atoms: C_14  and  C_15
REMARK   11  A    between atoms: O_16  and  C_17
REMARK   12  A    between atoms: N_19  and  C_20
REMARK   13  A    between atoms: C_20  and  C_21
REMARK                            x       y       z     vdW  Elec       q    Type
REMARK                         _______ _______ _______ _____ _____    ______ ____
ROOT
ATOM      1  C   UNL     1       7.495   7.459  17.377  0.00  0.00    +0.000 C 
ENDROOT
BRANCH   1   2
ATOM      2  C   UNL     1       7.718   6.631  18.652  0.00  0.00    +0.000 C 
ATOM      3  C   UNL     1       7.964   5.153  18.385  0.00  0.00    +0.000 C 
ENDBRANCH   1   2
BRANCH   1   4
ATOM      4  C   UNL     1       7.890   8.919  17.631  0.00  0.00    +0.000 C 
BRANCH   4   5
ATOM      5  O   UNL     1       8.806   8.961  18.732  0.00  0.00    +0.000 OA
BRANCH   5  10
ATOM      6  C   UNL     1      10.516  12.248  18.480  0.00  0.00    +0.000 A 
ATOM      7  C   UNL     1      10.494  12.607  19.831  0.00  0.00    +0.000 A 
ATOM      8  C   UNL     1       9.927  11.748  20.770  0.00  0.00    +0.000 A 
ATOM      9  C   UNL     1       9.378  10.530  20.356  0.00  0.00    +0.000 A 
ATOM     10  C   UNL     1       9.389  10.165  19.007  0.00  0.00    +0.000 A 
ATOM     11  C   UNL     1       9.959  11.025  18.069  0.00  0.00    +0.000 A 
BRANCH   6  12
ATOM     12  C   UNL     1      11.082  13.217  17.504  0.00  0.00    +0.000 C 
ATOM     13  O   UNL     1      12.048  12.978  16.797  0.00  0.00    +0.000 OA
BRANCH  12  14
ATOM     14  O   UNL     1      10.425  14.400  17.590  0.00  0.00    +0.000 OA
BRANCH  14  16
ATOM     15  C   UNL     1      10.345  16.758  17.199  0.00  0.00    +0.000 C 
ATOM     16  C   UNL     1      11.245  15.571  17.493  0.00  0.00    +0.000 C 
ENDBRANCH  14  16
ENDBRANCH  12  14
ENDBRANCH   6  12
ENDBRANCH   5  10
ENDBRANCH   4   5
ENDBRANCH   1   4
BRANCH   1  17
ATOM     17  O   UNL     1       6.092   7.474  17.027  0.00  0.00    +0.000 OA
BRANCH  17  18
ATOM     18  C   UNL     1       5.623   6.395  16.357  0.00  0.00    +0.000 C 
ATOM     19  O   UNL     1       6.029   5.999  15.272  0.00  0.00    +0.000 OA
ATOM     20  N   UNL     1       4.640   5.730  17.028  0.00  0.00    +0.000 N 
ATOM     21  H   UNL     1       4.359   4.887  16.549  0.00  0.00    +0.000 HD
BRANCH  20  22
ATOM     22  C   UNL     1       3.624   6.402  17.804  0.00  0.00    +0.000 C 
BRANCH  22  23
ATOM     23  C   UNL     1       2.716   5.452  18.532  0.00  0.00    +0.000 A 
ATOM     24  C   UNL     1       2.447   5.638  19.895  0.00  0.00    +0.000 A 
ATOM     25  C   UNL     1       1.592   4.771  20.577  0.00  0.00    +0.000 A 
ATOM     26  C   UNL     1       1.000   3.704  19.902  0.00  0.00    +0.000 A 
ATOM     27  C   UNL     1       1.264   3.504  18.547  0.00  0.00    +0.000 A 
ATOM     28  C   UNL     1       2.119   4.372  17.865  0.00  0.00    +0.000 A 
ENDBRANCH  22  23
ENDBRANCH  20  22
ENDBRANCH  17  18
ENDBRANCH   1  17
TORSDOF 11
ENDMDL
MODEL 3
REMARK VINA RESULT:      -6.9      4.150      8.680
REMARK  Name = 
REMARK  13 active torsions:
REMARK  status: ('A' for Active; 'I' for Inactive)
REMARK    1  A    between atoms: C_1  and  C_2
REMARK    2  A    between atoms: C_2  and  O_3
REMARK    3  A    between atoms: O_3  and  C_4
REMARK    4  A    between atoms: C_4  and  C_6
REMARK    5  A    between atoms: C_10  and  O_11
REMARK    6  A    between atoms: O_11  and  C_12
REMARK    7  A    between atoms: C_12  and  C_13
REMARK    8  A    between atoms: C_13  and  C_14
REMARK    9  A    between atoms: C_13  and  O_16
REMARK   10  A    between atoms: C_14  and  C_15
REMARK   11  A    between atoms: O_16  and  C_17
REMARK   12  A    between atoms: N_19  and  C_20
REMARK   13  A    between atoms: C_20  and  C_21
REMARK                            x       y       z     vdW  Elec       q    Type
REMARK                         _______ _______ _______ _____ _____    ______ ____
ROOT
ATOM      1  C   UNL     1       2.546   3.748  20.720  0.00  0.00    +0.000 C 
ENDROOT
BRANCH   1   2
ATOM      2  C   UNL     1       1.406   2.728  20.580  0.00  0.00    +0.000 C 
ATOM      3  C   UNL     1       0.703   2.778  19.231  0.00  0.00    +0.000 C 
ENDBRANCH   1   2
BRANCH   1   4
ATOM      4  C   UNL     1       1.965   5.147  20.964  0.00  0.00    +0.000 C 
BRANCH   4   5
ATOM      5  O   UNL     1       2.466   6.033  19.956  0.00  0.00    +0.000 OA
BRANCH   5  10
ATOM      6  C   UNL     1       0.841   9.251  20.852  0.00  0.00    +0.000 A 
ATOM      7  C   UNL     1       1.019   9.927  19.640  0.00  0.00    +0.000 A 
ATOM      8  C   UNL     1       1.656   9.292  18.577  0.00  0.00    +0.000 A 
ATOM      9  C   UNL     1       2.120   7.980  18.725  0.00  0.00    +0.000 A 
ATOM     10  C   UNL     1       1.953   7.299  19.934  0.00  0.00    +0.000 A 
ATOM     11  C   UNL     1       1.313   7.935  20.997  0.00  0.00    +0.000 A 
BRANCH   6  12
ATOM     12  C   UNL     1       0.205   9.983  21.979  0.00  0.00    +0.000 C 
ATOM     13  O   UNL     1      -0.457   9.440  22.849  0.00  0.00    +0.000 OA
BRANCH  12  14
ATOM     14  O   UNL     1       0.400  11.317  21.835  0.00  0.00    +0.000 OA
BRANCH  14  16
ATOM     15  C   UNL     1      -1.432  12.535  20.899  0.00  0.00    +0.000 C 
ATOM     16  C   UNL     1      -0.716  12.146  22.180  0.00  0.00    +0.000 C 
ENDBRANCH  14  16
ENDBRANCH  12  14
ENDBRANCH   6  12
ENDBRANCH   5  10
ENDBRANCH   4   5
ENDBRANCH   1   4
BRANCH   1  17
ATOM     17  O   UNL     1       3.298   3.833  19.487  0.00  0.00    +0.000 OA
BRANCH  17  18
ATOM     18  C   UNL     1       4.270   2.907  19.307  0.00  0.00    +0.000 C 
ATOM     19  O   UNL     1       4.946   2.401  20.193  0.00  0.00    +0.000 OA
ATOM     20  N   UNL     1       4.427   2.538  18.004  0.00  0.00    +0.000 N 
ATOM     21  H   UNL     1       5.100   1.794  17.899  0.00  0.00    +0.000 HD
BRANCH  20  22
ATOM     22  C   UNL     1       4.316   3.469  16.904  0.00  0.00    +0.000 C 
BRANCH  22  23
ATOM     23  C   UNL     1       5.187   4.682  17.070  0.00  0.00    +0.000 A 
ATOM     24  C   UNL     1       6.557   4.536  17.328  0.00  0.00    +0.000 A 
ATOM     25  C   UNL     1       7.379   5.655  17.468  0.00  0.00    +0.000 A 
ATOM     26  C   UNL     1       6.835   6.935  17.355  0.00  0.00    +0.000 A 
ATOM     27  C   UNL     1       5.473   7.094  17.105  0.00  0.00    +0.000 A 
ATOM     28  C   UNL     1       4.651   5.974  16.965  0.00  0.00    +0.000 A 
ENDBRANCH  22  23
ENDBRANCH  20  22
ENDBRANCH  17  18
ENDBRANCH   1  17
TORSDOF 11
ENDMDL
MODEL 4
REMARK VINA RESULT:      -6.9      3.636      6.987
REMARK  Name = 
REMARK  13 active torsions:
REMARK  status: ('A' for Active; 'I' for Inactive)
REMARK    1  A    between atoms: C_1  and  C_2
REMARK    2  A    between atoms: C_2  and  O_3
REMARK    3  A    between atoms: O_3  and  C_4
REMARK    4  A    between atoms: C_4  and  C_6
REMARK    5  A    between atoms: C_10  and  O_11
REMARK    6  A    between atoms: O_11  and  C_12
REMARK    7  A    between atoms: C_12  and  C_13
REMARK    8  A    between atoms: C_13  and  C_14
REMARK    9  A    between atoms: C_13  and  O_16
REMARK   10  A    between atoms: C_14  and  C_15
REMARK   11  A    between atoms: O_16  and  C_17
REMARK   12  A    between atoms: N_19  and  C_20
REMARK   13  A    between atoms: C_20  and  C_21
REMARK                            x       y       z     vdW  Elec       q    Type
REMARK                         _______ _______ _______ _____ _____    ______ ____
ROOT
ATOM      1  C   UNL     1       5.808   6.122  16.777  0.00  0.00    +0.000 C 
ENDROOT
BRANCH   1   2
ATOM      2  C   UNL     1       7.303   6.281  17.094  0.00  0.00    +0.000 C 
ATOM      3  C   UNL     1       7.670   7.653  17.640  0.00  0.00    +0.000 C 
ENDBRANCH   1   2
BRANCH   1   4
ATOM      4  C   UNL     1       5.028   7.315  17.343  0.00  0.00    +0.000 C 
BRANCH   4   5
ATOM      5  O   UNL     1       3.627   7.070  17.169  0.00  0.00    +0.000 OA
BRANCH   5  10
ATOM      6  C   UNL     1       1.117   9.236  18.843  0.00  0.00    +0.000 A 
ATOM      7  C   UNL     1       1.101   8.618  20.098  0.00  0.00    +0.000 A 
ATOM      8  C   UNL     1       1.924   7.521  20.343  0.00  0.00    +0.000 A 
ATOM      9  C   UNL     1       2.762   7.040  19.332  0.00  0.00    +0.000 A 
ATOM     10  C   UNL     1       2.780   7.647  18.073  0.00  0.00    +0.000 A 
ATOM     11  C   UNL     1       1.958   8.745  17.830  0.00  0.00    +0.000 A 
BRANCH   6  12
ATOM     12  C   UNL     1       0.184  10.369  18.606  0.00  0.00    +0.000 C 
ATOM     13  O   UNL     1       0.206  11.408  19.246  0.00  0.00    +0.000 OA
BRANCH  12  14
ATOM     14  O   UNL     1      -0.721  10.033  17.652  0.00  0.00    +0.000 OA
BRANCH  14  16
ATOM     15  C   UNL     1      -3.097   9.772  17.619  0.00  0.00    +0.000 C 
ATOM     16  C   UNL     1      -1.951  10.766  17.683  0.00  0.00    +0.000 C 
ENDBRANCH  14  16
ENDBRANCH  12  14
ENDBRANCH   6  12
ENDBRANCH   5  10
ENDBRANCH   4   5
ENDBRANCH   1   4
BRANCH   1  17
ATOM     17  O   UNL     1       5.278   4.946  17.431  0.00  0.00    +0.000 OA
BRANCH  17  18
ATOM     18  C   UNL     1       5.136   3.839  16.662  0.00  0.00    +0.000 C 
ATOM     19  O   UNL     1       5.897   3.487  15.771  0.00  0.00    +0.000 OA
ATOM     20  N   UNL     1       4.044   3.093  16.993  0.00  0.00    +0.000 N 
ATOM     21  H   UNL     1       3.997   2.235  16.463  0.00  0.00    +0.000 HD
BRANCH  20  22
ATOM     22  C   UNL     1       2.784   3.675  17.392  0.00  0.00    +0.000 C 
BRANCH  22  23
ATOM     23  C   UNL     1       2.453   3.429  18.837  0.00  0.00    +0.000 A 
ATOM     24  C   UNL     1       3.407   2.859  19.691  0.00  0.00    +0.000 A 
ATOM     25  C   UNL     1       3.117   2.641  21.039  0.00  0.00    +0.000 A 
ATOM     26  C   UNL     1       1.865   2.987  21.545  0.00  0.00    +0.000 A 
ATOM     27  C   UNL     1       0.904   3.549  20.705  0.00  0.00    +0.000 A 
ATOM     28  C   UNL     1       1.195   3.767  19.356  0.00  0.00    +0.000 A 
ENDBRANCH  22  23
ENDBRANCH  20  22
ENDBRANCH  17  18
ENDBRANCH   1  17
TORSDOF 11
ENDMDL
MODEL 5
REMARK VINA RESULT:      -6.9      4.064      8.128
REMARK  Name = 
REMARK  13 active torsions:
REMARK  status: ('A' for Active; 'I' for Inactive)
REMARK    1  A    between atoms: C_1  and  C_2
REMARK    2  A    between atoms: C_2  and  O_3
REMARK    3  A    between atoms: O_3  and  C_4
REMARK    4  A    between atoms: C_4  and  C_6
REMARK    5  A    between atoms: C_10  and  O_11
REMARK    6  A    between atoms: O_11  and  C_12
REMARK    7  A    between atoms: C_12  and  C_13
REMARK    8  A    between atoms: C_13  and  C_14
REMARK    9  A    between atoms: C_13  and  O_16
REMARK   10  A    between atoms: C_14  and  C_15
REMARK   11  A    between atoms: O_16  and  C_17
REMARK   12  A    between atoms: N_19  and  C_20
REMARK   13  A    between atoms: C_20  and  C_21
REMARK                            x       y       z     vdW  Elec       q    Type
REMARK                         _______ _______ _______ _____ _____    ______ ____
ROOT
ATOM      1  C   UNL     1       4.545   5.906  18.124  0.00  0.00    +0.000 C 
ENDROOT
BRANCH   1   2
ATOM      2  C   UNL     1       5.397   5.157  19.159  0.00  0.00    +0.000 C 
ATOM      3  C   UNL     1       6.852   5.604  19.192  0.00  0.00    +0.000 C 
ENDBRANCH   1   2
BRANCH   1   4
ATOM      4  C   UNL     1       3.300   6.493  18.802  0.00  0.00    +0.000 C 
BRANCH   4   5
ATOM      5  O   UNL     1       3.002   7.757  18.196  0.00  0.00    +0.000 OA
BRANCH   5  10
ATOM      6  C   UNL     1       0.416   9.165  20.460  0.00  0.00    +0.000 A 
ATOM      7  C   UNL     1      -0.176  10.071  19.574  0.00  0.00    +0.000 A 
ATOM      8  C   UNL     1       0.294  10.173  18.267  0.00  0.00    +0.000 A 
ATOM      9  C   UNL     1       1.359   9.371  17.845  0.00  0.00    +0.000 A 
ATOM     10  C   UNL     1       1.961   8.467  18.725  0.00  0.00    +0.000 A 
ATOM     11  C   UNL     1       1.489   8.364  20.032  0.00  0.00    +0.000 A 
BRANCH   6  12
ATOM     12  C   UNL     1      -0.079   9.125  21.861  0.00  0.00    +0.000 C 
ATOM     13  O   UNL     1      -0.721   8.196  22.326  0.00  0.00    +0.000 OA
BRANCH  12  14
ATOM     14  O   UNL     1       0.213  10.291  22.490  0.00  0.00    +0.000 OA
BRANCH  14  16
ATOM     15  C   UNL     1      -0.909  12.402  22.484  0.00  0.00    +0.000 C 
ATOM     16  C   UNL     1      -0.907  10.992  23.045  0.00  0.00    +0.000 C 
ENDBRANCH  14  16
ENDBRANCH  12  14
ENDBRANCH   6  12
ENDBRANCH   5  10
ENDBRANCH   4   5
ENDBRANCH   1   4
BRANCH   1  17
ATOM     17  O   UNL     1       4.061   4.991  17.114  0.00  0.00    +0.000 OA
BRANCH  17  18
ATOM     18  C   UNL     1       4.847   3.923  16.839  0.00  0.00    +0.000 C 
ATOM     19  O   UNL     1       5.869   3.944  16.166  0.00  0.00    +0.000 OA
ATOM     20  N   UNL     1       4.413   2.771  17.425  0.00  0.00    +0.000 N 
ATOM     21  H   UNL     1       5.052   2.005  17.273  0.00  0.00    +0.000 HD
BRANCH  20  22
ATOM     22  C   UNL     1       3.015   2.430  17.551  0.00  0.00    +0.000 C 
BRANCH  22  23
ATOM     23  C   UNL     1       2.471   2.680  18.929  0.00  0.00    +0.000 A 
ATOM     24  C   UNL     1       3.266   2.434  20.057  0.00  0.00    +0.000 A 
ATOM     25  C   UNL     1       2.777   2.678  21.341  0.00  0.00    +0.000 A 
ATOM     26  C   UNL     1       1.482   3.166  21.510  0.00  0.00    +0.000 A 
ATOM     27  C   UNL     1       0.677   3.409  20.397  0.00  0.00    +0.000 A 
ATOM     28  C   UNL     1       1.167   3.165  19.112  0.00  0.00    +0.000 A 
ENDBRANCH  22  23
ENDBRANCH  20  22
ENDBRANCH  17  18
ENDBRANCH   1  17
TORSDOF 11
ENDMDL
MODEL 6
REMARK VINA RESULT:      -6.9      4.194      8.051
REMARK  Name = 
REMARK  13 active torsions:
REMARK  status: ('A' for Active; 'I' for Inactive)
REMARK    1  A    between atoms: C_1  and  C_2
REMARK    2  A    between atoms: C_2  and  O_3
REMARK    3  A    between atoms: O_3  and  C_4
REMARK    4  A    between atoms: C_4  and  C_6
REMARK    5  A    between atoms: C_10  and  O_11
REMARK    6  A    between atoms: O_11  and  C_12
REMARK    7  A    between atoms: C_12  and  C_13
REMARK    8  A    between atoms: C_13  and  C_14
REMARK    9  A    between atoms: C_13  and  O_16
REMARK   10  A    between atoms: C_14  and  C_15
REMARK   11  A    between atoms: O_16  and  C_17
REMARK   12  A    between atoms: N_19  and  C_20
REMARK   13  A    between atoms: C_20  and  C_21
REMARK                            x       y       z     vdW  Elec       q    Type
REMARK                         _______ _______ _______ _____ _____    ______ ____
ROOT
ATOM      1  C   UNL     1       5.729   6.094  17.255  0.00  0.00    +0.000 C 
ENDROOT
BRANCH   1   2
ATOM      2  C   UNL     1       5.992   4.814  16.448  0.00  0.00    +0.000 C 
ATOM      3  C   UNL     1       6.052   5.042  14.944  0.00  0.00    +0.000 C 
ENDBRANCH   1   2
BRANCH   1   4
ATOM      4  C   UNL     1       4.529   6.845  16.664  0.00  0.00    +0.000 C 
BRANCH   4   5
ATOM      5  O   UNL     1       3.721   7.335  17.740  0.00  0.00    +0.000 OA
BRANCH   5  10
ATOM      6  C   UNL     1       1.902   4.271  18.790  0.00  0.00    +0.000 A 
ATOM      7  C   UNL     1       1.457   4.703  20.044  0.00  0.00    +0.000 A 
ATOM      8  C   UNL     1       1.765   5.987  20.486  0.00  0.00    +0.000 A 
ATOM      9  C   UNL     1       2.522   6.840  19.676  0.00  0.00    +0.000 A 
ATOM     10  C   UNL     1       2.977   6.415  18.424  0.00  0.00    +0.000 A 
ATOM     11  C   UNL     1       2.666   5.131  17.982  0.00  0.00    +0.000 A 
BRANCH   6  12
ATOM     12  C   UNL     1       1.597   2.875  18.378  0.00  0.00    +0.000 C 
ATOM     13  O   UNL     1       0.565   2.294  18.672  0.00  0.00    +0.000 OA
BRANCH  12  14
ATOM     14  O   UNL     1       2.658   2.343  17.720  0.00  0.00    +0.000 OA
BRANCH  14  16
ATOM     15  C   UNL     1       4.194   2.185  19.545  0.00  0.00    +0.000 C 
ATOM     16  C   UNL     1       3.448   1.414  18.471  0.00  0.00    +0.000 C 
ENDBRANCH  14  16
ENDBRANCH  12  14
ENDBRANCH   6  12
ENDBRANCH   5  10
ENDBRANCH   4   5
ENDBRANCH   1   4
BRANCH   1  17
ATOM     17  O   UNL     1       6.858   6.993  17.154  0.00  0.00    +0.000 OA
BRANCH  17  18
ATOM     18  C   UNL     1       7.711   7.014  18.206  0.00  0.00    +0.000 C 
ATOM     19  O   UNL     1       7.826   6.134  19.048  0.00  0.00    +0.000 OA
ATOM     20  N   UNL     1       8.493   8.130  18.242  0.00  0.00    +0.000 N 
ATOM     21  H   UNL     1       9.173   8.092  18.986  0.00  0.00    +0.000 HD
BRANCH  20  22
ATOM     22  C   UNL     1       8.011   9.441  17.873  0.00  0.00    +0.000 C 
BRANCH  22  23
ATOM     23  C   UNL     1       8.819  10.556  18.476  0.00  0.00    +0.000 A 
ATOM     24  C   UNL     1       8.901  11.797  17.831  0.00  0.00    +0.000 A 
ATOM     25  C   UNL     1       9.635  12.844  18.390  0.00  0.00    +0.000 A 
ATOM     26  C   UNL     1      10.299  12.657  19.602  0.00  0.00    +0.000 A 
ATOM     27  C   UNL     1      10.231  11.425  20.252  0.00  0.00    +0.000 A 
ATOM     28  C   UNL     1       9.496  10.378  19.692  0.00  0.00    +0.000 A 
ENDBRANCH  22  23
ENDBRANCH  20  22
ENDBRANCH  17  18
ENDBRANCH   1  17
TORSDOF 11
ENDMDL
MODEL 7
REMARK VINA RESULT:      -6.8      4.487      8.833
REMARK  Name = 
REMARK  13 active torsions:
REMARK  status: ('A' for Active; 'I' for Inactive)
REMARK    1  A    between atoms: C_1  and  C_2
REMARK    2  A    between atoms: C_2  and  O_3
REMARK    3  A    between atoms: O_3  and  C_4
REMARK    4  A    between atoms: C_4  and  C_6
REMARK    5  A    between atoms: C_10  and  O_11
REMARK    6  A    between atoms: O_11  and  C_12
REMARK    7  A    between atoms: C_12  and  C_13
REMARK    8  A    between atoms: C_13  and  C_14
REMARK    9  A    between atoms: C_13  and  O_16
REMARK   10  A    between atoms: C_14  and  C_15
REMARK   11  A    between atoms: O_16  and  C_17
REMARK   12  A    between atoms: N_19  and  C_20
REMARK   13  A    between atoms: C_20  and  C_21
REMARK                            x       y       z     vdW  Elec       q    Type
REMARK                         _______ _______ _______ _____ _____    ______ ____
ROOT
ATOM      1  C   UNL     1       2.933   4.674  19.923  0.00  0.00    +0.000 C 
ENDROOT
BRANCH   1   2
ATOM      2  C   UNL     1       1.752   4.338  20.846  0.00  0.00    +0.000 C 
ATOM      3  C   UNL     1       0.866   3.217  20.323  0.00  0.00    +0.000 C 
ENDBRANCH   1   2
BRANCH   1   4
ATOM      4  C   UNL     1       2.711   6.045  19.273  0.00  0.00    +0.000 C 
BRANCH   4   5
ATOM      5  O   UNL     1       2.078   6.906  20.228  0.00  0.00    +0.000 OA
BRANCH   5  10
ATOM      6  C   UNL     1       0.747  10.366  19.994  0.00  0.00    +0.000 A 
ATOM      7  C   UNL     1       1.132  10.657  18.681  0.00  0.00    +0.000 A 
ATOM      8  C   UNL     1       1.804   9.700  17.925  0.00  0.00    +0.000 A 
ATOM      9  C   UNL     1       2.095   8.450  18.483  0.00  0.00    +0.000 A 
ATOM     10  C   UNL     1       1.719   8.152  19.796  0.00  0.00    +0.000 A 
ATOM     11  C   UNL     1       1.045   9.110  20.551  0.00  0.00    +0.000 A 
BRANCH   6  12
ATOM     12  C   UNL     1       0.081  11.434  20.785  0.00  0.00    +0.000 C 
ATOM     13  O   UNL     1       0.462  12.594  20.811  0.00  0.00    +0.000 OA
BRANCH  12  14
ATOM     14  O   UNL     1      -0.933  10.907  21.516  0.00  0.00    +0.000 OA
BRANCH  14  16
ATOM     15  C   UNL     1      -2.382  11.891  23.143  0.00  0.00    +0.000 C 
ATOM     16  C   UNL     1      -0.995  11.332  22.883  0.00  0.00    +0.000 C 
ENDBRANCH  14  16
ENDBRANCH  12  14
ENDBRANCH   6  12
ENDBRANCH   5  10
ENDBRANCH   4   5
ENDBRANCH   1   4
BRANCH   1  17
ATOM     17  O   UNL     1       3.009   3.720  18.838  0.00  0.00    +0.000 OA
BRANCH  17  18
ATOM     18  C   UNL     1       4.088   2.901  18.828  0.00  0.00    +0.000 C 
ATOM     19  O   UNL     1       4.555   2.325  19.801  0.00  0.00    +0.000 OA
ATOM     20  N   UNL     1       4.622   2.732  17.585  0.00  0.00    +0.000 N 
ATOM     21  H   UNL     1       5.375   2.060  17.585  0.00  0.00    +0.000 HD
BRANCH  20  22
ATOM     22  C   UNL     1       4.707   3.798  16.613  0.00  0.00    +0.000 C 
BRANCH  22  23
ATOM     23  C   UNL     1       5.641   4.900  17.029  0.00  0.00    +0.000 A 
ATOM     24  C   UNL     1       6.838   4.597  17.692  0.00  0.00    +0.000 A 
ATOM     25  C   UNL     1       7.720   5.612  18.069  0.00  0.00    +0.000 A 
ATOM     26  C   UNL     1       7.409   6.942  17.789  0.00  0.00    +0.000 A 
ATOM     27  C   UNL     1       6.218   7.257  17.136  0.00  0.00    +0.000 A 
ATOM     28  C   UNL     1       5.336   6.242  16.759  0.00  0.00    +0.000 A 
ENDBRANCH  22  23
ENDBRANCH  20  22
ENDBRANCH  17  18
ENDBRANCH   1  17
TORSDOF 11
ENDMDL
MODEL 8
REMARK VINA RESULT:      -6.8      4.046      7.416
REMARK  Name = 
REMARK  13 active torsions:
REMARK  status: ('A' for Active; 'I' for Inactive)
REMARK    1  A    between atoms: C_1  and  C_2
REMARK    2  A    between atoms: C_2  and  O_3
REMARK    3  A    between atoms: O_3  and  C_4
REMARK    4  A    between atoms: C_4  and  C_6
REMARK    5  A    between atoms: C_10  and  O_11
REMARK    6  A    between atoms: O_11  and  C_12
REMARK    7  A    between atoms: C_12  and  C_13
REMARK    8  A    between atoms: C_13  and  C_14
REMARK    9  A    between atoms: C_13  and  O_16
REMARK   10  A    between atoms: C_14  and  C_15
REMARK   11  A    between atoms: O_16  and  C_17
REMARK   12  A    between atoms: N_19  and  C_20
REMARK   13  A    between atoms: C_20  and  C_21
REMARK                            x       y       z     vdW  Elec       q    Type
REMARK                         _______ _______ _______ _____ _____    ______ ____
ROOT
ATOM      1  C   UNL     1       5.097   6.448  17.141  0.00  0.00    +0.000 C 
ENDROOT
BRANCH   1   2
ATOM      2  C   UNL     1       6.402   6.136  17.889  0.00  0.00    +0.000 C 
ATOM      3  C   UNL     1       7.502   7.162  17.654  0.00  0.00    +0.000 C 
ENDBRANCH   1   2
BRANCH   1   4
ATOM      4  C   UNL     1       3.959   6.658  18.147  0.00  0.00    +0.000 C 
BRANCH   4   5
ATOM      5  O   UNL     1       3.055   7.637  17.619  0.00  0.00    +0.000 OA
BRANCH   5  10
ATOM      6  C   UNL     1       0.551   9.855  19.232  0.00  0.00    +0.000 A 
ATOM      7  C   UNL     1       0.503   9.247  20.491  0.00  0.00    +0.000 A 
ATOM      8  C   UNL     1       1.304   8.139  20.759  0.00  0.00    +0.000 A 
ATOM      9  C   UNL     1       2.152   7.637  19.766  0.00  0.00    +0.000 A 
ATOM     10  C   UNL     1       2.202   8.233  18.503  0.00  0.00    +0.000 A 
ATOM     11  C   UNL     1       1.402   9.343  18.237  0.00  0.00    +0.000 A 
BRANCH   6  12
ATOM     12  C   UNL     1      -0.360  11.000  18.969  0.00  0.00    +0.000 C 
ATOM     13  O   UNL     1      -0.071  12.162  19.211  0.00  0.00    +0.000 OA
BRANCH  12  14
ATOM     14  O   UNL     1      -1.556  10.549  18.516  0.00  0.00    +0.000 OA
BRANCH  14  16
ATOM     15  C   UNL     1      -2.640  10.920  16.418  0.00  0.00    +0.000 C 
ATOM     16  C   UNL     1      -2.340  11.501  17.788  0.00  0.00    +0.000 C 
ENDBRANCH  14  16
ENDBRANCH  12  14
ENDBRANCH   6  12
ENDBRANCH   5  10
ENDBRANCH   4   5
ENDBRANCH   1   4
BRANCH   1  17
ATOM     17  O   UNL     1       4.708   5.324  16.319  0.00  0.00    +0.000 OA
BRANCH  17  18
ATOM     18  C   UNL     1       5.401   4.174  16.500  0.00  0.00    +0.000 C 
ATOM     19  O   UNL     1       6.494   3.916  16.016  0.00  0.00    +0.000 OA
ATOM     20  N   UNL     1       4.772   3.293  17.330  0.00  0.00    +0.000 N 
ATOM     21  H   UNL     1       5.337   2.478  17.514  0.00  0.00    +0.000 HD
BRANCH  20  22
ATOM     22  C   UNL     1       3.341   3.102  17.337  0.00  0.00    +0.000 C 
BRANCH  22  23
ATOM     23  C   UNL     1       2.736   3.231  18.707  0.00  0.00    +0.000 A 
ATOM     24  C   UNL     1       1.527   3.917  18.883  0.00  0.00    +0.000 A 
ATOM     25  C   UNL     1       0.949   4.030  20.148  0.00  0.00    +0.000 A 
ATOM     26  C   UNL     1       1.579   3.459  21.253  0.00  0.00    +0.000 A 
ATOM     27  C   UNL     1       2.786   2.779  21.093  0.00  0.00    +0.000 A 
ATOM     28  C   UNL     1       3.364   2.667  19.827  0.00  0.00    +0.000 A 
ENDBRANCH  22  23
ENDBRANCH  20  22
ENDBRANCH  17  18
ENDBRANCH   1  17
TORSDOF 11
ENDMDL
MODEL 9
REMARK VINA RESULT:      -6.8      2.438      5.050
REMARK  Name = 
REMARK  13 active torsions:
REMARK  status: ('A' for Active; 'I' for Inactive)
REMARK    1  A    between atoms: C_1  and  C_2
REMARK    2  A    between atoms: C_2  and  O_3
REMARK    3  A    between atoms: O_3  and  C_4
REMARK    4  A    between atoms: C_4  and  C_6
REMARK    5  A    between atoms: C_10  and  O_11
REMARK    6  A    between atoms: O_11  and  C_12
REMARK    7  A    between atoms: C_12  and  C_13
REMARK    8  A    between atoms: C_13  and  C_14
REMARK    9  A    between atoms: C_13  and  O_16
REMARK   10  A    between atoms: C_14  and  C_15
REMARK   11  A    between atoms: O_16  and  C_17
REMARK   12  A    between atoms: N_19  and  C_20
REMARK   13  A    between atoms: C_20  and  C_21
REMARK                            x       y       z     vdW  Elec       q    Type
REMARK                         _______ _______ _______ _____ _____    ______ ____
ROOT
ATOM      1  C   UNL     1       3.061   3.339  20.037  0.00  0.00    +0.000 C 
ENDROOT
BRANCH   1   2
ATOM      2  C   UNL     1       2.669   2.987  21.480  0.00  0.00    +0.000 C 
ATOM      3  C   UNL     1       1.186   2.695  21.657  0.00  0.00    +0.000 C 
ENDBRANCH   1   2
BRANCH   1   4
ATOM      4  C   UNL     1       4.391   4.102  20.031  0.00  0.00    +0.000 C 
BRANCH   4   5
ATOM      5  O   UNL     1       5.245   3.527  19.035  0.00  0.00    +0.000 OA
BRANCH   5  10
ATOM      6  C   UNL     1       6.858   5.244  16.163  0.00  0.00    +0.000 A 
ATOM      7  C   UNL     1       7.403   6.337  16.844  0.00  0.00    +0.000 A 
ATOM      8  C   UNL     1       7.226   6.458  18.220  0.00  0.00    +0.000 A 
ATOM      9  C   UNL     1       6.500   5.486  18.916  0.00  0.00    +0.000 A 
ATOM     10  C   UNL     1       5.946   4.393  18.244  0.00  0.00    +0.000 A 
ATOM     11  C   UNL     1       6.126   4.273  16.867  0.00  0.00    +0.000 A 
BRANCH   6  12
ATOM     12  C   UNL     1       7.024   5.180  14.687  0.00  0.00    +0.000 C 
ATOM     13  O   UNL     1       7.996   5.623  14.096  0.00  0.00    +0.000 OA
BRANCH  12  14
ATOM     14  O   UNL     1       5.914   4.647  14.117  0.00  0.00    +0.000 OA
BRANCH  14  16
ATOM     15  C   UNL     1       6.590   3.672  12.042  0.00  0.00    +0.000 C 
ATOM     16  C   UNL     1       6.102   3.393  13.452  0.00  0.00    +0.000 C 
ENDBRANCH  14  16
ENDBRANCH  12  14
ENDBRANCH   6  12
ENDBRANCH   5  10
ENDBRANCH   4   5
ENDBRANCH   1   4
BRANCH   1  17
ATOM     17  O   UNL     1       2.082   4.228  19.453  0.00  0.00    +0.000 OA
BRANCH  17  18
ATOM     18  C   UNL     1       2.154   4.410  18.113  0.00  0.00    +0.000 C 
ATOM     19  O   UNL     1       2.132   3.523  17.270  0.00  0.00    +0.000 OA
ATOM     20  N   UNL     1       2.224   5.723  17.752  0.00  0.00    +0.000 N 
ATOM     21  H   UNL     1       2.199   5.843  16.750  0.00  0.00    +0.000 HD
BRANCH  20  22
ATOM     22  C   UNL     1       2.971   6.707  18.502  0.00  0.00    +0.000 C 
BRANCH  22  23
ATOM     23  C   UNL     1       2.140   7.891  18.910  0.00  0.00    +0.000 A 
ATOM     24  C   UNL     1       1.788   8.864  17.965  0.00  0.00    +0.000 A 
ATOM     25  C   UNL     1       1.003   9.960  18.330  0.00  0.00    +0.000 A 
ATOM     26  C   UNL     1       0.567  10.094  19.647  0.00  0.00    +0.000 A 
ATOM     27  C   UNL     1       0.915   9.136  20.598  0.00  0.00    +0.000 A 
ATOM     28  C   UNL     1       1.700   8.040  20.233  0.00  0.00    +0.000 A 
ENDBRANCH  22  23
ENDBRANCH  20  22
ENDBRANCH  17  18
ENDBRANCH   1  17
TORSDOF 11
ENDMDL
