MODEL 1
REMARK VINA RESULT:      -7.2      0.000      0.000
REMARK  Name = 
REMARK  5 active torsions:
REMARK  status: ('A' for Active; 'I' for Inactive)
REMARK    1  A    between atoms: C_4  and  N_5
REMARK    2  A    between atoms: N_13  and  C_14
REMARK    3  A    between atoms: C_14  and  C_15
REMARK    4  A    between atoms: C_15  and  O_16
REMARK    5  A    between atoms: C_15  and  C_17
REMARK                            x       y       z     vdW  Elec       q    Type
REMARK                         _______ _______ _______ _____ _____    ______ ____
ROOT
ATOM      1  O   UNL     1       6.460   7.016  16.715  0.00  0.00    +0.000 OA
ATOM      2  C   UNL     1       5.759   6.007  16.833  0.00  0.00    +0.000 A 
ATOM      3  C   UNL     1       4.543   6.064  17.667  0.00  0.00    +0.000 A 
ATOM      4  C   UNL     1       3.709   5.025  17.804  0.00  0.00    +0.000 A 
ATOM      5  C   UNL     1       4.164   3.811  17.069  0.00  0.00    +0.000 A 
ATOM      6  N   UNL     1       5.229   3.684  16.344  0.00  0.00    +0.000 NA
ATOM      7  N   UNL     1       6.038   4.789  16.238  0.00  0.00    +0.000 N 
ENDROOT
BRANCH   4   8
ATOM      8  N   UNL     1       2.510   5.018  18.525  0.00  0.00    +0.000 N 
ATOM      9  C   UNL     1       2.322   5.694  19.819  0.00  0.00    +0.000 C 
ATOM     10  C   UNL     1       2.176   4.653  20.924  0.00  0.00    +0.000 C 
ATOM     11  C   UNL     1       1.003   3.722  20.623  0.00  0.00    +0.000 C 
ATOM     12  C   UNL     1       1.160   3.088  19.243  0.00  0.00    +0.000 C 
ATOM     13  C   UNL     1       1.382   4.142  18.156  0.00  0.00    +0.000 C 
ENDBRANCH   4   8
BRANCH   7  14
ATOM     14  C   UNL     1       7.210   4.645  15.382  0.00  0.00    +0.000 C 
BRANCH  14  15
ATOM     15  C   UNL     1       6.964   5.151  13.955  0.00  0.00    +0.000 C 
BRANCH  15  16
ATOM     16  C   UNL     1       6.310   4.039  13.119  0.00  0.00    +0.000 C 
ATOM     17  F   UNL     1       4.965   4.168  13.045  0.00  0.00    +0.000 F 
ATOM     18  F   UNL     1       6.783   4.040  11.851  0.00  0.00    +0.000 F 
ATOM     19  F   UNL     1       6.554   2.813  13.640  0.00  0.00    +0.000 F 
ENDBRANCH  15  16
BRANCH  15  20
ATOM     20  O   UNL     1       8.183   5.644  13.354  0.00  0.00    +0.000 OA
ATOM     21  H   UNL     1       7.999   6.520  12.962  0.00  0.00    +0.000 HD
ENDBRANCH  15  20
ENDBRANCH  14  15
ENDBRANCH   7  14
TORSDOF 5
ENDMDL
MODEL 2
REMARK VINA RESULT:      -7.0      1.779      2.002
REMARK  Name = 
REMARK  5 active torsions:
REMARK  status: ('A' for Active; 'I' for Inactive)
REMARK    1  A    between atoms: C_4  and  N_5
REMARK    2  A    between atoms: N_13  and  C_14
REMARK    3  A    between atoms: C_14  and  C_15
REMARK    4  A    between atoms: C_15  and  O_16
REMARK    5  A    between atoms: C_15  and  C_17
REMARK                            x       y       z     vdW  Elec       q    Type
REMARK                         _______ _______ _______ _____ _____    ______ ____
ROOT
ATOM      1  O   UNL     1       4.344   7.462  16.439  0.00  0.00    +0.000 OA
ATOM      2  C   UNL     1       4.460   6.569  17.283  0.00  0.00    +0.000 A 
ATOM      3  C   UNL     1       3.278   6.151  18.061  0.00  0.00    +0.000 A 
ATOM      4  C   UNL     1       3.316   5.157  18.959  0.00  0.00    +0.000 A 
ATOM      5  C   UNL     1       4.675   4.563  19.114  0.00  0.00    +0.000 A 
ATOM      6  N   UNL     1       5.756   4.898  18.486  0.00  0.00    +0.000 NA
ATOM      7  N   UNL     1       5.647   5.918  17.573  0.00  0.00    +0.000 N 
ENDROOT
BRANCH   4   8
ATOM      8  N   UNL     1       2.231   4.664  19.691  0.00  0.00    +0.000 N 
ATOM      9  C   UNL     1       2.063   4.845  21.141  0.00  0.00    +0.000 C 
ATOM     10  C   UNL     1       2.247   3.506  21.850  0.00  0.00    +0.000 C 
ATOM     11  C   UNL     1       1.250   2.482  21.312  0.00  0.00    +0.000 C 
ATOM     12  C   UNL     1       1.370   2.359  19.795  0.00  0.00    +0.000 C 
ATOM     13  C   UNL     1       1.259   3.720  19.105  0.00  0.00    +0.000 C 
ENDBRANCH   4   8
BRANCH   7  14
ATOM     14  C   UNL     1       6.862   6.255  16.840  0.00  0.00    +0.000 C 
BRANCH  14  15
ATOM     15  C   UNL     1       7.436   5.060  16.069  0.00  0.00    +0.000 C 
BRANCH  15  16
ATOM     16  C   UNL     1       6.370   4.505  15.109  0.00  0.00    +0.000 C 
ATOM     17  F   UNL     1       5.600   5.478  14.571  0.00  0.00    +0.000 F 
ATOM     18  F   UNL     1       6.940   3.832  14.083  0.00  0.00    +0.000 F 
ATOM     19  F   UNL     1       5.530   3.648  15.737  0.00  0.00    +0.000 F 
ENDBRANCH  15  16
BRANCH  15  20
ATOM     20  O   UNL     1       7.943   4.048  16.968  0.00  0.00    +0.000 OA
ATOM     21  H   UNL     1       7.393   4.052  17.775  0.00  0.00    +0.000 HD
ENDBRANCH  15  20
ENDBRANCH  14  15
ENDBRANCH   7  14
TORSDOF 5
ENDMDL
MODEL 3
REMARK VINA RESULT:      -7.0      0.926      1.284
REMARK  Name = 
REMARK  5 active torsions:
REMARK  status: ('A' for Active; 'I' for Inactive)
REMARK    1  A    between atoms: C_4  and  N_5
REMARK    2  A    between atoms: N_13  and  C_14
REMARK    3  A    between atoms: C_14  and  C_15
REMARK    4  A    between atoms: C_15  and  O_16
REMARK    5  A    between atoms: C_15  and  C_17
REMARK                            x       y       z     vdW  Elec       q    Type
REMARK                         _______ _______ _______ _____ _____    ______ ____
ROOT
ATOM      1  O   UNL     1       5.044   7.003  15.816  0.00  0.00    +0.000 OA
ATOM      2  C   UNL     1       4.941   6.064  16.610  0.00  0.00    +0.000 A 
ATOM      3  C   UNL     1       3.725   5.946  17.438  0.00  0.00    +0.000 A 
ATOM      4  C   UNL     1       3.521   4.929  18.286  0.00  0.00    +0.000 A 
ATOM      5  C   UNL     1       4.662   3.971  18.333  0.00  0.00    +0.000 A 
ATOM      6  N   UNL     1       5.765   4.028  17.657  0.00  0.00    +0.000 NA
ATOM      7  N   UNL     1       5.908   5.091  16.799  0.00  0.00    +0.000 N 
ENDROOT
BRANCH   4   8
ATOM      8  N   UNL     1       2.374   4.716  19.059  0.00  0.00    +0.000 N 
ATOM      9  C   UNL     1       2.209   5.196  20.440  0.00  0.00    +0.000 C 
ATOM     10  C   UNL     1       2.223   4.010  21.400  0.00  0.00    +0.000 C 
ATOM     11  C   UNL     1       1.119   3.021  21.034  0.00  0.00    +0.000 C 
ATOM     12  C   UNL     1       1.245   2.589  19.575  0.00  0.00    +0.000 C 
ATOM     13  C   UNL     1       1.306   3.792  18.631  0.00  0.00    +0.000 C 
ENDBRANCH   4   8
BRANCH   7  14
ATOM     14  C   UNL     1       7.135   5.118  16.011  0.00  0.00    +0.000 C 
BRANCH  14  15
ATOM     15  C   UNL     1       6.867   5.264  14.508  0.00  0.00    +0.000 C 
BRANCH  15  16
ATOM     16  C   UNL     1       6.187   3.990  13.979  0.00  0.00    +0.000 C 
ATOM     17  F   UNL     1       6.758   3.531  12.842  0.00  0.00    +0.000 F 
ATOM     18  F   UNL     1       6.246   2.991  14.890  0.00  0.00    +0.000 F 
ATOM     19  F   UNL     1       4.879   4.203  13.698  0.00  0.00    +0.000 F 
ENDBRANCH  15  16
BRANCH  15  20
ATOM     20  O   UNL     1       8.079   5.578  13.785  0.00  0.00    +0.000 OA
ATOM     21  H   UNL     1       8.838   5.432  14.382  0.00  0.00    +0.000 HD
ENDBRANCH  15  20
ENDBRANCH  14  15
ENDBRANCH   7  14
TORSDOF 5
ENDMDL
MODEL 4
REMARK VINA RESULT:      -7.0      4.722      7.082
REMARK  Name = 
REMARK  5 active torsions:
REMARK  status: ('A' for Active; 'I' for Inactive)
REMARK    1  A    between atoms: C_4  and  N_5
REMARK    2  A    between atoms: N_13  and  C_14
REMARK    3  A    between atoms: C_14  and  C_15
REMARK    4  A    between atoms: C_15  and  O_16
REMARK    5  A    between atoms: C_15  and  C_17
REMARK                            x       y       z     vdW  Elec       q    Type
REMARK                         _______ _______ _______ _____ _____    ______ ____
ROOT
ATOM      1  O   UNL     1       2.238   3.267  16.702  0.00  0.00    +0.000 OA
ATOM      2  C   UNL     1       3.211   3.394  17.450  0.00  0.00    +0.000 A 
ATOM      3  C   UNL     1       4.376   4.178  16.995  0.00  0.00    +0.000 A 
ATOM      4  C   UNL     1       5.447   4.401  17.768  0.00  0.00    +0.000 A 
ATOM      5  C   UNL     1       5.352   3.739  19.100  0.00  0.00    +0.000 A 
ATOM      6  N   UNL     1       4.376   3.019  19.552  0.00  0.00    +0.000 NA
ATOM      7  N   UNL     1       3.304   2.836  18.713  0.00  0.00    +0.000 N 
ENDROOT
BRANCH   4   8
ATOM      8  N   UNL     1       6.560   5.180  17.433  0.00  0.00    +0.000 N 
ATOM      9  C   UNL     1       7.847   5.128  18.144  0.00  0.00    +0.000 C 
ATOM     10  C   UNL     1       8.055   6.423  18.923  0.00  0.00    +0.000 C 
ATOM     11  C   UNL     1       8.005   7.622  17.978  0.00  0.00    +0.000 C 
ATOM     12  C   UNL     1       6.703   7.625  17.181  0.00  0.00    +0.000 C 
ATOM     13  C   UNL     1       6.472   6.292  16.466  0.00  0.00    +0.000 C 
ENDBRANCH   4   8
BRANCH   7  14
ATOM     14  C   UNL     1       2.193   2.060  19.252  0.00  0.00    +0.000 C 
BRANCH  14  15
ATOM     15  C   UNL     1       1.239   2.908  20.102  0.00  0.00    +0.000 C 
BRANCH  15  16
ATOM     16  C   UNL     1       1.665   2.842  21.578  0.00  0.00    +0.000 C 
ATOM     17  F   UNL     1       2.646   1.935  21.794  0.00  0.00    +0.000 F 
ATOM     18  F   UNL     1       2.124   4.040  22.008  0.00  0.00    +0.000 F 
ATOM     19  F   UNL     1       0.631   2.494  22.381  0.00  0.00    +0.000 F 
ENDBRANCH  15  16
BRANCH  15  20
ATOM     20  O   UNL     1      -0.136   2.505  19.910  0.00  0.00    +0.000 OA
ATOM     21  H   UNL     1      -0.670   3.307  19.746  0.00  0.00    +0.000 HD
ENDBRANCH  15  20
ENDBRANCH  14  15
ENDBRANCH   7  14
TORSDOF 5
ENDMDL
MODEL 5
REMARK VINA RESULT:      -6.9      4.344      6.624
REMARK  Name = 
REMARK  5 active torsions:
REMARK  status: ('A' for Active; 'I' for Inactive)
REMARK    1  A    between atoms: C_4  and  N_5
REMARK    2  A    between atoms: N_13  and  C_14
REMARK    3  A    between atoms: C_14  and  C_15
REMARK    4  A    between atoms: C_15  and  O_16
REMARK    5  A    between atoms: C_15  and  C_17
REMARK                            x       y       z     vdW  Elec       q    Type
REMARK                         _______ _______ _______ _____ _____    ______ ____
ROOT
ATOM      1  O   UNL     1       1.684   6.293  18.402  0.00  0.00    +0.000 OA
ATOM      2  C   UNL     1       2.581   5.509  18.077  0.00  0.00    +0.000 A 
ATOM      3  C   UNL     1       3.953   6.019  17.886  0.00  0.00    +0.000 A 
ATOM      4  C   UNL     1       4.986   5.223  17.581  0.00  0.00    +0.000 A 
ATOM      5  C   UNL     1       4.592   3.795  17.414  0.00  0.00    +0.000 A 
ATOM      6  N   UNL     1       3.408   3.286  17.540  0.00  0.00    +0.000 NA
ATOM      7  N   UNL     1       2.395   4.155  17.862  0.00  0.00    +0.000 N 
ENDROOT
BRANCH   4   8
ATOM      8  N   UNL     1       6.321   5.618  17.443  0.00  0.00    +0.000 N 
ATOM      9  C   UNL     1       7.435   5.046  18.215  0.00  0.00    +0.000 C 
ATOM     10  C   UNL     1       7.962   6.085  19.200  0.00  0.00    +0.000 C 
ATOM     11  C   UNL     1       8.408   7.342  18.456  0.00  0.00    +0.000 C 
ATOM     12  C   UNL     1       7.274   7.884  17.589  0.00  0.00    +0.000 C 
ATOM     13  C   UNL     1       6.705   6.809  16.660  0.00  0.00    +0.000 C 
ENDBRANCH   4   8
BRANCH   7  14
ATOM     14  C   UNL     1       1.075   3.561  18.045  0.00  0.00    +0.000 C 
BRANCH  14  15
ATOM     15  C   UNL     1       1.037   2.554  19.201  0.00  0.00    +0.000 C 
BRANCH  15  16
ATOM     16  C   UNL     1       1.281   3.285  20.531  0.00  0.00    +0.000 C 
ATOM     17  F   UNL     1       0.854   2.574  21.600  0.00  0.00    +0.000 F 
ATOM     18  F   UNL     1       2.598   3.535  20.716  0.00  0.00    +0.000 F 
ATOM     19  F   UNL     1       0.635   4.475  20.572  0.00  0.00    +0.000 F 
ENDBRANCH  15  16
BRANCH  15  20
ATOM     20  O   UNL     1       1.975   1.474  18.988  0.00  0.00    +0.000 OA
ATOM     21  H   UNL     1       1.810   0.787  19.663  0.00  0.00    +0.000 HD
ENDBRANCH  15  20
ENDBRANCH  14  15
ENDBRANCH   7  14
TORSDOF 5
ENDMDL
MODEL 6
REMARK VINA RESULT:      -6.9      1.699      1.950
REMARK  Name = 
REMARK  5 active torsions:
REMARK  status: ('A' for Active; 'I' for Inactive)
REMARK    1  A    between atoms: C_4  and  N_5
REMARK    2  A    between atoms: N_13  and  C_14
REMARK    3  A    between atoms: C_14  and  C_15
REMARK    4  A    between atoms: C_15  and  O_16
REMARK    5  A    between atoms: C_15  and  C_17
REMARK                            x       y       z     vdW  Elec       q    Type
REMARK                         _______ _______ _______ _____ _____    ______ ____
ROOT
ATOM      1  O   UNL     1       7.209   4.891  19.037  0.00  0.00    +0.000 OA
ATOM      2  C   UNL     1       6.082   4.918  18.536  0.00  0.00    +0.000 A 
ATOM      3  C   UNL     1       4.906   4.648  19.385  0.00  0.00    +0.000 A 
ATOM      4  C   UNL     1       3.650   4.706  18.924  0.00  0.00    +0.000 A 
ATOM      5  C   UNL     1       3.577   5.022  17.469  0.00  0.00    +0.000 A 
ATOM      6  N   UNL     1       4.565   5.243  16.662  0.00  0.00    +0.000 NA
ATOM      7  N   UNL     1       5.827   5.177  17.200  0.00  0.00    +0.000 N 
ENDROOT
BRANCH   4   8
ATOM      8  N   UNL     1       2.484   4.523  19.676  0.00  0.00    +0.000 N 
ATOM      9  C   UNL     1       2.391   4.764  21.124  0.00  0.00    +0.000 C 
ATOM     10  C   UNL     1       2.232   3.434  21.856  0.00  0.00    +0.000 C 
ATOM     11  C   UNL     1       0.995   2.696  21.348  0.00  0.00    +0.000 C 
ATOM     12  C   UNL     1       1.056   2.523  19.833  0.00  0.00    +0.000 C 
ATOM     13  C   UNL     1       1.292   3.855  19.118  0.00  0.00    +0.000 C 
ENDBRANCH   4   8
BRANCH   7  14
ATOM     14  C   UNL     1       6.928   5.472  16.291  0.00  0.00    +0.000 C 
BRANCH  14  15
ATOM     15  C   UNL     1       7.176   4.345  15.281  0.00  0.00    +0.000 C 
BRANCH  15  16
ATOM     16  C   UNL     1       6.844   4.840  13.863  0.00  0.00    +0.000 C 
ATOM     17  F   UNL     1       6.455   3.838  13.042  0.00  0.00    +0.000 F 
ATOM     18  F   UNL     1       5.844   5.751  13.886  0.00  0.00    +0.000 F 
ATOM     19  F   UNL     1       7.913   5.429  13.277  0.00  0.00    +0.000 F 
ENDBRANCH  15  16
BRANCH  15  20
ATOM     20  O   UNL     1       6.438   3.152  15.632  0.00  0.00    +0.000 OA
ATOM     21  H   UNL     1       6.328   3.135  16.602  0.00  0.00    +0.000 HD
ENDBRANCH  15  20
ENDBRANCH  14  15
ENDBRANCH   7  14
TORSDOF 5
ENDMDL
MODEL 7
REMARK VINA RESULT:      -6.8      1.790      2.023
REMARK  Name = 
REMARK  5 active torsions:
REMARK  status: ('A' for Active; 'I' for Inactive)
REMARK    1  A    between atoms: C_4  and  N_5
REMARK    2  A    between atoms: N_13  and  C_14
REMARK    3  A    between atoms: C_14  and  C_15
REMARK    4  A    between atoms: C_15  and  O_16
REMARK    5  A    between atoms: C_15  and  C_17
REMARK                            x       y       z     vdW  Elec       q    Type
REMARK                         _______ _______ _______ _____ _____    ______ ____
ROOT
ATOM      1  O   UNL     1       7.118   5.117  19.241  0.00  0.00    +0.000 OA
ATOM      2  C   UNL     1       5.993   5.259  18.753  0.00  0.00    +0.000 A 
ATOM      3  C   UNL     1       4.812   4.802  19.512  0.00  0.00    +0.000 A 
ATOM      4  C   UNL     1       3.559   4.966  19.069  0.00  0.00    +0.000 A 
ATOM      5  C   UNL     1       3.494   5.608  17.725  0.00  0.00    +0.000 A 
ATOM      6  N   UNL     1       4.487   6.007  16.996  0.00  0.00    +0.000 NA
ATOM      7  N   UNL     1       5.746   5.818  17.512  0.00  0.00    +0.000 N 
ENDROOT
BRANCH   4   8
ATOM      8  N   UNL     1       2.389   4.616  19.753  0.00  0.00    +0.000 N 
ATOM      9  C   UNL     1       2.209   4.762  21.206  0.00  0.00    +0.000 C 
ATOM     10  C   UNL     1       2.165   3.383  21.858  0.00  0.00    +0.000 C 
ATOM     11  C   UNL     1       1.039   2.548  21.253  0.00  0.00    +0.000 C 
ATOM     12  C   UNL     1       1.183   2.469  19.735  0.00  0.00    +0.000 C 
ATOM     13  C   UNL     1       1.302   3.858  19.103  0.00  0.00    +0.000 C 
ENDBRANCH   4   8
BRANCH   7  14
ATOM     14  C   UNL     1       6.852   6.312  16.700  0.00  0.00    +0.000 C 
BRANCH  14  15
ATOM     15  C   UNL     1       7.500   5.210  15.853  0.00  0.00    +0.000 C 
BRANCH  15  16
ATOM     16  C   UNL     1       6.538   4.789  14.730  0.00  0.00    +0.000 C 
ATOM     17  F   UNL     1       5.628   5.747  14.440  0.00  0.00    +0.000 F 
ATOM     18  F   UNL     1       7.211   4.515  13.588  0.00  0.00    +0.000 F 
ATOM     19  F   UNL     1       5.839   3.677  15.063  0.00  0.00    +0.000 F 
ENDBRANCH  15  16
BRANCH  15  20
ATOM     20  O   UNL     1       7.911   4.092  16.671  0.00  0.00    +0.000 OA
ATOM     21  H   UNL     1       8.797   4.287  17.035  0.00  0.00    +0.000 HD
ENDBRANCH  15  20
ENDBRANCH  14  15
ENDBRANCH   7  14
TORSDOF 5
ENDMDL
MODEL 8
REMARK VINA RESULT:      -6.8      1.369      1.494
REMARK  Name = 
REMARK  5 active torsions:
REMARK  status: ('A' for Active; 'I' for Inactive)
REMARK    1  A    between atoms: C_4  and  N_5
REMARK    2  A    between atoms: N_13  and  C_14
REMARK    3  A    between atoms: C_14  and  C_15
REMARK    4  A    between atoms: C_15  and  O_16
REMARK    5  A    between atoms: C_15  and  C_17
REMARK                            x       y       z     vdW  Elec       q    Type
REMARK                         _______ _______ _______ _____ _____    ______ ____
ROOT
ATOM      1  O   UNL     1       5.453   7.009  15.452  0.00  0.00    +0.000 OA
ATOM      2  C   UNL     1       5.167   5.926  15.971  0.00  0.00    +0.000 A 
ATOM      3  C   UNL     1       4.170   5.886  17.058  0.00  0.00    +0.000 A 
ATOM      4  C   UNL     1       3.774   4.744  17.636  0.00  0.00    +0.000 A 
ATOM      5  C   UNL     1       4.476   3.544  17.099  0.00  0.00    +0.000 A 
ATOM      6  N   UNL     1       5.377   3.511  16.169  0.00  0.00    +0.000 NA
ATOM      7  N   UNL     1       5.732   4.715  15.611  0.00  0.00    +0.000 N 
ENDROOT
BRANCH   4   8
ATOM      8  N   UNL     1       2.794   4.617  18.627  0.00  0.00    +0.000 N 
ATOM      9  C   UNL     1       3.076   4.628  20.071  0.00  0.00    +0.000 C 
ATOM     10  C   UNL     1       2.842   3.236  20.650  0.00  0.00    +0.000 C 
ATOM     11  C   UNL     1       1.409   2.784  20.380  0.00  0.00    +0.000 C 
ATOM     12  C   UNL     1       1.094   2.854  18.888  0.00  0.00    +0.000 C 
ATOM     13  C   UNL     1       1.405   4.235  18.306  0.00  0.00    +0.000 C 
ENDBRANCH   4   8
BRANCH   7  14
ATOM     14  C   UNL     1       6.714   4.657  14.534  0.00  0.00    +0.000 C 
BRANCH  14  15
ATOM     15  C   UNL     1       6.287   3.721  13.397  0.00  0.00    +0.000 C 
BRANCH  15  16
ATOM     16  C   UNL     1       7.045   4.092  12.111  0.00  0.00    +0.000 C 
ATOM     17  F   UNL     1       6.229   4.591  11.154  0.00  0.00    +0.000 F 
ATOM     18  F   UNL     1       7.994   5.026  12.356  0.00  0.00    +0.000 F 
ATOM     19  F   UNL     1       7.667   3.017  11.570  0.00  0.00    +0.000 F 
ENDBRANCH  15  16
BRANCH  15  20
ATOM     20  O   UNL     1       4.854   3.737  13.212  0.00  0.00    +0.000 OA
ATOM     21  H   UNL     1       4.667   3.668  12.256  0.00  0.00    +0.000 HD
ENDBRANCH  15  20
ENDBRANCH  14  15
ENDBRANCH   7  14
TORSDOF 5
ENDMDL
MODEL 9
REMARK VINA RESULT:      -6.8      1.193      1.452
REMARK  Name = 
REMARK  5 active torsions:
REMARK  status: ('A' for Active; 'I' for Inactive)
REMARK    1  A    between atoms: C_4  and  N_5
REMARK    2  A    between atoms: N_13  and  C_14
REMARK    3  A    between atoms: C_14  and  C_15
REMARK    4  A    between atoms: C_15  and  O_16
REMARK    5  A    between atoms: C_15  and  C_17
REMARK                            x       y       z     vdW  Elec       q    Type
REMARK                         _______ _______ _______ _____ _____    ______ ____
ROOT
ATOM      1  O   UNL     1       7.454   4.379  18.581  0.00  0.00    +0.000 OA
ATOM      2  C   UNL     1       6.332   4.442  18.069  0.00  0.00    +0.000 A 
ATOM      3  C   UNL     1       5.138   4.383  18.935  0.00  0.00    +0.000 A 
ATOM      4  C   UNL     1       3.892   4.492  18.458  0.00  0.00    +0.000 A 
ATOM      5  C   UNL     1       3.844   4.631  16.975  0.00  0.00    +0.000 A 
ATOM      6  N   UNL     1       4.847   4.663  16.156  0.00  0.00    +0.000 NA
ATOM      7  N   UNL     1       6.099   4.555  16.710  0.00  0.00    +0.000 N 
ENDROOT
BRANCH   4   8
ATOM      8  N   UNL     1       2.716   4.506  19.216  0.00  0.00    +0.000 N 
ATOM      9  C   UNL     1       2.665   4.814  20.654  0.00  0.00    +0.000 C 
ATOM     10  C   UNL     1       2.323   3.550  21.438  0.00  0.00    +0.000 C 
ATOM     11  C   UNL     1       0.991   2.976  20.959  0.00  0.00    +0.000 C 
ATOM     12  C   UNL     1       1.019   2.737  19.452  0.00  0.00    +0.000 C 
ATOM     13  C   UNL     1       1.438   3.993  18.685  0.00  0.00    +0.000 C 
ENDBRANCH   4   8
BRANCH   7  14
ATOM     14  C   UNL     1       7.220   4.637  15.781  0.00  0.00    +0.000 C 
BRANCH  14  15
ATOM     15  C   UNL     1       6.789   5.064  14.372  0.00  0.00    +0.000 C 
BRANCH  15  16
ATOM     16  C   UNL     1       6.194   3.858  13.627  0.00  0.00    +0.000 C 
ATOM     17  F   UNL     1       6.193   2.733  14.378  0.00  0.00    +0.000 F 
ATOM     18  F   UNL     1       4.914   4.095  13.258  0.00  0.00    +0.000 F 
ATOM     19  F   UNL     1       6.893   3.573  12.502  0.00  0.00    +0.000 F 
ENDBRANCH  15  16
BRANCH  15  20
ATOM     20  O   UNL     1       7.883   5.671  13.648  0.00  0.00    +0.000 OA
ATOM     21  H   UNL     1       8.016   6.575  13.995  0.00  0.00    +0.000 HD
ENDBRANCH  15  20
ENDBRANCH  14  15
ENDBRANCH   7  14
TORSDOF 5
ENDMDL
