MODEL 1
REMARK VINA RESULT:      -8.2      0.000      0.000
REMARK  Name = 
REMARK  5 active torsions:
REMARK  status: ('A' for Active; 'I' for Inactive)
REMARK    1  A    between atoms: C_1  and  C_2
REMARK    2  A    between atoms: N_4  and  C_5
REMARK    3  A    between atoms: C_9  and  N_10
REMARK    4  A    between atoms: C_11  and  C_13
REMARK    5  A    between atoms: C_13  and  C_14
REMARK                            x       y       z     vdW  Elec       q    Type
REMARK                         _______ _______ _______ _____ _____    ______ ____
ROOT
ATOM      1  N   UNL     1       0.522   9.884  20.619  0.00  0.00    +0.000 N 
ATOM      2  C   UNL     1       0.400   8.643  21.243  0.00  0.00    +0.000 C 
ATOM      3  O   UNL     1      -0.648   8.134  21.639  0.00  0.00    +0.000 OA
ATOM      4  H   UNL     1       1.433  10.135  20.258  0.00  0.00    +0.000 HD
ENDROOT
BRANCH   1   9
ATOM      5  C   UNL     1      -2.181  11.777  18.850  0.00  0.00    +0.000 A 
ATOM      6  C   UNL     1      -2.616  12.621  19.871  0.00  0.00    +0.000 A 
ATOM      7  C   UNL     1      -2.011  12.586  21.123  0.00  0.00    +0.000 A 
ATOM      8  C   UNL     1      -0.974  11.693  21.374  0.00  0.00    +0.000 A 
ATOM      9  C   UNL     1      -0.531  10.810  20.389  0.00  0.00    +0.000 A 
ATOM     10  C   UNL     1      -1.143  10.861  19.119  0.00  0.00    +0.000 A 
BRANCH   5  14
ATOM     11  C   UNL     1      -3.458  11.091  15.355  0.00  0.00    +0.000 C 
ATOM     12  C   UNL     1      -2.838  10.728  16.680  0.00  0.00    +0.000 C 
ATOM     13  O   UNL     1      -2.470   9.577  16.887  0.00  0.00    +0.000 OA
ATOM     14  N   UNL     1      -2.764  11.802  17.558  0.00  0.00    +0.000 N 
ATOM     15  H   UNL     1      -3.238  12.652  17.285  0.00  0.00    +0.000 HD
ENDBRANCH   5  14
ENDBRANCH   1   9
BRANCH   2  16
ATOM     16  C   UNL     1       1.708   7.875  21.393  0.00  0.00    +0.000 C 
BRANCH  16  17
ATOM     17  C   UNL     1       1.893   6.792  20.356  0.00  0.00    +0.000 A 
ATOM     18  C   UNL     1       2.407   7.111  19.098  0.00  0.00    +0.000 A 
ATOM     19  C   UNL     1       2.635   6.111  18.149  0.00  0.00    +0.000 A 
ATOM     20  C   UNL     1       2.355   4.769  18.435  0.00  0.00    +0.000 A 
ATOM     21  C   UNL     1       2.658   3.752  17.515  0.00  0.00    +0.000 A 
ATOM     22  C   UNL     1       2.376   2.419  17.810  0.00  0.00    +0.000 A 
ATOM     23  C   UNL     1       1.753   2.091  19.008  0.00  0.00    +0.000 A 
ATOM     24  C   UNL     1       1.445   3.091  19.934  0.00  0.00    +0.000 A 
ATOM     25  C   UNL     1       1.767   4.435  19.676  0.00  0.00    +0.000 A 
ATOM     26  C   UNL     1       1.541   5.456  20.623  0.00  0.00    +0.000 A 
ENDBRANCH  16  17
ENDBRANCH   2  16
TORSDOF 4
ENDMDL
MODEL 2
REMARK VINA RESULT:      -8.2      1.924      2.525
REMARK  Name = 
REMARK  5 active torsions:
REMARK  status: ('A' for Active; 'I' for Inactive)
REMARK    1  A    between atoms: C_1  and  C_2
REMARK    2  A    between atoms: N_4  and  C_5
REMARK    3  A    between atoms: C_9  and  N_10
REMARK    4  A    between atoms: C_11  and  C_13
REMARK    5  A    between atoms: C_13  and  C_14
REMARK                            x       y       z     vdW  Elec       q    Type
REMARK                         _______ _______ _______ _____ _____    ______ ____
ROOT
ATOM      1  N   UNL     1       0.494   9.433  18.463  0.00  0.00    +0.000 N 
ATOM      2  C   UNL     1       1.818   9.647  18.085  0.00  0.00    +0.000 C 
ATOM      3  O   UNL     1       2.424  10.716  18.151  0.00  0.00    +0.000 OA
ATOM      4  H   UNL     1       0.153   8.481  18.446  0.00  0.00    +0.000 HD
ENDROOT
BRANCH   1   9
ATOM      5  C   UNL     1      -2.459  11.734  18.575  0.00  0.00    +0.000 A 
ATOM      6  C   UNL     1      -2.238  12.378  19.791  0.00  0.00    +0.000 A 
ATOM      7  C   UNL     1      -1.118  12.077  20.558  0.00  0.00    +0.000 A 
ATOM      8  C   UNL     1      -0.211  11.114  20.124  0.00  0.00    +0.000 A 
ATOM      9  C   UNL     1      -0.412  10.424  18.928  0.00  0.00    +0.000 A 
ATOM     10  C   UNL     1      -1.546  10.745  18.152  0.00  0.00    +0.000 A 
BRANCH   5  14
ATOM     11  C   UNL     1      -5.873  12.234  17.025  0.00  0.00    +0.000 C 
ATOM     12  C   UNL     1      -4.912  11.902  18.137  0.00  0.00    +0.000 C 
ATOM     13  O   UNL     1      -5.341  11.566  19.236  0.00  0.00    +0.000 OA
ATOM     14  N   UNL     1      -3.581  12.032  17.762  0.00  0.00    +0.000 N 
ATOM     15  H   UNL     1      -3.396  12.452  16.862  0.00  0.00    +0.000 HD
ENDBRANCH   5  14
ENDBRANCH   1   9
BRANCH   2  16
ATOM     16  C   UNL     1       2.545   8.405  17.585  0.00  0.00    +0.000 C 
BRANCH  16  17
ATOM     17  C   UNL     1       2.300   7.179  18.433  0.00  0.00    +0.000 A 
ATOM     18  C   UNL     1       2.223   7.297  19.822  0.00  0.00    +0.000 A 
ATOM     19  C   UNL     1       1.942   6.181  20.616  0.00  0.00    +0.000 A 
ATOM     20  C   UNL     1       1.732   4.922  20.039  0.00  0.00    +0.000 A 
ATOM     21  C   UNL     1       1.370   3.815  20.825  0.00  0.00    +0.000 A 
ATOM     22  C   UNL     1       1.163   2.566  20.241  0.00  0.00    +0.000 A 
ATOM     23  C   UNL     1       1.352   2.400  18.875  0.00  0.00    +0.000 A 
ATOM     24  C   UNL     1       1.712   3.491  18.079  0.00  0.00    +0.000 A 
ATOM     25  C   UNL     1       1.877   4.769  18.642  0.00  0.00    +0.000 A 
ATOM     26  C   UNL     1       2.163   5.904  17.855  0.00  0.00    +0.000 A 
ENDBRANCH  16  17
ENDBRANCH   2  16
TORSDOF 4
ENDMDL
MODEL 3
REMARK VINA RESULT:      -8.1      2.332      3.530
REMARK  Name = 
REMARK  5 active torsions:
REMARK  status: ('A' for Active; 'I' for Inactive)
REMARK    1  A    between atoms: C_1  and  C_2
REMARK    2  A    between atoms: N_4  and  C_5
REMARK    3  A    between atoms: C_9  and  N_10
REMARK    4  A    between atoms: C_11  and  C_13
REMARK    5  A    between atoms: C_13  and  C_14
REMARK                            x       y       z     vdW  Elec       q    Type
REMARK                         _______ _______ _______ _____ _____    ______ ____
ROOT
ATOM      1  N   UNL     1      -1.221  10.097  18.650  0.00  0.00    +0.000 N 
ATOM      2  C   UNL     1      -0.183  10.925  19.075  0.00  0.00    +0.000 C 
ATOM      3  O   UNL     1      -0.017  12.100  18.750  0.00  0.00    +0.000 OA
ATOM      4  H   UNL     1      -1.289   9.181  19.073  0.00  0.00    +0.000 HD
ENDROOT
BRANCH   1   9
ATOM      5  C   UNL     1      -4.348  11.592  17.233  0.00  0.00    +0.000 A 
ATOM      6  C   UNL     1      -4.268  11.154  15.912  0.00  0.00    +0.000 A 
ATOM      7  C   UNL     1      -3.209  10.354  15.495  0.00  0.00    +0.000 A 
ATOM      8  C   UNL     1      -2.207   9.997  16.391  0.00  0.00    +0.000 A 
ATOM      9  C   UNL     1      -2.233  10.441  17.714  0.00  0.00    +0.000 A 
ATOM     10  C   UNL     1      -3.317  11.243  18.130  0.00  0.00    +0.000 A 
BRANCH   5  14
ATOM     11  C   UNL     1      -7.599  13.022  18.535  0.00  0.00    +0.000 C 
ATOM     12  C   UNL     1      -6.632  11.919  18.191  0.00  0.00    +0.000 C 
ATOM     13  O   UNL     1      -6.951  10.749  18.369  0.00  0.00    +0.000 OA
ATOM     14  N   UNL     1      -5.424  12.392  17.693  0.00  0.00    +0.000 N 
ATOM     15  H   UNL     1      -5.267  13.389  17.738  0.00  0.00    +0.000 HD
ENDBRANCH   5  14
ENDBRANCH   1   9
BRANCH   2  16
ATOM     16  C   UNL     1       0.786  10.277  20.057  0.00  0.00    +0.000 C 
BRANCH  16  17
ATOM     17  C   UNL     1       1.462   9.041  19.510  0.00  0.00    +0.000 A 
ATOM     18  C   UNL     1       2.005   9.055  18.224  0.00  0.00    +0.000 A 
ATOM     19  C   UNL     1       2.682   7.938  17.726  0.00  0.00    +0.000 A 
ATOM     20  C   UNL     1       2.831   6.782  18.503  0.00  0.00    +0.000 A 
ATOM     21  C   UNL     1       3.579   5.688  18.037  0.00  0.00    +0.000 A 
ATOM     22  C   UNL     1       3.722   4.541  18.818  0.00  0.00    +0.000 A 
ATOM     23  C   UNL     1       3.089   4.460  20.052  0.00  0.00    +0.000 A 
ATOM     24  C   UNL     1       2.341   5.539  20.528  0.00  0.00    +0.000 A 
ATOM     25  C   UNL     1       2.226   6.723  19.778  0.00  0.00    +0.000 A 
ATOM     26  C   UNL     1       1.545   7.857  20.266  0.00  0.00    +0.000 A 
ENDBRANCH  16  17
ENDBRANCH   2  16
TORSDOF 4
ENDMDL
MODEL 4
REMARK VINA RESULT:      -8.1      4.581      8.859
REMARK  Name = 
REMARK  5 active torsions:
REMARK  status: ('A' for Active; 'I' for Inactive)
REMARK    1  A    between atoms: C_1  and  C_2
REMARK    2  A    between atoms: N_4  and  C_5
REMARK    3  A    between atoms: C_9  and  N_10
REMARK    4  A    between atoms: C_11  and  C_13
REMARK    5  A    between atoms: C_13  and  C_14
REMARK                            x       y       z     vdW  Elec       q    Type
REMARK                         _______ _______ _______ _____ _____    ______ ____
ROOT
ATOM      1  N   UNL     1       4.219   7.418  17.172  0.00  0.00    +0.000 N 
ATOM      2  C   UNL     1       2.966   7.296  17.770  0.00  0.00    +0.000 C 
ATOM      3  O   UNL     1       2.518   6.284  18.308  0.00  0.00    +0.000 OA
ATOM      4  H   UNL     1       4.495   8.338  16.854  0.00  0.00    +0.000 HD
ENDROOT
BRANCH   1   9
ATOM      5  C   UNL     1       6.264   4.723  15.567  0.00  0.00    +0.000 A 
ATOM      6  C   UNL     1       7.045   4.314  16.646  0.00  0.00    +0.000 A 
ATOM      7  C   UNL     1       6.885   4.900  17.897  0.00  0.00    +0.000 A 
ATOM      8  C   UNL     1       5.953   5.917  18.080  0.00  0.00    +0.000 A 
ATOM      9  C   UNL     1       5.175   6.378  17.017  0.00  0.00    +0.000 A 
ATOM     10  C   UNL     1       5.336   5.769  15.754  0.00  0.00    +0.000 A 
BRANCH   5  14
ATOM     11  C   UNL     1       7.034   3.803  11.979  0.00  0.00    +0.000 C 
ATOM     12  C   UNL     1       7.162   4.621  13.238  0.00  0.00    +0.000 C 
ATOM     13  O   UNL     1       7.901   5.600  13.258  0.00  0.00    +0.000 OA
ATOM     14  N   UNL     1       6.390   4.133  14.285  0.00  0.00    +0.000 N 
ATOM     15  H   UNL     1       5.945   3.236  14.147  0.00  0.00    +0.000 HD
ENDBRANCH   5  14
ENDBRANCH   1   9
BRANCH   2  16
ATOM     16  C   UNL     1       2.130   8.570  17.761  0.00  0.00    +0.000 C 
BRANCH  16  17
ATOM     17  C   UNL     1       1.468   8.867  19.086  0.00  0.00    +0.000 A 
ATOM     18  C   UNL     1       1.742   8.067  20.197  0.00  0.00    +0.000 A 
ATOM     19  C   UNL     1       1.180   8.364  21.442  0.00  0.00    +0.000 A 
ATOM     20  C   UNL     1       0.331   9.466  21.605  0.00  0.00    +0.000 A 
ATOM     21  C   UNL     1      -0.171   9.814  22.869  0.00  0.00    +0.000 A 
ATOM     22  C   UNL     1      -1.016  10.913  23.021  0.00  0.00    +0.000 A 
ATOM     23  C   UNL     1      -1.399  11.652  21.908  0.00  0.00    +0.000 A 
ATOM     24  C   UNL     1      -0.908  11.318  20.643  0.00  0.00    +0.000 A 
ATOM     25  C   UNL     1      -0.016  10.243  20.477  0.00  0.00    +0.000 A 
ATOM     26  C   UNL     1       0.558   9.931  19.227  0.00  0.00    +0.000 A 
ENDBRANCH  16  17
ENDBRANCH   2  16
TORSDOF 4
ENDMDL
MODEL 5
REMARK VINA RESULT:      -8.1      2.472      3.393
REMARK  Name = 
REMARK  5 active torsions:
REMARK  status: ('A' for Active; 'I' for Inactive)
REMARK    1  A    between atoms: C_1  and  C_2
REMARK    2  A    between atoms: N_4  and  C_5
REMARK    3  A    between atoms: C_9  and  N_10
REMARK    4  A    between atoms: C_11  and  C_13
REMARK    5  A    between atoms: C_13  and  C_14
REMARK                            x       y       z     vdW  Elec       q    Type
REMARK                         _______ _______ _______ _____ _____    ______ ____
ROOT
ATOM      1  N   UNL     1       1.220   9.377  19.468  0.00  0.00    +0.000 N 
ATOM      2  C   UNL     1       1.912   8.485  18.650  0.00  0.00    +0.000 C 
ATOM      3  O   UNL     1       2.171   8.649  17.458  0.00  0.00    +0.000 OA
ATOM      4  H   UNL     1       1.164   9.157  20.453  0.00  0.00    +0.000 HD
ENDROOT
BRANCH   1   9
ATOM      5  C   UNL     1      -1.360  11.842  18.333  0.00  0.00    +0.000 A 
ATOM      6  C   UNL     1      -0.587  12.997  18.230  0.00  0.00    +0.000 A 
ATOM      7  C   UNL     1       0.776  12.962  18.508  0.00  0.00    +0.000 A 
ATOM      8  C   UNL     1       1.379  11.774  18.909  0.00  0.00    +0.000 A 
ATOM      9  C   UNL     1       0.633  10.604  19.055  0.00  0.00    +0.000 A 
ATOM     10  C   UNL     1      -0.746  10.646  18.761  0.00  0.00    +0.000 A 
BRANCH   5  14
ATOM     11  C   UNL     1      -4.818  11.626  16.813  0.00  0.00    +0.000 C 
ATOM     12  C   UNL     1      -3.322  11.448  16.838  0.00  0.00    +0.000 C 
ATOM     13  O   UNL     1      -2.745  10.989  15.858  0.00  0.00    +0.000 OA
ATOM     14  N   UNL     1      -2.747  11.841  18.040  0.00  0.00    +0.000 N 
ATOM     15  H   UNL     1      -3.376  12.068  18.797  0.00  0.00    +0.000 HD
ENDBRANCH   5  14
ENDBRANCH   1   9
BRANCH   2  16
ATOM     16  C   UNL     1       2.399   7.224  19.354  0.00  0.00    +0.000 C 
BRANCH  16  17
ATOM     17  C   UNL     1       3.155   6.281  18.448  0.00  0.00    +0.000 A 
ATOM     18  C   UNL     1       2.586   5.059  18.083  0.00  0.00    +0.000 A 
ATOM     19  C   UNL     1       3.249   4.201  17.202  0.00  0.00    +0.000 A 
ATOM     20  C   UNL     1       4.497   4.544  16.665  0.00  0.00    +0.000 A 
ATOM     21  C   UNL     1       5.129   3.723  15.717  0.00  0.00    +0.000 A 
ATOM     22  C   UNL     1       6.370   4.073  15.188  0.00  0.00    +0.000 A 
ATOM     23  C   UNL     1       7.011   5.226  15.628  0.00  0.00    +0.000 A 
ATOM     24  C   UNL     1       6.394   6.053  16.570  0.00  0.00    +0.000 A 
ATOM     25  C   UNL     1       5.121   5.742  17.078  0.00  0.00    +0.000 A 
ATOM     26  C   UNL     1       4.439   6.597  17.969  0.00  0.00    +0.000 A 
ENDBRANCH  16  17
ENDBRANCH   2  16
TORSDOF 4
ENDMDL
MODEL 6
REMARK VINA RESULT:      -8.1      1.710      2.881
REMARK  Name = 
REMARK  5 active torsions:
REMARK  status: ('A' for Active; 'I' for Inactive)
REMARK    1  A    between atoms: C_1  and  C_2
REMARK    2  A    between atoms: N_4  and  C_5
REMARK    3  A    between atoms: C_9  and  N_10
REMARK    4  A    between atoms: C_11  and  C_13
REMARK    5  A    between atoms: C_13  and  C_14
REMARK                            x       y       z     vdW  Elec       q    Type
REMARK                         _______ _______ _______ _____ _____    ______ ____
ROOT
ATOM      1  N   UNL     1       0.352   9.722  20.066  0.00  0.00    +0.000 N 
ATOM      2  C   UNL     1       0.392   8.707  21.020  0.00  0.00    +0.000 C 
ATOM      3  O   UNL     1      -0.550   8.336  21.720  0.00  0.00    +0.000 OA
ATOM      4  H   UNL     1       1.175   9.856  19.494  0.00  0.00    +0.000 HD
ENDROOT
BRANCH   1   9
ATOM      5  C   UNL     1      -2.259  12.377  20.469  0.00  0.00    +0.000 A 
ATOM      6  C   UNL     1      -2.962  12.231  19.275  0.00  0.00    +0.000 A 
ATOM      7  C   UNL     1      -2.599  11.254  18.355  0.00  0.00    +0.000 A 
ATOM      8  C   UNL     1      -1.514  10.420  18.611  0.00  0.00    +0.000 A 
ATOM      9  C   UNL     1      -0.764  10.555  19.780  0.00  0.00    +0.000 A 
ATOM     10  C   UNL     1      -1.148  11.543  20.712  0.00  0.00    +0.000 A 
BRANCH   5  14
ATOM     11  C   UNL     1      -3.840  14.491  23.180  0.00  0.00    +0.000 C 
ATOM     12  C   UNL     1      -3.680  13.260  22.324  0.00  0.00    +0.000 C 
ATOM     13  O   UNL     1      -4.448  12.314  22.464  0.00  0.00    +0.000 OA
ATOM     14  N   UNL     1      -2.616  13.351  21.435  0.00  0.00    +0.000 N 
ATOM     15  H   UNL     1      -1.996  14.142  21.540  0.00  0.00    +0.000 HD
ENDBRANCH   5  14
ENDBRANCH   1   9
BRANCH   2  16
ATOM     16  C   UNL     1       1.737   8.001  21.141  0.00  0.00    +0.000 C 
BRANCH  16  17
ATOM     17  C   UNL     1       1.901   6.846  20.181  0.00  0.00    +0.000 A 
ATOM     18  C   UNL     1       2.479   7.058  18.928  0.00  0.00    +0.000 A 
ATOM     19  C   UNL     1       2.688   5.989  18.052  0.00  0.00    +0.000 A 
ATOM     20  C   UNL     1       2.324   4.684  18.408  0.00  0.00    +0.000 A 
ATOM     21  C   UNL     1       2.605   3.597  17.565  0.00  0.00    +0.000 A 
ATOM     22  C   UNL     1       2.239   2.302  17.929  0.00  0.00    +0.000 A 
ATOM     23  C   UNL     1       1.554   2.084  19.118  0.00  0.00    +0.000 A 
ATOM     24  C   UNL     1       1.266   3.155  19.968  0.00  0.00    +0.000 A 
ATOM     25  C   UNL     1       1.672   4.461  19.641  0.00  0.00    +0.000 A 
ATOM     26  C   UNL     1       1.466   5.550  20.514  0.00  0.00    +0.000 A 
ENDBRANCH  16  17
ENDBRANCH   2  16
TORSDOF 4
ENDMDL
MODEL 7
REMARK VINA RESULT:      -8.1      4.401      8.470
REMARK  Name = 
REMARK  5 active torsions:
REMARK  status: ('A' for Active; 'I' for Inactive)
REMARK    1  A    between atoms: C_1  and  C_2
REMARK    2  A    between atoms: N_4  and  C_5
REMARK    3  A    between atoms: C_9  and  N_10
REMARK    4  A    between atoms: C_11  and  C_13
REMARK    5  A    between atoms: C_13  and  C_14
REMARK                            x       y       z     vdW  Elec       q    Type
REMARK                         _______ _______ _______ _____ _____    ______ ____
ROOT
ATOM      1  N   UNL     1       4.065   5.725  19.318  0.00  0.00    +0.000 N 
ATOM      2  C   UNL     1       3.212   4.861  20.002  0.00  0.00    +0.000 C 
ATOM      3  O   UNL     1       3.378   3.651  20.153  0.00  0.00    +0.000 OA
ATOM      4  H   UNL     1       3.854   6.713  19.355  0.00  0.00    +0.000 HD
ENDROOT
BRANCH   1   9
ATOM      5  C   UNL     1       6.279   4.394  16.607  0.00  0.00    +0.000 A 
ATOM      6  C   UNL     1       7.535   4.590  17.179  0.00  0.00    +0.000 A 
ATOM      7  C   UNL     1       7.654   5.133  18.454  0.00  0.00    +0.000 A 
ATOM      8  C   UNL     1       6.517   5.502  19.166  0.00  0.00    +0.000 A 
ATOM      9  C   UNL     1       5.243   5.352  18.616  0.00  0.00    +0.000 A 
ATOM     10  C   UNL     1       5.132   4.790  17.326  0.00  0.00    +0.000 A 
BRANCH   5  14
ATOM     11  C   UNL     1       6.169   3.579  12.914  0.00  0.00    +0.000 C 
ATOM     12  C   UNL     1       6.539   4.400  14.123  0.00  0.00    +0.000 C 
ATOM     13  O   UNL     1       7.151   5.453  13.981  0.00  0.00    +0.000 OA
ATOM     14  N   UNL     1       6.124   3.826  15.318  0.00  0.00    +0.000 N 
ATOM     15  H   UNL     1       5.753   2.887  15.272  0.00  0.00    +0.000 HD
ENDBRANCH   5  14
ENDBRANCH   1   9
BRANCH   2  16
ATOM     16  C   UNL     1       1.996   5.533  20.630  0.00  0.00    +0.000 C 
BRANCH  16  17
ATOM     17  C   UNL     1       1.764   6.942  20.137  0.00  0.00    +0.000 A 
ATOM     18  C   UNL     1       2.064   7.277  18.815  0.00  0.00    +0.000 A 
ATOM     19  C   UNL     1       1.803   8.561  18.330  0.00  0.00    +0.000 A 
ATOM     20  C   UNL     1       1.237   9.541  19.156  0.00  0.00    +0.000 A 
ATOM     21  C   UNL     1       0.899  10.808  18.651  0.00  0.00    +0.000 A 
ATOM     22  C   UNL     1       0.336  11.776  19.481  0.00  0.00    +0.000 A 
ATOM     23  C   UNL     1       0.141  11.505  20.830  0.00  0.00    +0.000 A 
ATOM     24  C   UNL     1       0.472  10.250  21.347  0.00  0.00    +0.000 A 
ATOM     25  C   UNL     1       0.995   9.244  20.515  0.00  0.00    +0.000 A 
ATOM     26  C   UNL     1       1.265   7.943  20.990  0.00  0.00    +0.000 A 
ENDBRANCH  16  17
ENDBRANCH   2  16
TORSDOF 4
ENDMDL
MODEL 8
REMARK VINA RESULT:      -8.1      3.020      8.269
REMARK  Name = 
REMARK  5 active torsions:
REMARK  status: ('A' for Active; 'I' for Inactive)
REMARK    1  A    between atoms: C_1  and  C_2
REMARK    2  A    between atoms: N_4  and  C_5
REMARK    3  A    between atoms: C_9  and  N_10
REMARK    4  A    between atoms: C_11  and  C_13
REMARK    5  A    between atoms: C_13  and  C_14
REMARK                            x       y       z     vdW  Elec       q    Type
REMARK                         _______ _______ _______ _____ _____    ______ ____
ROOT
ATOM      1  N   UNL     1       1.861   7.830  20.007  0.00  0.00    +0.000 N 
ATOM      2  C   UNL     1       1.735   8.755  18.972  0.00  0.00    +0.000 C 
ATOM      3  O   UNL     1       1.929   8.534  17.777  0.00  0.00    +0.000 OA
ATOM      4  H   UNL     1       1.576   8.124  20.931  0.00  0.00    +0.000 HD
ENDROOT
BRANCH   1   9
ATOM      5  C   UNL     1       3.932   4.885  18.978  0.00  0.00    +0.000 A 
ATOM      6  C   UNL     1       3.218   3.846  19.573  0.00  0.00    +0.000 A 
ATOM      7  C   UNL     1       2.053   4.107  20.286  0.00  0.00    +0.000 A 
ATOM      8  C   UNL     1       1.596   5.414  20.427  0.00  0.00    +0.000 A 
ATOM      9  C   UNL     1       2.300   6.485  19.874  0.00  0.00    +0.000 A 
ATOM     10  C   UNL     1       3.475   6.209  19.143  0.00  0.00    +0.000 A 
BRANCH   5  14
ATOM     11  C   UNL     1       7.448   4.601  17.609  0.00  0.00    +0.000 C 
ATOM     12  C   UNL     1       6.410   4.890  18.663  0.00  0.00    +0.000 C 
ATOM     13  O   UNL     1       6.758   5.288  19.769  0.00  0.00    +0.000 OA
ATOM     14  N   UNL     1       5.113   4.649  18.229  0.00  0.00    +0.000 N 
ATOM     15  H   UNL     1       5.005   4.192  17.335  0.00  0.00    +0.000 HD
ENDBRANCH   5  14
ENDBRANCH   1   9
BRANCH   2  16
ATOM     16  C   UNL     1       1.280  10.142  19.411  0.00  0.00    +0.000 C 
BRANCH  16  17
ATOM     17  C   UNL     1      -0.134  10.473  18.995  0.00  0.00    +0.000 A 
ATOM     18  C   UNL     1      -0.946  11.239  19.834  0.00  0.00    +0.000 A 
ATOM     19  C   UNL     1      -2.237  11.599  19.438  0.00  0.00    +0.000 A 
ATOM     20  C   UNL     1      -2.746  11.203  18.195  0.00  0.00    +0.000 A 
ATOM     21  C   UNL     1      -4.011  11.630  17.759  0.00  0.00    +0.000 A 
ATOM     22  C   UNL     1      -4.508  11.230  16.520  0.00  0.00    +0.000 A 
ATOM     23  C   UNL     1      -3.766  10.370  15.720  0.00  0.00    +0.000 A 
ATOM     24  C   UNL     1      -2.506   9.935  16.139  0.00  0.00    +0.000 A 
ATOM     25  C   UNL     1      -1.966  10.368  17.364  0.00  0.00    +0.000 A 
ATOM     26  C   UNL     1      -0.666  10.011  17.778  0.00  0.00    +0.000 A 
ENDBRANCH  16  17
ENDBRANCH   2  16
TORSDOF 4
ENDMDL
MODEL 9
REMARK VINA RESULT:      -8.0      1.203      1.368
REMARK  Name = 
REMARK  5 active torsions:
REMARK  status: ('A' for Active; 'I' for Inactive)
REMARK    1  A    between atoms: C_1  and  C_2
REMARK    2  A    between atoms: N_4  and  C_5
REMARK    3  A    between atoms: C_9  and  N_10
REMARK    4  A    between atoms: C_11  and  C_13
REMARK    5  A    between atoms: C_13  and  C_14
REMARK                            x       y       z     vdW  Elec       q    Type
REMARK                         _______ _______ _______ _____ _____    ______ ____
ROOT
ATOM      1  N   UNL     1       1.318   9.906  19.888  0.00  0.00    +0.000 N 
ATOM      2  C   UNL     1       0.757   9.007  20.793  0.00  0.00    +0.000 C 
ATOM      3  O   UNL     1      -0.404   9.020  21.199  0.00  0.00    +0.000 OA
ATOM      4  H   UNL     1       2.259   9.719  19.568  0.00  0.00    +0.000 HD
ENDROOT
BRANCH   1   9
ATOM      5  C   UNL     1      -1.358  12.031  18.355  0.00  0.00    +0.000 A 
ATOM      6  C   UNL     1      -0.673  13.235  18.198  0.00  0.00    +0.000 A 
ATOM      7  C   UNL     1       0.663  13.342  18.570  0.00  0.00    +0.000 A 
ATOM      8  C   UNL     1       1.327  12.250  19.120  0.00  0.00    +0.000 A 
ATOM      9  C   UNL     1       0.668  11.037  19.323  0.00  0.00    +0.000 A 
ATOM     10  C   UNL     1      -0.684  10.934  18.933  0.00  0.00    +0.000 A 
BRANCH   5  14
ATOM     11  C   UNL     1      -4.662  11.363  16.638  0.00  0.00    +0.000 C 
ATOM     12  C   UNL     1      -3.163  11.309  16.788  0.00  0.00    +0.000 C 
ATOM     13  O   UNL     1      -2.481  10.785  15.914  0.00  0.00    +0.000 OA
ATOM     14  N   UNL     1      -2.713  11.885  17.969  0.00  0.00    +0.000 N 
ATOM     15  H   UNL     1      -3.414  12.149  18.647  0.00  0.00    +0.000 HD
ENDBRANCH   5  14
ENDBRANCH   1   9
BRANCH   2  16
ATOM     16  C   UNL     1       1.701   7.908  21.266  0.00  0.00    +0.000 C 
BRANCH  16  17
ATOM     17  C   UNL     1       1.871   6.787  20.267  0.00  0.00    +0.000 A 
ATOM     18  C   UNL     1       2.474   7.038  19.033  0.00  0.00    +0.000 A 
ATOM     19  C   UNL     1       2.687   5.999  18.122  0.00  0.00    +0.000 A 
ATOM     20  C   UNL     1       2.301   4.687  18.424  0.00  0.00    +0.000 A 
ATOM     21  C   UNL     1       2.586   3.628  17.546  0.00  0.00    +0.000 A 
ATOM     22  C   UNL     1       2.199   2.325  17.855  0.00  0.00    +0.000 A 
ATOM     23  C   UNL     1       1.490   2.071  19.023  0.00  0.00    +0.000 A 
ATOM     24  C   UNL     1       1.199   3.114  19.906  0.00  0.00    +0.000 A 
ATOM     25  C   UNL     1       1.625   4.426  19.636  0.00  0.00    +0.000 A 
ATOM     26  C   UNL     1       1.415   5.485  20.544  0.00  0.00    +0.000 A 
ENDBRANCH  16  17
ENDBRANCH   2  16
TORSDOF 4
ENDMDL
