MODEL 1
REMARK VINA RESULT:      -5.5      0.000      0.000
REMARK  Name = 
REMARK  0 active torsions:
REMARK  status: ('A' for Active; 'I' for Inactive)
REMARK                            x       y       z     vdW  Elec       q    Type
REMARK                         _______ _______ _______ _____ _____    ______ ____
ROOT
ATOM      1  O   UNL     1       7.132   5.395  19.999  0.00  0.00    +0.000 OA
ATOM      2  C   UNL     1       6.653   5.396  18.878  0.00  0.00    +0.000 A 
ATOM      3  S   UNL     1       7.229   6.431  17.583  0.00  0.00    +0.000 S 
ATOM      4  S   UNL     1       6.230   5.534  16.081  0.00  0.00    +0.000 S 
ATOM      5  O   UNL     1       5.376   6.733  15.547  0.00  0.00    +0.000 OA
ATOM      6  C   UNL     1       5.168   4.575  17.142  0.00  0.00    +0.000 A 
ATOM      7  C   UNL     1       4.060   3.864  16.688  0.00  0.00    +0.000 A 
ATOM      8  C   UNL     1       3.348   3.069  17.589  0.00  0.00    +0.000 A 
ATOM      9  C   UNL     1       3.745   2.985  18.930  0.00  0.00    +0.000 A 
ATOM     10  C   UNL     1       4.834   3.727  19.388  0.00  0.00    +0.000 A 
ATOM     11  C   UNL     1       5.527   4.532  18.485  0.00  0.00    +0.000 A 
ENDROOT
TORSDOF 0
ENDMDL
MODEL 2
REMARK VINA RESULT:      -5.3      1.651      3.015
REMARK  Name = 
REMARK  0 active torsions:
REMARK  status: ('A' for Active; 'I' for Inactive)
REMARK                            x       y       z     vdW  Elec       q    Type
REMARK                         _______ _______ _______ _____ _____    ______ ____
ROOT
ATOM      1  O   UNL     1       5.894   3.481  15.489  0.00  0.00    +0.000 OA
ATOM      2  C   UNL     1       5.927   4.090  16.545  0.00  0.00    +0.000 A 
ATOM      3  S   UNL     1       7.410   4.690  17.268  0.00  0.00    +0.000 S 
ATOM      4  S   UNL     1       6.551   5.854  18.670  0.00  0.00    +0.000 S 
ATOM      5  O   UNL     1       7.145   5.220  19.974  0.00  0.00    +0.000 OA
ATOM      6  C   UNL     1       4.916   5.179  18.465  0.00  0.00    +0.000 A 
ATOM      7  C   UNL     1       3.858   5.439  19.331  0.00  0.00    +0.000 A 
ATOM      8  C   UNL     1       2.592   4.934  19.028  0.00  0.00    +0.000 A 
ATOM      9  C   UNL     1       2.388   4.178  17.866  0.00  0.00    +0.000 A 
ATOM     10  C   UNL     1       3.460   3.890  17.019  0.00  0.00    +0.000 A 
ATOM     11  C   UNL     1       4.722   4.383  17.340  0.00  0.00    +0.000 A 
ENDROOT
TORSDOF 0
ENDMDL
MODEL 3
REMARK VINA RESULT:      -5.3      3.340      3.931
REMARK  Name = 
REMARK  0 active torsions:
REMARK  status: ('A' for Active; 'I' for Inactive)
REMARK                            x       y       z     vdW  Elec       q    Type
REMARK                         _______ _______ _______ _____ _____    ______ ____
ROOT
ATOM      1  O   UNL     1       4.985   2.212  20.193  0.00  0.00    +0.000 OA
ATOM      2  C   UNL     1       4.165   2.896  19.604  0.00  0.00    +0.000 A 
ATOM      3  S   UNL     1       2.467   2.466  19.471  0.00  0.00    +0.000 S 
ATOM      4  S   UNL     1       1.817   4.235  18.761  0.00  0.00    +0.000 S 
ATOM      5  O   UNL     1       1.187   3.785  17.399  0.00  0.00    +0.000 OA
ATOM      6  C   UNL     1       3.439   4.871  18.395  0.00  0.00    +0.000 A 
ATOM      7  C   UNL     1       3.667   6.031  17.660  0.00  0.00    +0.000 A 
ATOM      8  C   UNL     1       4.976   6.494  17.509  0.00  0.00    +0.000 A 
ATOM      9  C   UNL     1       6.046   5.802  18.092  0.00  0.00    +0.000 A 
ATOM     10  C   UNL     1       5.816   4.620  18.799  0.00  0.00    +0.000 A 
ATOM     11  C   UNL     1       4.508   4.158  18.929  0.00  0.00    +0.000 A 
ENDROOT
TORSDOF 0
ENDMDL
MODEL 4
REMARK VINA RESULT:      -5.3      2.124      2.631
REMARK  Name = 
REMARK  0 active torsions:
REMARK  status: ('A' for Active; 'I' for Inactive)
REMARK                            x       y       z     vdW  Elec       q    Type
REMARK                         _______ _______ _______ _____ _____    ______ ____
ROOT
ATOM      1  O   UNL     1       3.350   7.660  17.733  0.00  0.00    +0.000 OA
ATOM      2  C   UNL     1       3.984   6.632  17.569  0.00  0.00    +0.000 A 
ATOM      3  S   UNL     1       5.685   6.606  17.132  0.00  0.00    +0.000 S 
ATOM      4  S   UNL     1       5.999   4.645  17.467  0.00  0.00    +0.000 S 
ATOM      5  O   UNL     1       6.476   4.184  16.048  0.00  0.00    +0.000 OA
ATOM      6  C   UNL     1       4.274   4.222  17.595  0.00  0.00    +0.000 A 
ATOM      7  C   UNL     1       3.799   2.914  17.623  0.00  0.00    +0.000 A 
ATOM      8  C   UNL     1       2.434   2.691  17.820  0.00  0.00    +0.000 A 
ATOM      9  C   UNL     1       1.555   3.769  17.989  0.00  0.00    +0.000 A 
ATOM     10  C   UNL     1       2.031   5.080  17.924  0.00  0.00    +0.000 A 
ATOM     11  C   UNL     1       3.391   5.291  17.710  0.00  0.00    +0.000 A 
ENDROOT
TORSDOF 0
ENDMDL
MODEL 5
REMARK VINA RESULT:      -5.3      2.645      3.258
REMARK  Name = 
REMARK  0 active torsions:
REMARK  status: ('A' for Active; 'I' for Inactive)
REMARK                            x       y       z     vdW  Elec       q    Type
REMARK                         _______ _______ _______ _____ _____    ______ ____
ROOT
ATOM      1  O   UNL     1       6.525   5.168  19.850  0.00  0.00    +0.000 OA
ATOM      2  C   UNL     1       5.659   4.858  19.049  0.00  0.00    +0.000 A 
ATOM      3  S   UNL     1       4.003   4.501  19.510  0.00  0.00    +0.000 S 
ATOM      4  S   UNL     1       3.220   4.507  17.654  0.00  0.00    +0.000 S 
ATOM      5  O   UNL     1       2.642   3.053  17.580  0.00  0.00    +0.000 OA
ATOM      6  C   UNL     1       4.790   4.482  16.814  0.00  0.00    +0.000 A 
ATOM      7  C   UNL     1       4.932   4.264  15.447  0.00  0.00    +0.000 A 
ATOM      8  C   UNL     1       6.202   4.357  14.872  0.00  0.00    +0.000 A 
ATOM      9  C   UNL     1       7.317   4.669  15.660  0.00  0.00    +0.000 A 
ATOM     10  C   UNL     1       7.175   4.852  17.037  0.00  0.00    +0.000 A 
ATOM     11  C   UNL     1       5.907   4.740  17.603  0.00  0.00    +0.000 A 
ENDROOT
TORSDOF 0
ENDMDL
MODEL 6
REMARK VINA RESULT:      -5.2      2.547      2.733
REMARK  Name = 
REMARK  0 active torsions:
REMARK  status: ('A' for Active; 'I' for Inactive)
REMARK                            x       y       z     vdW  Elec       q    Type
REMARK                         _______ _______ _______ _____ _____    ______ ____
ROOT
ATOM      1  O   UNL     1       5.287   3.452  19.480  0.00  0.00    +0.000 OA
ATOM      2  C   UNL     1       5.277   4.395  18.707  0.00  0.00    +0.000 A 
ATOM      3  S   UNL     1       6.504   4.647  17.476  0.00  0.00    +0.000 S 
ATOM      4  S   UNL     1       5.542   6.092  16.455  0.00  0.00    +0.000 S 
ATOM      5  O   UNL     1       6.582   7.259  16.559  0.00  0.00    +0.000 OA
ATOM      6  C   UNL     1       4.311   6.385  17.708  0.00  0.00    +0.000 A 
ATOM      7  C   UNL     1       3.428   7.462  17.688  0.00  0.00    +0.000 A 
ATOM      8  C   UNL     1       2.439   7.548  18.670  0.00  0.00    +0.000 A 
ATOM      9  C   UNL     1       2.334   6.562  19.661  0.00  0.00    +0.000 A 
ATOM     10  C   UNL     1       3.243   5.504  19.698  0.00  0.00    +0.000 A 
ATOM     11  C   UNL     1       4.237   5.437  18.724  0.00  0.00    +0.000 A 
ENDROOT
TORSDOF 0
ENDMDL
MODEL 7
REMARK VINA RESULT:      -5.2      1.560      1.568
REMARK  Name = 
REMARK  0 active torsions:
REMARK  status: ('A' for Active; 'I' for Inactive)
REMARK                            x       y       z     vdW  Elec       q    Type
REMARK                         _______ _______ _______ _____ _____    ______ ____
ROOT
ATOM      1  O   UNL     1       6.684   5.360  19.859  0.00  0.00    +0.000 OA
ATOM      2  C   UNL     1       6.137   5.052  18.814  0.00  0.00    +0.000 A 
ATOM      3  S   UNL     1       7.003   4.812  17.305  0.00  0.00    +0.000 S 
ATOM      4  S   UNL     1       5.489   3.970  16.278  0.00  0.00    +0.000 S 
ATOM      5  O   UNL     1       5.355   4.977  15.086  0.00  0.00    +0.000 OA
ATOM      6  C   UNL     1       4.230   4.401  17.461  0.00  0.00    +0.000 A 
ATOM      7  C   UNL     1       2.865   4.268  17.221  0.00  0.00    +0.000 A 
ATOM      8  C   UNL     1       1.963   4.546  18.250  0.00  0.00    +0.000 A 
ATOM      9  C   UNL     1       2.426   4.951  19.509  0.00  0.00    +0.000 A 
ATOM     10  C   UNL     1       3.793   5.117  19.736  0.00  0.00    +0.000 A 
ATOM     11  C   UNL     1       4.683   4.854  18.696  0.00  0.00    +0.000 A 
ENDROOT
TORSDOF 0
ENDMDL
MODEL 8
REMARK VINA RESULT:      -5.2      3.844      4.453
REMARK  Name = 
REMARK  0 active torsions:
REMARK  status: ('A' for Active; 'I' for Inactive)
REMARK                            x       y       z     vdW  Elec       q    Type
REMARK                         _______ _______ _______ _____ _____    ______ ____
ROOT
ATOM      1  O   UNL     1       1.421   5.142  20.387  0.00  0.00    +0.000 OA
ATOM      2  C   UNL     1       1.967   4.349  19.640  0.00  0.00    +0.000 A 
ATOM      3  S   UNL     1       1.696   2.615  19.707  0.00  0.00    +0.000 S 
ATOM      4  S   UNL     1       2.601   2.152  17.969  0.00  0.00    +0.000 S 
ATOM      5  O   UNL     1       3.709   1.167  18.474  0.00  0.00    +0.000 OA
ATOM      6  C   UNL     1       3.379   3.741  17.761  0.00  0.00    +0.000 A 
ATOM      7  C   UNL     1       4.355   4.005  16.804  0.00  0.00    +0.000 A 
ATOM      8  C   UNL     1       4.833   5.310  16.664  0.00  0.00    +0.000 A 
ATOM      9  C   UNL     1       4.336   6.340  17.474  0.00  0.00    +0.000 A 
ATOM     10  C   UNL     1       3.384   6.063  18.456  0.00  0.00    +0.000 A 
ATOM     11  C   UNL     1       2.926   4.755  18.600  0.00  0.00    +0.000 A 
ENDROOT
TORSDOF 0
ENDMDL
MODEL 9
REMARK VINA RESULT:      -5.2      2.900      3.402
REMARK  Name = 
REMARK  0 active torsions:
REMARK  status: ('A' for Active; 'I' for Inactive)
REMARK                            x       y       z     vdW  Elec       q    Type
REMARK                         _______ _______ _______ _____ _____    ______ ____
ROOT
ATOM      1  O   UNL     1       5.802   3.794  19.028  0.00  0.00    +0.000 OA
ATOM      2  C   UNL     1       4.745   4.401  19.014  0.00  0.00    +0.000 A 
ATOM      3  S   UNL     1       4.511   5.914  18.154  0.00  0.00    +0.000 S 
ATOM      4  S   UNL     1       2.504   5.982  18.306  0.00  0.00    +0.000 S 
ATOM      5  O   UNL     1       2.318   7.339  19.066  0.00  0.00    +0.000 OA
ATOM      6  C   UNL     1       2.389   4.688  19.524  0.00  0.00    +0.000 A 
ATOM      7  C   UNL     1       1.223   4.384  20.222  0.00  0.00    +0.000 A 
ATOM      8  C   UNL     1       1.216   3.289  21.089  0.00  0.00    +0.000 A 
ATOM      9  C   UNL     1       2.365   2.504  21.250  0.00  0.00    +0.000 A 
ATOM     10  C   UNL     1       3.541   2.832  20.575  0.00  0.00    +0.000 A 
ATOM     11  C   UNL     1       3.543   3.938  19.727  0.00  0.00    +0.000 A 
ENDROOT
TORSDOF 0
ENDMDL
