MODEL 1
REMARK VINA RESULT:      -7.6      0.000      0.000
REMARK  Name = 
REMARK  14 active torsions:
REMARK  status: ('A' for Active; 'I' for Inactive)
REMARK    1  A    between atoms: C_1  and  C_2
REMARK    2  A    between atoms: C_2  and  C_3
REMARK    3  A    between atoms: C_2  and  C_4
REMARK    4  A    between atoms: C_2  and  C_5
REMARK    5  A    between atoms: C_7  and  C_8
REMARK    6  A    between atoms: N_9  and  O_10
REMARK    7  A    between atoms: O_10  and  C_11
REMARK    8  A    between atoms: C_11  and  C_12
REMARK    9  A    between atoms: C_12  and  O_14
REMARK   10  A    between atoms: C_16  and  C_17
REMARK   11  A    between atoms: C_17  and  C_18
REMARK   12  A    between atoms: C_17  and  C_19
REMARK   13  A    between atoms: C_17  and  C_20
REMARK   14  A    between atoms: C_21  and  O_22
REMARK                            x       y       z     vdW  Elec       q    Type
REMARK                         _______ _______ _______ _____ _____    ______ ____
ROOT
ATOM      1  C   UNL     1       3.277   4.241  18.969  0.00  0.00    +0.000 A 
ATOM      2  C   UNL     1       2.496   5.383  18.702  0.00  0.00    +0.000 A 
ATOM      3  C   UNL     1       3.085   6.577  18.285  0.00  0.00    +0.000 A 
ATOM      4  C   UNL     1       4.463   6.654  18.082  0.00  0.00    +0.000 A 
ATOM      5  C   UNL     1       5.309   5.553  18.308  0.00  0.00    +0.000 A 
ATOM      6  C   UNL     1       4.680   4.365  18.766  0.00  0.00    +0.000 A 
ENDROOT
BRANCH   1   8
ATOM      7  C   UNL     1       1.063   2.949  19.370  0.00  0.00    +0.000 C 
ATOM      8  C   UNL     1       2.614   2.927  19.462  0.00  0.00    +0.000 C 
ATOM      9  C   UNL     1       2.941   2.648  20.948  0.00  0.00    +0.000 C 
ATOM     10  C   UNL     1       3.072   1.727  18.603  0.00  0.00    +0.000 C 
ENDBRANCH   1   8
BRANCH   5  11
ATOM     11  C   UNL     1       6.840   5.708  18.113  0.00  0.00    +0.000 C 
ATOM     12  C   UNL     1       7.461   4.582  17.237  0.00  0.00    +0.000 C 
ATOM     13  C   UNL     1       7.160   7.037  17.397  0.00  0.00    +0.000 C 
ATOM     14  C   UNL     1       7.605   5.645  19.454  0.00  0.00    +0.000 C 
ENDBRANCH   5  11
BRANCH   3  15
ATOM     15  C   UNL     1       2.239   7.777  18.107  0.00  0.00    +0.000 C 
ATOM     16  N   UNL     1       2.645   8.796  17.418  0.00  0.00    +0.000 NA
BRANCH  16  17
ATOM     17  O   UNL     1       1.679   9.812  17.443  0.00  0.00    +0.000 OA
BRANCH  17  18
ATOM     18  C   UNL     1       1.043   9.794  18.724  0.00  0.00    +0.000 C 
BRANCH  18  19
ATOM     19  C   UNL     1      -0.387  10.276  18.604  0.00  0.00    +0.000 C 
ATOM     20  O   UNL     1      -1.062  10.679  19.540  0.00  0.00    +0.000 OA
BRANCH  19  21
ATOM     21  O   UNL     1      -0.871  10.224  17.339  0.00  0.00    +0.000 OA
ATOM     22  H   UNL     1      -1.737  10.677  17.289  0.00  0.00    +0.000 HD
ENDBRANCH  19  21
ENDBRANCH  18  19
ENDBRANCH  17  18
ENDBRANCH  16  17
ENDBRANCH   3  15
BRANCH   6  23
ATOM     23  O   UNL     1       5.457   3.282  19.072  0.00  0.00    +0.000 OA
ATOM     24  H   UNL     1       5.938   3.047  18.265  0.00  0.00    +0.000 HD
ENDBRANCH   6  23
TORSDOF 8
ENDMDL
MODEL 2
REMARK VINA RESULT:      -7.5      1.081      1.608
REMARK  Name = 
REMARK  14 active torsions:
REMARK  status: ('A' for Active; 'I' for Inactive)
REMARK    1  A    between atoms: C_1  and  C_2
REMARK    2  A    between atoms: C_2  and  C_3
REMARK    3  A    between atoms: C_2  and  C_4
REMARK    4  A    between atoms: C_2  and  C_5
REMARK    5  A    between atoms: C_7  and  C_8
REMARK    6  A    between atoms: N_9  and  O_10
REMARK    7  A    between atoms: O_10  and  C_11
REMARK    8  A    between atoms: C_11  and  C_12
REMARK    9  A    between atoms: C_12  and  O_14
REMARK   10  A    between atoms: C_16  and  C_17
REMARK   11  A    between atoms: C_17  and  C_18
REMARK   12  A    between atoms: C_17  and  C_19
REMARK   13  A    between atoms: C_17  and  C_20
REMARK   14  A    between atoms: C_21  and  O_22
REMARK                            x       y       z     vdW  Elec       q    Type
REMARK                         _______ _______ _______ _____ _____    ______ ____
ROOT
ATOM      1  C   UNL     1       3.238   4.293  18.906  0.00  0.00    +0.000 A 
ATOM      2  C   UNL     1       2.453   5.403  18.535  0.00  0.00    +0.000 A 
ATOM      3  C   UNL     1       3.041   6.572  18.052  0.00  0.00    +0.000 A 
ATOM      4  C   UNL     1       4.424   6.653  17.884  0.00  0.00    +0.000 A 
ATOM      5  C   UNL     1       5.275   5.582  18.213  0.00  0.00    +0.000 A 
ATOM      6  C   UNL     1       4.646   4.421  18.735  0.00  0.00    +0.000 A 
ENDROOT
BRANCH   1   8
ATOM      7  C   UNL     1       2.968   2.713  20.945  0.00  0.00    +0.000 C 
ATOM      8  C   UNL     1       2.575   3.009  19.472  0.00  0.00    +0.000 C 
ATOM      9  C   UNL     1       2.988   1.754  18.668  0.00  0.00    +0.000 C 
ATOM     10  C   UNL     1       1.035   3.139  19.462  0.00  0.00    +0.000 C 
ENDBRANCH   1   8
BRANCH   5  11
ATOM     11  C   UNL     1       6.809   5.742  18.052  0.00  0.00    +0.000 C 
ATOM     12  C   UNL     1       7.454   4.618  17.192  0.00  0.00    +0.000 C 
ATOM     13  C   UNL     1       7.140   7.072  17.343  0.00  0.00    +0.000 C 
ATOM     14  C   UNL     1       7.544   5.683  19.410  0.00  0.00    +0.000 C 
ENDBRANCH   5  11
BRANCH   3  15
ATOM     15  C   UNL     1       2.189   7.746  17.763  0.00  0.00    +0.000 C 
ATOM     16  N   UNL     1       2.678   8.944  17.713  0.00  0.00    +0.000 NA
BRANCH  16  17
ATOM     17  O   UNL     1       1.657   9.873  17.470  0.00  0.00    +0.000 OA
BRANCH  17  18
ATOM     18  C   UNL     1       1.393  10.577  18.687  0.00  0.00    +0.000 C 
BRANCH  18  19
ATOM     19  C   UNL     1       1.878  12.007  18.579  0.00  0.00    +0.000 C 
ATOM     20  O   UNL     1       1.610  12.890  19.380  0.00  0.00    +0.000 OA
BRANCH  19  21
ATOM     21  O   UNL     1       2.656  12.234  17.492  0.00  0.00    +0.000 OA
ATOM     22  H   UNL     1       3.598  12.274  17.753  0.00  0.00    +0.000 HD
ENDBRANCH  19  21
ENDBRANCH  18  19
ENDBRANCH  17  18
ENDBRANCH  16  17
ENDBRANCH   3  15
BRANCH   6  23
ATOM     23  O   UNL     1       5.425   3.373  19.141  0.00  0.00    +0.000 OA
ATOM     24  H   UNL     1       6.228   3.397  18.601  0.00  0.00    +0.000 HD
ENDBRANCH   6  23
TORSDOF 8
ENDMDL
MODEL 3
REMARK VINA RESULT:      -7.5      0.128      1.302
REMARK  Name = 
REMARK  14 active torsions:
REMARK  status: ('A' for Active; 'I' for Inactive)
REMARK    1  A    between atoms: C_1  and  C_2
REMARK    2  A    between atoms: C_2  and  C_3
REMARK    3  A    between atoms: C_2  and  C_4
REMARK    4  A    between atoms: C_2  and  C_5
REMARK    5  A    between atoms: C_7  and  C_8
REMARK    6  A    between atoms: N_9  and  O_10
REMARK    7  A    between atoms: O_10  and  C_11
REMARK    8  A    between atoms: C_11  and  C_12
REMARK    9  A    between atoms: C_12  and  O_14
REMARK   10  A    between atoms: C_16  and  C_17
REMARK   11  A    between atoms: C_17  and  C_18
REMARK   12  A    between atoms: C_17  and  C_19
REMARK   13  A    between atoms: C_17  and  C_20
REMARK   14  A    between atoms: C_21  and  O_22
REMARK                            x       y       z     vdW  Elec       q    Type
REMARK                         _______ _______ _______ _____ _____    ______ ____
ROOT
ATOM      1  C   UNL     1       3.250   4.260  18.883  0.00  0.00    +0.000 A 
ATOM      2  C   UNL     1       2.467   5.387  18.566  0.00  0.00    +0.000 A 
ATOM      3  C   UNL     1       3.057   6.573  18.126  0.00  0.00    +0.000 A 
ATOM      4  C   UNL     1       4.438   6.655  17.950  0.00  0.00    +0.000 A 
ATOM      5  C   UNL     1       5.288   5.567  18.226  0.00  0.00    +0.000 A 
ATOM      6  C   UNL     1       4.657   4.389  18.706  0.00  0.00    +0.000 A 
ENDROOT
BRANCH   1   8
ATOM      7  C   UNL     1       3.035   1.688  18.624  0.00  0.00    +0.000 C 
ATOM      8  C   UNL     1       2.586   2.956  19.401  0.00  0.00    +0.000 C 
ATOM      9  C   UNL     1       1.046   3.008  19.263  0.00  0.00    +0.000 C 
ATOM     10  C   UNL     1       2.959   2.702  20.878  0.00  0.00    +0.000 C 
ENDBRANCH   1   8
BRANCH   5  11
ATOM     11  C   UNL     1       6.821   5.727  18.059  0.00  0.00    +0.000 C 
ATOM     12  C   UNL     1       7.593   5.660  19.407  0.00  0.00    +0.000 C 
ATOM     13  C   UNL     1       7.388   4.592  17.180  0.00  0.00    +0.000 C 
ATOM     14  C   UNL     1       7.198   7.094  17.445  0.00  0.00    +0.000 C 
ENDBRANCH   5  11
BRANCH   3  15
ATOM     15  C   UNL     1       2.207   7.761  17.894  0.00  0.00    +0.000 C 
ATOM     16  N   UNL     1       2.720   8.916  17.608  0.00  0.00    +0.000 NA
BRANCH  16  17
ATOM     17  O   UNL     1       1.706   9.876  17.483  0.00  0.00    +0.000 OA
BRANCH  17  18
ATOM     18  C   UNL     1       1.087  10.044  18.762  0.00  0.00    +0.000 C 
BRANCH  18  19
ATOM     19  C   UNL     1      -0.384  10.358  18.593  0.00  0.00    +0.000 C 
ATOM     20  O   UNL     1      -1.103  10.802  19.476  0.00  0.00    +0.000 OA
BRANCH  19  21
ATOM     21  O   UNL     1      -0.853  10.102  17.346  0.00  0.00    +0.000 OA
ATOM     22  H   UNL     1      -1.340  10.877  17.002  0.00  0.00    +0.000 HD
ENDBRANCH  19  21
ENDBRANCH  18  19
ENDBRANCH  17  18
ENDBRANCH  16  17
ENDBRANCH   3  15
BRANCH   6  23
ATOM     23  O   UNL     1       5.434   3.321  19.060  0.00  0.00    +0.000 OA
ATOM     24  H   UNL     1       5.148   3.049  19.945  0.00  0.00    +0.000 HD
ENDBRANCH   6  23
TORSDOF 8
ENDMDL
MODEL 4
REMARK VINA RESULT:      -7.4      0.959      1.735
REMARK  Name = 
REMARK  14 active torsions:
REMARK  status: ('A' for Active; 'I' for Inactive)
REMARK    1  A    between atoms: C_1  and  C_2
REMARK    2  A    between atoms: C_2  and  C_3
REMARK    3  A    between atoms: C_2  and  C_4
REMARK    4  A    between atoms: C_2  and  C_5
REMARK    5  A    between atoms: C_7  and  C_8
REMARK    6  A    between atoms: N_9  and  O_10
REMARK    7  A    between atoms: O_10  and  C_11
REMARK    8  A    between atoms: C_11  and  C_12
REMARK    9  A    between atoms: C_12  and  O_14
REMARK   10  A    between atoms: C_16  and  C_17
REMARK   11  A    between atoms: C_17  and  C_18
REMARK   12  A    between atoms: C_17  and  C_19
REMARK   13  A    between atoms: C_17  and  C_20
REMARK   14  A    between atoms: C_21  and  O_22
REMARK                            x       y       z     vdW  Elec       q    Type
REMARK                         _______ _______ _______ _____ _____    ______ ____
ROOT
ATOM      1  C   UNL     1       3.243   4.387  18.833  0.00  0.00    +0.000 A 
ATOM      2  C   UNL     1       2.488   5.524  18.483  0.00  0.00    +0.000 A 
ATOM      3  C   UNL     1       3.109   6.690  18.033  0.00  0.00    +0.000 A 
ATOM      4  C   UNL     1       4.494   6.741  17.879  0.00  0.00    +0.000 A 
ATOM      5  C   UNL     1       5.317   5.641  18.189  0.00  0.00    +0.000 A 
ATOM      6  C   UNL     1       4.654   4.484  18.677  0.00  0.00    +0.000 A 
ENDROOT
BRANCH   1   8
ATOM      7  C   UNL     1       2.999   1.812  18.633  0.00  0.00    +0.000 C 
ATOM      8  C   UNL     1       2.543   3.105  19.362  0.00  0.00    +0.000 C 
ATOM      9  C   UNL     1       1.010   3.175  19.172  0.00  0.00    +0.000 C 
ATOM     10  C   UNL     1       2.864   2.885  20.857  0.00  0.00    +0.000 C 
ENDBRANCH   1   8
BRANCH   5  11
ATOM     11  C   UNL     1       6.856   5.767  18.045  0.00  0.00    +0.000 C 
ATOM     12  C   UNL     1       7.607   5.657  19.402  0.00  0.00    +0.000 C 
ATOM     13  C   UNL     1       7.407   4.635  17.152  0.00  0.00    +0.000 C 
ATOM     14  C   UNL     1       7.273   7.136  17.461  0.00  0.00    +0.000 C 
ENDBRANCH   5  11
BRANCH   3  15
ATOM     15  C   UNL     1       2.288   7.890  17.766  0.00  0.00    +0.000 C 
ATOM     16  N   UNL     1       1.867   8.651  18.726  0.00  0.00    +0.000 NA
BRANCH  16  17
ATOM     17  O   UNL     1       1.077   9.688  18.210  0.00  0.00    +0.000 OA
BRANCH  17  18
ATOM     18  C   UNL     1       1.131  10.789  19.121  0.00  0.00    +0.000 C 
BRANCH  18  19
ATOM     19  C   UNL     1       0.649  10.359  20.490  0.00  0.00    +0.000 C 
ATOM     20  O   UNL     1       1.192  10.663  21.542  0.00  0.00    +0.000 OA
BRANCH  19  21
ATOM     21  O   UNL     1      -0.465   9.587  20.453  0.00  0.00    +0.000 OA
ATOM     22  H   UNL     1      -0.221   8.639  20.459  0.00  0.00    +0.000 HD
ENDBRANCH  19  21
ENDBRANCH  18  19
ENDBRANCH  17  18
ENDBRANCH  16  17
ENDBRANCH   3  15
BRANCH   6  23
ATOM     23  O   UNL     1       5.404   3.407  19.064  0.00  0.00    +0.000 OA
ATOM     24  H   UNL     1       4.782   2.688  19.251  0.00  0.00    +0.000 HD
ENDBRANCH   6  23
TORSDOF 8
ENDMDL
MODEL 5
REMARK VINA RESULT:      -7.4      0.914      1.439
REMARK  Name = 
REMARK  14 active torsions:
REMARK  status: ('A' for Active; 'I' for Inactive)
REMARK    1  A    between atoms: C_1  and  C_2
REMARK    2  A    between atoms: C_2  and  C_3
REMARK    3  A    between atoms: C_2  and  C_4
REMARK    4  A    between atoms: C_2  and  C_5
REMARK    5  A    between atoms: C_7  and  C_8
REMARK    6  A    between atoms: N_9  and  O_10
REMARK    7  A    between atoms: O_10  and  C_11
REMARK    8  A    between atoms: C_11  and  C_12
REMARK    9  A    between atoms: C_12  and  O_14
REMARK   10  A    between atoms: C_16  and  C_17
REMARK   11  A    between atoms: C_17  and  C_18
REMARK   12  A    between atoms: C_17  and  C_19
REMARK   13  A    between atoms: C_17  and  C_20
REMARK   14  A    between atoms: C_21  and  O_22
REMARK                            x       y       z     vdW  Elec       q    Type
REMARK                         _______ _______ _______ _____ _____    ______ ____
ROOT
ATOM      1  C   UNL     1       3.230   4.356  18.888  0.00  0.00    +0.000 A 
ATOM      2  C   UNL     1       2.475   5.485  18.513  0.00  0.00    +0.000 A 
ATOM      3  C   UNL     1       3.096   6.644  18.047  0.00  0.00    +0.000 A 
ATOM      4  C   UNL     1       4.482   6.696  17.902  0.00  0.00    +0.000 A 
ATOM      5  C   UNL     1       5.305   5.605  18.237  0.00  0.00    +0.000 A 
ATOM      6  C   UNL     1       4.642   4.455  18.742  0.00  0.00    +0.000 A 
ENDROOT
BRANCH   1   8
ATOM      7  C   UNL     1       2.892   2.769  20.912  0.00  0.00    +0.000 C 
ATOM      8  C   UNL     1       2.530   3.083  19.435  0.00  0.00    +0.000 C 
ATOM      9  C   UNL     1       2.930   1.824  18.630  0.00  0.00    +0.000 C 
ATOM     10  C   UNL     1       0.994   3.246  19.400  0.00  0.00    +0.000 C 
ENDBRANCH   1   8
BRANCH   5  11
ATOM     11  C   UNL     1       6.845   5.733  18.102  0.00  0.00    +0.000 C 
ATOM     12  C   UNL     1       7.481   4.593  17.257  0.00  0.00    +0.000 C 
ATOM     13  C   UNL     1       7.215   7.054  17.395  0.00  0.00    +0.000 C 
ATOM     14  C   UNL     1       7.555   5.664  19.473  0.00  0.00    +0.000 C 
ENDBRANCH   5  11
BRANCH   3  15
ATOM     15  C   UNL     1       2.274   7.837  17.752  0.00  0.00    +0.000 C 
ATOM     16  N   UNL     1       2.024   8.729  18.658  0.00  0.00    +0.000 NA
BRANCH  16  17
ATOM     17  O   UNL     1       1.190   9.728  18.135  0.00  0.00    +0.000 OA
BRANCH  17  18
ATOM     18  C   UNL     1       1.238  10.856  19.014  0.00  0.00    +0.000 C 
BRANCH  18  19
ATOM     19  C   UNL     1       0.686  10.483  20.373  0.00  0.00    +0.000 C 
ATOM     20  O   UNL     1       1.115  10.910  21.435  0.00  0.00    +0.000 OA
BRANCH  19  21
ATOM     21  O   UNL     1      -0.353   9.613  20.316  0.00  0.00    +0.000 OA
ATOM     22  H   UNL     1      -0.788   9.547  21.189  0.00  0.00    +0.000 HD
ENDBRANCH  19  21
ENDBRANCH  18  19
ENDBRANCH  17  18
ENDBRANCH  16  17
ENDBRANCH   3  15
BRANCH   6  23
ATOM     23  O   UNL     1       5.392   3.387  19.153  0.00  0.00    +0.000 OA
ATOM     24  H   UNL     1       6.296   3.712  19.275  0.00  0.00    +0.000 HD
ENDBRANCH   6  23
TORSDOF 8
ENDMDL
MODEL 6
REMARK VINA RESULT:      -7.4      0.467      1.388
REMARK  Name = 
REMARK  14 active torsions:
REMARK  status: ('A' for Active; 'I' for Inactive)
REMARK    1  A    between atoms: C_1  and  C_2
REMARK    2  A    between atoms: C_2  and  C_3
REMARK    3  A    between atoms: C_2  and  C_4
REMARK    4  A    between atoms: C_2  and  C_5
REMARK    5  A    between atoms: C_7  and  C_8
REMARK    6  A    between atoms: N_9  and  O_10
REMARK    7  A    between atoms: O_10  and  C_11
REMARK    8  A    between atoms: C_11  and  C_12
REMARK    9  A    between atoms: C_12  and  O_14
REMARK   10  A    between atoms: C_16  and  C_17
REMARK   11  A    between atoms: C_17  and  C_18
REMARK   12  A    between atoms: C_17  and  C_19
REMARK   13  A    between atoms: C_17  and  C_20
REMARK   14  A    between atoms: C_21  and  O_22
REMARK                            x       y       z     vdW  Elec       q    Type
REMARK                         _______ _______ _______ _____ _____    ______ ____
ROOT
ATOM      1  C   UNL     1       3.293   4.263  19.005  0.00  0.00    +0.000 A 
ATOM      2  C   UNL     1       2.520   5.406  18.721  0.00  0.00    +0.000 A 
ATOM      3  C   UNL     1       3.118   6.590  18.287  0.00  0.00    +0.000 A 
ATOM      4  C   UNL     1       4.497   6.654  18.082  0.00  0.00    +0.000 A 
ATOM      5  C   UNL     1       5.335   5.550  18.324  0.00  0.00    +0.000 A 
ATOM      6  C   UNL     1       4.698   4.374  18.799  0.00  0.00    +0.000 A 
ENDROOT
BRANCH   1   8
ATOM      7  C   UNL     1       3.092   1.688  18.763  0.00  0.00    +0.000 C 
ATOM      8  C   UNL     1       2.621   2.961  19.518  0.00  0.00    +0.000 C 
ATOM      9  C   UNL     1       1.085   3.008  19.344  0.00  0.00    +0.000 C 
ATOM     10  C   UNL     1       2.960   2.721  21.006  0.00  0.00    +0.000 C 
ENDBRANCH   1   8
BRANCH   5  11
ATOM     11  C   UNL     1       6.867   5.691  18.126  0.00  0.00    +0.000 C 
ATOM     12  C   UNL     1       7.275   7.025  17.441  0.00  0.00    +0.000 C 
ATOM     13  C   UNL     1       7.590   5.666  19.489  0.00  0.00    +0.000 C 
ATOM     14  C   UNL     1       7.439   4.579  17.218  0.00  0.00    +0.000 C 
ENDBRANCH   5  11
BRANCH   3  15
ATOM     15  C   UNL     1       2.282   7.794  18.091  0.00  0.00    +0.000 C 
ATOM     16  N   UNL     1       2.729   8.836  17.465  0.00  0.00    +0.000 NA
BRANCH  16  17
ATOM     17  O   UNL     1       1.759   9.848  17.457  0.00  0.00    +0.000 OA
BRANCH  17  18
ATOM     18  C   UNL     1       1.041   9.789  18.694  0.00  0.00    +0.000 C 
BRANCH  18  19
ATOM     19  C   UNL     1      -0.273  10.531  18.570  0.00  0.00    +0.000 C 
ATOM     20  O   UNL     1      -1.366  10.053  18.840  0.00  0.00    +0.000 OA
BRANCH  19  21
ATOM     21  O   UNL     1      -0.136  11.804  18.124  0.00  0.00    +0.000 OA
ATOM     22  H   UNL     1       0.474  11.832  17.361  0.00  0.00    +0.000 HD
ENDBRANCH  19  21
ENDBRANCH  18  19
ENDBRANCH  17  18
ENDBRANCH  16  17
ENDBRANCH   3  15
BRANCH   6  23
ATOM     23  O   UNL     1       5.466   3.290  19.121  0.00  0.00    +0.000 OA
ATOM     24  H   UNL     1       6.082   3.156  18.385  0.00  0.00    +0.000 HD
ENDBRANCH   6  23
TORSDOF 8
ENDMDL
MODEL 7
REMARK VINA RESULT:      -7.4      1.067      1.847
REMARK  Name = 
REMARK  14 active torsions:
REMARK  status: ('A' for Active; 'I' for Inactive)
REMARK    1  A    between atoms: C_1  and  C_2
REMARK    2  A    between atoms: C_2  and  C_3
REMARK    3  A    between atoms: C_2  and  C_4
REMARK    4  A    between atoms: C_2  and  C_5
REMARK    5  A    between atoms: C_7  and  C_8
REMARK    6  A    between atoms: N_9  and  O_10
REMARK    7  A    between atoms: O_10  and  C_11
REMARK    8  A    between atoms: C_11  and  C_12
REMARK    9  A    between atoms: C_12  and  O_14
REMARK   10  A    between atoms: C_16  and  C_17
REMARK   11  A    between atoms: C_17  and  C_18
REMARK   12  A    between atoms: C_17  and  C_19
REMARK   13  A    between atoms: C_17  and  C_20
REMARK   14  A    between atoms: C_21  and  O_22
REMARK                            x       y       z     vdW  Elec       q    Type
REMARK                         _______ _______ _______ _____ _____    ______ ____
ROOT
ATOM      1  C   UNL     1       3.322   4.213  18.770  0.00  0.00    +0.000 A 
ATOM      2  C   UNL     1       2.536   5.322  18.400  0.00  0.00    +0.000 A 
ATOM      3  C   UNL     1       3.124   6.510  17.966  0.00  0.00    +0.000 A 
ATOM      4  C   UNL     1       4.511   6.612  17.848  0.00  0.00    +0.000 A 
ATOM      5  C   UNL     1       5.365   5.544  18.180  0.00  0.00    +0.000 A 
ATOM      6  C   UNL     1       4.733   4.363  18.652  0.00  0.00    +0.000 A 
ENDROOT
BRANCH   1   8
ATOM      7  C   UNL     1       3.200   1.629  18.586  0.00  0.00    +0.000 C 
ATOM      8  C   UNL     1       2.657   2.907  19.281  0.00  0.00    +0.000 C 
ATOM      9  C   UNL     1       1.132   2.907  19.025  0.00  0.00    +0.000 C 
ATOM     10  C   UNL     1       2.922   2.714  20.791  0.00  0.00    +0.000 C 
ENDBRANCH   1   8
BRANCH   5  11
ATOM     11  C   UNL     1       6.901   5.727  18.076  0.00  0.00    +0.000 C 
ATOM     12  C   UNL     1       7.614   5.704  19.458  0.00  0.00    +0.000 C 
ATOM     13  C   UNL     1       7.525   4.583  17.249  0.00  0.00    +0.000 C 
ATOM     14  C   UNL     1       7.282   7.086  17.448  0.00  0.00    +0.000 C 
ENDBRANCH   5  11
BRANCH   3  15
ATOM     15  C   UNL     1       2.267   7.680  17.677  0.00  0.00    +0.000 C 
ATOM     16  N   UNL     1       2.656   8.887  17.936  0.00  0.00    +0.000 NA
BRANCH  16  17
ATOM     17  O   UNL     1       1.645   9.802  17.612  0.00  0.00    +0.000 OA
BRANCH  17  18
ATOM     18  C   UNL     1       1.399  10.623  18.757  0.00  0.00    +0.000 C 
BRANCH  18  19
ATOM     19  C   UNL     1       1.692  12.072  18.434  0.00  0.00    +0.000 C 
ATOM     20  O   UNL     1       1.090  13.023  18.911  0.00  0.00    +0.000 OA
BRANCH  19  21
ATOM     21  O   UNL     1       2.705  12.235  17.547  0.00  0.00    +0.000 OA
ATOM     22  H   UNL     1       2.349  12.362  16.645  0.00  0.00    +0.000 HD
ENDBRANCH  19  21
ENDBRANCH  18  19
ENDBRANCH  17  18
ENDBRANCH  16  17
ENDBRANCH   3  15
BRANCH   6  23
ATOM     23  O   UNL     1       5.511   3.314  19.058  0.00  0.00    +0.000 OA
ATOM     24  H   UNL     1       5.056   2.903  19.807  0.00  0.00    +0.000 HD
ENDBRANCH   6  23
TORSDOF 8
ENDMDL
MODEL 8
REMARK VINA RESULT:      -7.4      0.940      4.051
REMARK  Name = 
REMARK  14 active torsions:
REMARK  status: ('A' for Active; 'I' for Inactive)
REMARK    1  A    between atoms: C_1  and  C_2
REMARK    2  A    between atoms: C_2  and  C_3
REMARK    3  A    between atoms: C_2  and  C_4
REMARK    4  A    between atoms: C_2  and  C_5
REMARK    5  A    between atoms: C_7  and  C_8
REMARK    6  A    between atoms: N_9  and  O_10
REMARK    7  A    between atoms: O_10  and  C_11
REMARK    8  A    between atoms: C_11  and  C_12
REMARK    9  A    between atoms: C_12  and  O_14
REMARK   10  A    between atoms: C_16  and  C_17
REMARK   11  A    between atoms: C_17  and  C_18
REMARK   12  A    between atoms: C_17  and  C_19
REMARK   13  A    between atoms: C_17  and  C_20
REMARK   14  A    between atoms: C_21  and  O_22
REMARK                            x       y       z     vdW  Elec       q    Type
REMARK                         _______ _______ _______ _____ _____    ______ ____
ROOT
ATOM      1  C   UNL     1       5.368   5.728  18.215  0.00  0.00    +0.000 A 
ATOM      2  C   UNL     1       4.580   6.869  17.963  0.00  0.00    +0.000 A 
ATOM      3  C   UNL     1       3.195   6.841  18.134  0.00  0.00    +0.000 A 
ATOM      4  C   UNL     1       2.563   5.688  18.602  0.00  0.00    +0.000 A 
ATOM      5  C   UNL     1       3.281   4.514  18.895  0.00  0.00    +0.000 A 
ATOM      6  C   UNL     1       4.683   4.568  18.675  0.00  0.00    +0.000 A 
ENDROOT
BRANCH   1   8
ATOM      7  C   UNL     1       7.418   4.610  17.086  0.00  0.00    +0.000 C 
ATOM      8  C   UNL     1       6.904   5.763  17.991  0.00  0.00    +0.000 C 
ATOM      9  C   UNL     1       7.676   5.625  19.324  0.00  0.00    +0.000 C 
ATOM     10  C   UNL     1       7.324   7.073  17.288  0.00  0.00    +0.000 C 
ENDBRANCH   1   8
BRANCH   5  11
ATOM     11  C   UNL     1       2.523   3.246  19.366  0.00  0.00    +0.000 C 
ATOM     12  C   UNL     1       1.014   3.504  19.640  0.00  0.00    +0.000 C 
ATOM     13  C   UNL     1       2.583   2.149  18.282  0.00  0.00    +0.000 C 
ATOM     14  C   UNL     1       3.086   2.693  20.694  0.00  0.00    +0.000 C 
ENDBRANCH   5  11
BRANCH   3  15
ATOM     15  C   UNL     1       2.396   8.030  17.769  0.00  0.00    +0.000 C 
ATOM     16  N   UNL     1       1.759   8.719  18.661  0.00  0.00    +0.000 NA
BRANCH  16  17
ATOM     17  O   UNL     1       1.047   9.760  18.049  0.00  0.00    +0.000 OA
BRANCH  17  18
ATOM     18  C   UNL     1       1.238  10.948  18.824  0.00  0.00    +0.000 C 
BRANCH  18  19
ATOM     19  C   UNL     1       0.697  10.752  20.224  0.00  0.00    +0.000 C 
ATOM     20  O   UNL     1       1.179  11.252  21.229  0.00  0.00    +0.000 OA
BRANCH  19  21
ATOM     21  O   UNL     1      -0.399   9.953  20.274  0.00  0.00    +0.000 OA
ATOM     22  H   UNL     1      -1.066  10.253  19.624  0.00  0.00    +0.000 HD
ENDBRANCH  19  21
ENDBRANCH  18  19
ENDBRANCH  17  18
ENDBRANCH  16  17
ENDBRANCH   3  15
BRANCH   6  23
ATOM     23  O   UNL     1       5.427   3.438  18.872  0.00  0.00    +0.000 OA
ATOM     24  H   UNL     1       4.854   2.803  19.327  0.00  0.00    +0.000 HD
ENDBRANCH   6  23
TORSDOF 8
ENDMDL
MODEL 9
REMARK VINA RESULT:      -7.4      1.107      1.629
REMARK  Name = 
REMARK  14 active torsions:
REMARK  status: ('A' for Active; 'I' for Inactive)
REMARK    1  A    between atoms: C_1  and  C_2
REMARK    2  A    between atoms: C_2  and  C_3
REMARK    3  A    between atoms: C_2  and  C_4
REMARK    4  A    between atoms: C_2  and  C_5
REMARK    5  A    between atoms: C_7  and  C_8
REMARK    6  A    between atoms: N_9  and  O_10
REMARK    7  A    between atoms: O_10  and  C_11
REMARK    8  A    between atoms: C_11  and  C_12
REMARK    9  A    between atoms: C_12  and  O_14
REMARK   10  A    between atoms: C_16  and  C_17
REMARK   11  A    between atoms: C_17  and  C_18
REMARK   12  A    between atoms: C_17  and  C_19
REMARK   13  A    between atoms: C_17  and  C_20
REMARK   14  A    between atoms: C_21  and  O_22
REMARK                            x       y       z     vdW  Elec       q    Type
REMARK                         _______ _______ _______ _____ _____    ______ ____
ROOT
ATOM      1  C   UNL     1       3.261   4.346  18.819  0.00  0.00    +0.000 A 
ATOM      2  C   UNL     1       2.494   5.487  18.514  0.00  0.00    +0.000 A 
ATOM      3  C   UNL     1       3.100   6.671  18.090  0.00  0.00    +0.000 A 
ATOM      4  C   UNL     1       4.483   6.736  17.917  0.00  0.00    +0.000 A 
ATOM      5  C   UNL     1       5.317   5.633  18.182  0.00  0.00    +0.000 A 
ATOM      6  C   UNL     1       4.670   4.458  18.646  0.00  0.00    +0.000 A 
ENDROOT
BRANCH   1   8
ATOM      7  C   UNL     1       1.030   3.081  19.207  0.00  0.00    +0.000 C 
ATOM      8  C   UNL     1       2.579   3.044  19.319  0.00  0.00    +0.000 C 
ATOM      9  C   UNL     1       2.884   2.780  20.812  0.00  0.00    +0.000 C 
ATOM     10  C   UNL     1       3.036   1.830  18.481  0.00  0.00    +0.000 C 
ENDBRANCH   1   8
BRANCH   5  11
ATOM     11  C   UNL     1       6.853   5.775  18.019  0.00  0.00    +0.000 C 
ATOM     12  C   UNL     1       7.277   7.125  17.376  0.00  0.00    +0.000 C 
ATOM     13  C   UNL     1       7.548   5.716  19.397  0.00  0.00    +0.000 C 
ATOM     14  C   UNL     1       7.442   4.685  17.096  0.00  0.00    +0.000 C 
ENDBRANCH   5  11
BRANCH   3  15
ATOM     15  C   UNL     1       2.267   7.872  17.872  0.00  0.00    +0.000 C 
ATOM     16  N   UNL     1       2.092   8.755  18.804  0.00  0.00    +0.000 NA
BRANCH  16  17
ATOM     17  O   UNL     1       1.229   9.765  18.356  0.00  0.00    +0.000 OA
BRANCH  17  18
ATOM     18  C   UNL     1       0.179   9.915  19.316  0.00  0.00    +0.000 C 
BRANCH  18  19
ATOM     19  C   UNL     1       0.757  10.004  20.713  0.00  0.00    +0.000 C 
ATOM     20  O   UNL     1       1.147  11.037  21.236  0.00  0.00    +0.000 OA
BRANCH  19  21
ATOM     21  O   UNL     1       0.806   8.810  21.354  0.00  0.00    +0.000 OA
ATOM     22  H   UNL     1       1.713   8.446  21.322  0.00  0.00    +0.000 HD
ENDBRANCH  19  21
ENDBRANCH  18  19
ENDBRANCH  17  18
ENDBRANCH  16  17
ENDBRANCH   3  15
BRANCH   6  23
ATOM     23  O   UNL     1       5.432   3.375  18.988  0.00  0.00    +0.000 OA
ATOM     24  H   UNL     1       4.967   2.591  18.660  0.00  0.00    +0.000 HD
ENDBRANCH   6  23
TORSDOF 8
ENDMDL
