MODEL 1
REMARK VINA RESULT:      -7.7      0.000      0.000
REMARK  Name = 
REMARK  12 active torsions:
REMARK  status: ('A' for Active; 'I' for Inactive)
REMARK    1  A    between atoms: C_1  and  C_2
REMARK    2  A    between atoms: C_2  and  C_3
REMARK    3  A    between atoms: C_2  and  O_4
REMARK    4  A    between atoms: O_4  and  C_5
REMARK    5  A    between atoms: C_8  and  C_9
REMARK    6  A    between atoms: C_11  and  C_12
REMARK    7  A    between atoms: C_20  and  N_21
REMARK    8  A    between atoms: N_21  and  C_22
REMARK    9  A    between atoms: N_21  and  C_23
REMARK   10  A    between atoms: C_23  and  C_24
REMARK   11  A    between atoms: C_24  and  O_25
REMARK   12  A    between atoms: C_29  and  C_30
REMARK                            x       y       z     vdW  Elec       q    Type
REMARK                         _______ _______ _______ _____ _____    ______ ____
ROOT
ATOM      1  C   UNL     1       8.497   8.960  18.021  0.00  0.00    +0.000 A 
ATOM      2  N   UNL     1       7.680   8.408  17.155  0.00  0.00    +0.000 NA
ATOM      3  C   UNL     1       7.512   7.145  17.654  0.00  0.00    +0.000 A 
ATOM      4  N   UNL     1       8.166   6.926  18.809  0.00  0.00    +0.000 NA
ATOM      5  O   UNL     1       8.835   8.135  19.048  0.00  0.00    +0.000 OA
ENDROOT
BRANCH   3   6
ATOM      6  C   UNL     1       6.671   6.185  16.950  0.00  0.00    +0.000 A 
ATOM      7  C   UNL     1       7.148   5.591  15.770  0.00  0.00    +0.000 A 
ATOM      8  C   UNL     1       6.358   4.695  15.046  0.00  0.00    +0.000 A 
ATOM      9  C   UNL     1       5.080   4.353  15.497  0.00  0.00    +0.000 A 
ATOM     10  C   UNL     1       4.610   4.865  16.701  0.00  0.00    +0.000 A 
ATOM     11  C   UNL     1       5.408   5.799  17.399  0.00  0.00    +0.000 A 
ATOM     12  C   UNL     1       4.681   6.325  18.597  0.00  0.00    +0.000 C 
ATOM     13  C   UNL     1       3.614   5.258  18.785  0.00  0.00    +0.000 C 
ATOM     14  C   UNL     1       3.252   4.705  17.377  0.00  0.00    +0.000 C 
BRANCH  14  15
ATOM     15  N   UNL     1       2.637   3.345  17.472  0.00  0.00    +0.000 NA
ATOM     16  C   UNL     1       1.595   3.303  18.505  0.00  0.00    +0.000 C 
BRANCH  15  17
ATOM     17  C   UNL     1       3.686   2.332  17.795  0.00  0.00    +0.000 C 
BRANCH  17  18
ATOM     18  C   UNL     1       3.747   1.896  19.272  0.00  0.00    +0.000 C 
BRANCH  18  19
ATOM     19  O   UNL     1       5.037   2.149  19.819  0.00  0.00    +0.000 OA
ATOM     20  H   UNL     1       5.657   2.096  19.065  0.00  0.00    +0.000 HD
ENDBRANCH  18  19
ENDBRANCH  17  18
ENDBRANCH  15  17
ENDBRANCH  14  15
ENDBRANCH   3   6
BRANCH   1  24
ATOM     21  C   UNL     1       9.635  13.079  17.907  0.00  0.00    +0.000 A 
ATOM     22  C   UNL     1      10.629  12.089  18.004  0.00  0.00    +0.000 A 
ATOM     23  C   UNL     1      10.301  10.723  18.064  0.00  0.00    +0.000 A 
ATOM     24  C   UNL     1       8.964  10.331  18.021  0.00  0.00    +0.000 A 
ATOM     25  C   UNL     1       7.982  11.321  17.899  0.00  0.00    +0.000 A 
ATOM     26  C   UNL     1       8.296  12.680  17.818  0.00  0.00    +0.000 A 
BRANCH  26  27
ATOM     27  C   UNL     1       7.195  13.545  17.575  0.00  0.00    +0.000 C 
ATOM     28  N   UNL     1       6.273  14.235  17.432  0.00  0.00    +0.000 NA
ENDBRANCH  26  27
BRANCH  21  29
ATOM     29  O   UNL     1      10.115  14.358  17.832  0.00  0.00    +0.000 OA
BRANCH  29  31
ATOM     30  C   UNL     1      12.110  15.547  17.227  0.00  0.00    +0.000 C 
ATOM     31  C   UNL     1      11.469  14.610  18.245  0.00  0.00    +0.000 C 
ATOM     32  C   UNL     1      11.449  15.277  19.619  0.00  0.00    +0.000 C 
ENDBRANCH  29  31
ENDBRANCH  21  29
ENDBRANCH   1  24
TORSDOF 9
ENDMDL
MODEL 2
REMARK VINA RESULT:      -7.5      1.483      1.679
REMARK  Name = 
REMARK  12 active torsions:
REMARK  status: ('A' for Active; 'I' for Inactive)
REMARK    1  A    between atoms: C_1  and  C_2
REMARK    2  A    between atoms: C_2  and  C_3
REMARK    3  A    between atoms: C_2  and  O_4
REMARK    4  A    between atoms: O_4  and  C_5
REMARK    5  A    between atoms: C_8  and  C_9
REMARK    6  A    between atoms: C_11  and  C_12
REMARK    7  A    between atoms: C_20  and  N_21
REMARK    8  A    between atoms: N_21  and  C_22
REMARK    9  A    between atoms: N_21  and  C_23
REMARK   10  A    between atoms: C_23  and  C_24
REMARK   11  A    between atoms: C_24  and  O_25
REMARK   12  A    between atoms: C_29  and  C_30
REMARK                            x       y       z     vdW  Elec       q    Type
REMARK                         _______ _______ _______ _____ _____    ______ ____
ROOT
ATOM      1  C   UNL     1       8.246   8.833  18.184  0.00  0.00    +0.000 A 
ATOM      2  N   UNL     1       7.394   8.275  17.357  0.00  0.00    +0.000 NA
ATOM      3  C   UNL     1       7.433   6.955  17.719  0.00  0.00    +0.000 A 
ATOM      4  N   UNL     1       8.249   6.703  18.758  0.00  0.00    +0.000 NA
ATOM      5  O   UNL     1       8.803   7.955  19.061  0.00  0.00    +0.000 OA
ENDROOT
BRANCH   3   6
ATOM      6  C   UNL     1       6.624   5.975  17.007  0.00  0.00    +0.000 A 
ATOM      7  C   UNL     1       7.148   5.355  15.862  0.00  0.00    +0.000 A 
ATOM      8  C   UNL     1       6.389   4.437  15.131  0.00  0.00    +0.000 A 
ATOM      9  C   UNL     1       5.095   4.102  15.540  0.00  0.00    +0.000 A 
ATOM     10  C   UNL     1       4.577   4.642  16.711  0.00  0.00    +0.000 A 
ATOM     11  C   UNL     1       5.345   5.596  17.417  0.00  0.00    +0.000 A 
ATOM     12  C   UNL     1       4.570   6.148  18.572  0.00  0.00    +0.000 C 
ATOM     13  C   UNL     1       3.499   5.082  18.744  0.00  0.00    +0.000 C 
ATOM     14  C   UNL     1       3.195   4.494  17.338  0.00  0.00    +0.000 C 
BRANCH  14  15
ATOM     15  N   UNL     1       2.580   3.134  17.442  0.00  0.00    +0.000 NA
ATOM     16  C   UNL     1       1.437   3.136  18.364  0.00  0.00    +0.000 C 
BRANCH  15  17
ATOM     17  C   UNL     1       3.596   2.151  17.926  0.00  0.00    +0.000 C 
BRANCH  17  18
ATOM     18  C   UNL     1       3.679   1.991  19.456  0.00  0.00    +0.000 C 
BRANCH  18  19
ATOM     19  O   UNL     1       5.027   1.792  19.869  0.00  0.00    +0.000 OA
ATOM     20  H   UNL     1       5.054   2.053  20.811  0.00  0.00    +0.000 HD
ENDBRANCH  18  19
ENDBRANCH  17  18
ENDBRANCH  15  17
ENDBRANCH  14  15
ENDBRANCH   3   6
BRANCH   1  24
ATOM     21  C   UNL     1       9.119  12.976  18.776  0.00  0.00    +0.000 A 
ATOM     22  C   UNL     1       8.708  12.529  17.507  0.00  0.00    +0.000 A 
ATOM     23  C   UNL     1       8.429  11.174  17.260  0.00  0.00    +0.000 A 
ATOM     24  C   UNL     1       8.553  10.244  18.291  0.00  0.00    +0.000 A 
ATOM     25  C   UNL     1       8.938  10.700  19.557  0.00  0.00    +0.000 A 
ATOM     26  C   UNL     1       9.198  12.047  19.821  0.00  0.00    +0.000 A 
BRANCH  26  27
ATOM     27  C   UNL     1       9.458  12.362  21.181  0.00  0.00    +0.000 C 
ATOM     28  N   UNL     1       9.728  12.595  22.286  0.00  0.00    +0.000 NA
ENDBRANCH  26  27
BRANCH  21  29
ATOM     29  O   UNL     1       9.327  14.325  18.861  0.00  0.00    +0.000 OA
BRANCH  29  31
ATOM     30  C   UNL     1      10.288  16.421  18.195  0.00  0.00    +0.000 C 
ATOM     31  C   UNL     1      10.411  14.904  18.114  0.00  0.00    +0.000 C 
ATOM     32  C   UNL     1      11.733  14.459  18.739  0.00  0.00    +0.000 C 
ENDBRANCH  29  31
ENDBRANCH  21  29
ENDBRANCH   1  24
TORSDOF 9
ENDMDL
MODEL 3
REMARK VINA RESULT:      -7.5      7.039     10.487
REMARK  Name = 
REMARK  12 active torsions:
REMARK  status: ('A' for Active; 'I' for Inactive)
REMARK    1  A    between atoms: C_1  and  C_2
REMARK    2  A    between atoms: C_2  and  C_3
REMARK    3  A    between atoms: C_2  and  O_4
REMARK    4  A    between atoms: O_4  and  C_5
REMARK    5  A    between atoms: C_8  and  C_9
REMARK    6  A    between atoms: C_11  and  C_12
REMARK    7  A    between atoms: C_20  and  N_21
REMARK    8  A    between atoms: N_21  and  C_22
REMARK    9  A    between atoms: N_21  and  C_23
REMARK   10  A    between atoms: C_23  and  C_24
REMARK   11  A    between atoms: C_24  and  O_25
REMARK   12  A    between atoms: C_29  and  C_30
REMARK                            x       y       z     vdW  Elec       q    Type
REMARK                         _______ _______ _______ _____ _____    ______ ____
ROOT
ATOM      1  C   UNL     1       1.995   7.875  19.121  0.00  0.00    +0.000 A 
ATOM      2  N   UNL     1       1.523   9.044  18.758  0.00  0.00    +0.000 NA
ATOM      3  C   UNL     1       0.944   9.512  19.906  0.00  0.00    +0.000 A 
ATOM      4  N   UNL     1       1.081   8.685  20.958  0.00  0.00    +0.000 NA
ATOM      5  O   UNL     1       1.772   7.584  20.431  0.00  0.00    +0.000 OA
ENDROOT
BRANCH   3   6
ATOM      6  C   UNL     1       0.272  10.805  19.914  0.00  0.00    +0.000 A 
ATOM      7  C   UNL     1       0.225  11.562  18.732  0.00  0.00    +0.000 A 
ATOM      8  C   UNL     1      -0.377  12.822  18.710  0.00  0.00    +0.000 A 
ATOM      9  C   UNL     1      -0.967  13.347  19.862  0.00  0.00    +0.000 A 
ATOM     10  C   UNL     1      -1.003  12.590  21.028  0.00  0.00    +0.000 A 
ATOM     11  C   UNL     1      -0.356  11.333  21.043  0.00  0.00    +0.000 A 
ATOM     12  C   UNL     1      -0.398  10.733  22.412  0.00  0.00    +0.000 C 
ATOM     13  C   UNL     1      -1.534  11.523  23.045  0.00  0.00    +0.000 C 
ATOM     14  C   UNL     1      -1.520  12.946  22.418  0.00  0.00    +0.000 C 
BRANCH  14  15
ATOM     15  N   UNL     1      -2.854  13.610  22.556  0.00  0.00    +0.000 NA
ATOM     16  C   UNL     1      -2.765  14.814  23.391  0.00  0.00    +0.000 C 
BRANCH  15  17
ATOM     17  C   UNL     1      -3.834  12.663  23.168  0.00  0.00    +0.000 C 
BRANCH  17  18
ATOM     18  C   UNL     1      -4.220  12.968  24.628  0.00  0.00    +0.000 C 
BRANCH  18  19
ATOM     19  O   UNL     1      -5.024  11.923  25.166  0.00  0.00    +0.000 OA
ATOM     20  H   UNL     1      -5.937  12.121  24.881  0.00  0.00    +0.000 HD
ENDBRANCH  18  19
ENDBRANCH  17  18
ENDBRANCH  15  17
ENDBRANCH  14  15
ENDBRANCH   3   6
BRANCH   1  24
ATOM     21  C   UNL     1       4.180   4.973  16.868  0.00  0.00    +0.000 A 
ATOM     22  C   UNL     1       4.607   6.313  16.869  0.00  0.00    +0.000 A 
ATOM     23  C   UNL     1       3.909   7.305  17.579  0.00  0.00    +0.000 A 
ATOM     24  C   UNL     1       2.771   6.962  18.307  0.00  0.00    +0.000 A 
ATOM     25  C   UNL     1       2.368   5.622  18.322  0.00  0.00    +0.000 A 
ATOM     26  C   UNL     1       3.064   4.623  17.638  0.00  0.00    +0.000 A 
BRANCH  26  27
ATOM     27  C   UNL     1       2.597   3.299  17.853  0.00  0.00    +0.000 C 
ATOM     28  N   UNL     1       2.266   2.196  17.998  0.00  0.00    +0.000 NA
ENDBRANCH  26  27
BRANCH  21  29
ATOM     29  O   UNL     1       4.980   4.124  16.152  0.00  0.00    +0.000 OA
BRANCH  29  31
ATOM     30  C   UNL     1       7.357   4.451  16.116  0.00  0.00    +0.000 C 
ATOM     31  C   UNL     1       6.049   4.683  15.368  0.00  0.00    +0.000 C 
ATOM     32  C   UNL     1       6.093   3.972  14.017  0.00  0.00    +0.000 C 
ENDBRANCH  29  31
ENDBRANCH  21  29
ENDBRANCH   1  24
TORSDOF 9
ENDMDL
MODEL 4
REMARK VINA RESULT:      -7.5      8.196     11.666
REMARK  Name = 
REMARK  12 active torsions:
REMARK  status: ('A' for Active; 'I' for Inactive)
REMARK    1  A    between atoms: C_1  and  C_2
REMARK    2  A    between atoms: C_2  and  C_3
REMARK    3  A    between atoms: C_2  and  O_4
REMARK    4  A    between atoms: O_4  and  C_5
REMARK    5  A    between atoms: C_8  and  C_9
REMARK    6  A    between atoms: C_11  and  C_12
REMARK    7  A    between atoms: C_20  and  N_21
REMARK    8  A    between atoms: N_21  and  C_22
REMARK    9  A    between atoms: N_21  and  C_23
REMARK   10  A    between atoms: C_23  and  C_24
REMARK   11  A    between atoms: C_24  and  O_25
REMARK   12  A    between atoms: C_29  and  C_30
REMARK                            x       y       z     vdW  Elec       q    Type
REMARK                         _______ _______ _______ _____ _____    ______ ____
ROOT
ATOM      1  C   UNL     1       1.176   8.621  20.884  0.00  0.00    +0.000 A 
ATOM      2  N   UNL     1       0.495   9.571  20.288  0.00  0.00    +0.000 NA
ATOM      3  C   UNL     1       0.211  10.434  21.312  0.00  0.00    +0.000 A 
ATOM      4  N   UNL     1       0.726  10.058  22.496  0.00  0.00    +0.000 NA
ATOM      5  O   UNL     1       1.361   8.840  22.214  0.00  0.00    +0.000 OA
ENDROOT
BRANCH   3   6
ATOM      6  C   UNL     1      -0.571  11.637  21.060  0.00  0.00    +0.000 A 
ATOM      7  C   UNL     1      -0.368  12.351  19.869  0.00  0.00    +0.000 A 
ATOM      8  C   UNL     1      -1.071  13.530  19.608  0.00  0.00    +0.000 A 
ATOM      9  C   UNL     1      -2.012  14.011  20.523  0.00  0.00    +0.000 A 
ATOM     10  C   UNL     1      -2.290  13.286  21.676  0.00  0.00    +0.000 A 
ATOM     11  C   UNL     1      -1.542  12.116  21.940  0.00  0.00    +0.000 A 
ATOM     12  C   UNL     1      -1.900  11.551  23.279  0.00  0.00    +0.000 C 
ATOM     13  C   UNL     1      -3.245  12.216  23.529  0.00  0.00    +0.000 C 
ATOM     14  C   UNL     1      -3.209  13.614  22.848  0.00  0.00    +0.000 C 
BRANCH  14  15
ATOM     15  N   UNL     1      -4.592  14.118  22.577  0.00  0.00    +0.000 NA
ATOM     16  C   UNL     1      -5.109  14.891  23.713  0.00  0.00    +0.000 C 
BRANCH  15  17
ATOM     17  C   UNL     1      -5.510  12.970  22.309  0.00  0.00    +0.000 C 
BRANCH  17  18
ATOM     18  C   UNL     1      -6.832  12.987  23.100  0.00  0.00    +0.000 C 
BRANCH  18  19
ATOM     19  O   UNL     1      -6.949  11.822  23.911  0.00  0.00    +0.000 OA
ATOM     20  H   UNL     1      -6.387  11.147  23.483  0.00  0.00    +0.000 HD
ENDBRANCH  18  19
ENDBRANCH  17  18
ENDBRANCH  15  17
ENDBRANCH  14  15
ENDBRANCH   3   6
BRANCH   1  24
ATOM     21  C   UNL     1       2.983   5.095  19.277  0.00  0.00    +0.000 A 
ATOM     22  C   UNL     1       3.127   6.319  18.598  0.00  0.00    +0.000 A 
ATOM     23  C   UNL     1       2.534   7.499  19.078  0.00  0.00    +0.000 A 
ATOM     24  C   UNL     1       1.791   7.470  20.257  0.00  0.00    +0.000 A 
ATOM     25  C   UNL     1       1.674   6.254  20.940  0.00  0.00    +0.000 A 
ATOM     26  C   UNL     1       2.275   5.078  20.485  0.00  0.00    +0.000 A 
BRANCH  26  27
ATOM     27  C   UNL     1       2.163   3.960  21.355  0.00  0.00    +0.000 C 
ATOM     28  N   UNL     1       2.068   3.087  22.113  0.00  0.00    +0.000 NA
ENDBRANCH  26  27
BRANCH  21  29
ATOM     29  O   UNL     1       3.640   4.045  18.698  0.00  0.00    +0.000 OA
BRANCH  29  31
ATOM     30  C   UNL     1       4.543   3.654  16.509  0.00  0.00    +0.000 C 
ATOM     31  C   UNL     1       3.278   3.661  17.359  0.00  0.00    +0.000 C 
ATOM     32  C   UNL     1       2.673   2.259  17.396  0.00  0.00    +0.000 C 
ENDBRANCH  29  31
ENDBRANCH  21  29
ENDBRANCH   1  24
TORSDOF 9
ENDMDL
MODEL 5
REMARK VINA RESULT:      -7.5      4.976      9.358
REMARK  Name = 
REMARK  12 active torsions:
REMARK  status: ('A' for Active; 'I' for Inactive)
REMARK    1  A    between atoms: C_1  and  C_2
REMARK    2  A    between atoms: C_2  and  C_3
REMARK    3  A    between atoms: C_2  and  O_4
REMARK    4  A    between atoms: O_4  and  C_5
REMARK    5  A    between atoms: C_8  and  C_9
REMARK    6  A    between atoms: C_11  and  C_12
REMARK    7  A    between atoms: C_20  and  N_21
REMARK    8  A    between atoms: N_21  and  C_22
REMARK    9  A    between atoms: N_21  and  C_23
REMARK   10  A    between atoms: C_23  and  C_24
REMARK   11  A    between atoms: C_24  and  O_25
REMARK   12  A    between atoms: C_29  and  C_30
REMARK                            x       y       z     vdW  Elec       q    Type
REMARK                         _______ _______ _______ _____ _____    ______ ____
ROOT
ATOM      1  C   UNL     1       2.722   6.033  19.231  0.00  0.00    +0.000 A 
ATOM      2  N   UNL     1       2.433   7.304  19.380  0.00  0.00    +0.000 NA
ATOM      3  C   UNL     1       1.590   7.304  20.459  0.00  0.00    +0.000 A 
ATOM      4  N   UNL     1       1.390   6.084  20.989  0.00  0.00    +0.000 NA
ATOM      5  O   UNL     1       2.135   5.232  20.162  0.00  0.00    +0.000 OA
ENDROOT
BRANCH   3   6
ATOM      6  C   UNL     1       1.015   8.553  20.940  0.00  0.00    +0.000 A 
ATOM      7  C   UNL     1       0.593   8.644  22.276  0.00  0.00    +0.000 A 
ATOM      8  C   UNL     1       0.002   9.813  22.765  0.00  0.00    +0.000 A 
ATOM      9  C   UNL     1      -0.160  10.925  21.935  0.00  0.00    +0.000 A 
ATOM     10  C   UNL     1       0.316  10.891  20.630  0.00  0.00    +0.000 A 
ATOM     11  C   UNL     1       0.877   9.689  20.142  0.00  0.00    +0.000 A 
ATOM     12  C   UNL     1       1.213   9.814  18.689  0.00  0.00    +0.000 C 
ATOM     13  C   UNL     1       1.247  11.325  18.524  0.00  0.00    +0.000 C 
ATOM     14  C   UNL     1       0.212  11.928  19.516  0.00  0.00    +0.000 C 
BRANCH  14  15
ATOM     15  N   UNL     1       0.522  13.360  19.816  0.00  0.00    +0.000 NA
ATOM     16  C   UNL     1       0.077  14.241  18.728  0.00  0.00    +0.000 C 
BRANCH  15  17
ATOM     17  C   UNL     1       1.992  13.533  20.015  0.00  0.00    +0.000 C 
BRANCH  17  18
ATOM     18  C   UNL     1       2.393  14.561  21.091  0.00  0.00    +0.000 C 
BRANCH  18  19
ATOM     19  O   UNL     1       1.537  14.464  22.224  0.00  0.00    +0.000 OA
ATOM     20  H   UNL     1       1.805  13.647  22.687  0.00  0.00    +0.000 HD
ENDBRANCH  18  19
ENDBRANCH  17  18
ENDBRANCH  15  17
ENDBRANCH  14  15
ENDBRANCH   3   6
BRANCH   1  24
ATOM     21  C   UNL     1       5.557   4.581  16.380  0.00  0.00    +0.000 A 
ATOM     22  C   UNL     1       4.323   3.921  16.528  0.00  0.00    +0.000 A 
ATOM     23  C   UNL     1       3.369   4.350  17.467  0.00  0.00    +0.000 A 
ATOM     24  C   UNL     1       3.637   5.459  18.267  0.00  0.00    +0.000 A 
ATOM     25  C   UNL     1       4.856   6.126  18.096  0.00  0.00    +0.000 A 
ATOM     26  C   UNL     1       5.805   5.722  17.153  0.00  0.00    +0.000 A 
BRANCH  26  27
ATOM     27  C   UNL     1       6.932   6.575  17.020  0.00  0.00    +0.000 C 
ATOM     28  N   UNL     1       7.842   7.275  16.851  0.00  0.00    +0.000 NA
ENDBRANCH  26  27
BRANCH  21  29
ATOM     29  O   UNL     1       6.366   4.059  15.409  0.00  0.00    +0.000 OA
BRANCH  29  31
ATOM     30  C   UNL     1       7.649   5.178  13.717  0.00  0.00    +0.000 C 
ATOM     31  C   UNL     1       6.284   4.602  14.079  0.00  0.00    +0.000 C 
ATOM     32  C   UNL     1       5.925   3.478  13.109  0.00  0.00    +0.000 C 
ENDBRANCH  29  31
ENDBRANCH  21  29
ENDBRANCH   1  24
TORSDOF 9
ENDMDL
MODEL 6
REMARK VINA RESULT:      -7.3      8.020     11.580
REMARK  Name = 
REMARK  12 active torsions:
REMARK  status: ('A' for Active; 'I' for Inactive)
REMARK    1  A    between atoms: C_1  and  C_2
REMARK    2  A    between atoms: C_2  and  C_3
REMARK    3  A    between atoms: C_2  and  O_4
REMARK    4  A    between atoms: O_4  and  C_5
REMARK    5  A    between atoms: C_8  and  C_9
REMARK    6  A    between atoms: C_11  and  C_12
REMARK    7  A    between atoms: C_20  and  N_21
REMARK    8  A    between atoms: N_21  and  C_22
REMARK    9  A    between atoms: N_21  and  C_23
REMARK   10  A    between atoms: C_23  and  C_24
REMARK   11  A    between atoms: C_24  and  O_25
REMARK   12  A    between atoms: C_29  and  C_30
REMARK                            x       y       z     vdW  Elec       q    Type
REMARK                         _______ _______ _______ _____ _____    ______ ____
ROOT
ATOM      1  C   UNL     1       1.166   8.655  20.890  0.00  0.00    +0.000 A 
ATOM      2  N   UNL     1       0.568   9.655  20.287  0.00  0.00    +0.000 NA
ATOM      3  C   UNL     1       0.245  10.490  21.323  0.00  0.00    +0.000 A 
ATOM      4  N   UNL     1       0.660  10.049  22.524  0.00  0.00    +0.000 NA
ATOM      5  O   UNL     1       1.264   8.816  22.238  0.00  0.00    +0.000 OA
ENDROOT
BRANCH   3   6
ATOM      6  C   UNL     1      -0.469  11.734  21.067  0.00  0.00    +0.000 A 
ATOM      7  C   UNL     1      -0.149  12.486  19.924  0.00  0.00    +0.000 A 
ATOM      8  C   UNL     1      -0.786  13.702  19.664  0.00  0.00    +0.000 A 
ATOM      9  C   UNL     1      -1.772  14.186  20.527  0.00  0.00    +0.000 A 
ATOM     10  C   UNL     1      -2.163  13.428  21.625  0.00  0.00    +0.000 A 
ATOM     11  C   UNL     1      -1.483  12.218  21.894  0.00  0.00    +0.000 A 
ATOM     12  C   UNL     1      -1.960  11.616  23.177  0.00  0.00    +0.000 C 
ATOM     13  C   UNL     1      -3.293  12.327  23.357  0.00  0.00    +0.000 C 
ATOM     14  C   UNL     1      -3.154  13.747  22.741  0.00  0.00    +0.000 C 
BRANCH  14  15
ATOM     15  N   UNL     1      -4.491  14.319  22.391  0.00  0.00    +0.000 NA
ATOM     16  C   UNL     1      -5.246  14.683  23.597  0.00  0.00    +0.000 C 
BRANCH  15  17
ATOM     17  C   UNL     1      -5.280  13.325  21.603  0.00  0.00    +0.000 C 
BRANCH  17  18
ATOM     18  C   UNL     1      -5.593  13.738  20.151  0.00  0.00    +0.000 C 
BRANCH  18  19
ATOM     19  O   UNL     1      -4.800  12.991  19.234  0.00  0.00    +0.000 OA
ATOM     20  H   UNL     1      -4.042  12.659  19.753  0.00  0.00    +0.000 HD
ENDBRANCH  18  19
ENDBRANCH  17  18
ENDBRANCH  15  17
ENDBRANCH  14  15
ENDBRANCH   3   6
BRANCH   1  24
ATOM     21  C   UNL     1       2.967   5.129  19.278  0.00  0.00    +0.000 A 
ATOM     22  C   UNL     1       3.103   6.351  18.594  0.00  0.00    +0.000 A 
ATOM     23  C   UNL     1       2.512   7.532  19.076  0.00  0.00    +0.000 A 
ATOM     24  C   UNL     1       1.779   7.504  20.261  0.00  0.00    +0.000 A 
ATOM     25  C   UNL     1       1.669   6.290  20.948  0.00  0.00    +0.000 A 
ATOM     26  C   UNL     1       2.268   5.113  20.491  0.00  0.00    +0.000 A 
BRANCH  26  27
ATOM     27  C   UNL     1       2.165   3.998  21.365  0.00  0.00    +0.000 C 
ATOM     28  N   UNL     1       2.019   3.096  22.080  0.00  0.00    +0.000 NA
ENDBRANCH  26  27
BRANCH  21  29
ATOM     29  O   UNL     1       3.621   4.079  18.696  0.00  0.00    +0.000 OA
BRANCH  29  31
ATOM     30  C   UNL     1       4.443   3.645  16.483  0.00  0.00    +0.000 C 
ATOM     31  C   UNL     1       3.212   3.655  17.383  0.00  0.00    +0.000 C 
ATOM     32  C   UNL     1       2.631   2.246  17.478  0.00  0.00    +0.000 C 
ENDBRANCH  29  31
ENDBRANCH  21  29
ENDBRANCH   1  24
TORSDOF 9
ENDMDL
MODEL 7
REMARK VINA RESULT:      -7.3      7.494     10.912
REMARK  Name = 
REMARK  12 active torsions:
REMARK  status: ('A' for Active; 'I' for Inactive)
REMARK    1  A    between atoms: C_1  and  C_2
REMARK    2  A    between atoms: C_2  and  C_3
REMARK    3  A    between atoms: C_2  and  O_4
REMARK    4  A    between atoms: O_4  and  C_5
REMARK    5  A    between atoms: C_8  and  C_9
REMARK    6  A    between atoms: C_11  and  C_12
REMARK    7  A    between atoms: C_20  and  N_21
REMARK    8  A    between atoms: N_21  and  C_22
REMARK    9  A    between atoms: N_21  and  C_23
REMARK   10  A    between atoms: C_23  and  C_24
REMARK   11  A    between atoms: C_24  and  O_25
REMARK   12  A    between atoms: C_29  and  C_30
REMARK                            x       y       z     vdW  Elec       q    Type
REMARK                         _______ _______ _______ _____ _____    ______ ____
ROOT
ATOM      1  C   UNL     1       1.625   9.197  18.772  0.00  0.00    +0.000 A 
ATOM      2  N   UNL     1       0.441   9.451  19.277  0.00  0.00    +0.000 NA
ATOM      3  C   UNL     1       0.228  10.756  18.922  0.00  0.00    +0.000 A 
ATOM      4  N   UNL     1       1.224  11.287  18.190  0.00  0.00    +0.000 NA
ATOM      5  O   UNL     1       2.164  10.250  18.100  0.00  0.00    +0.000 OA
ENDROOT
BRANCH   3   6
ATOM      6  C   UNL     1      -0.996  11.435  19.324  0.00  0.00    +0.000 A 
ATOM      7  C   UNL     1      -2.181  11.192  18.612  0.00  0.00    +0.000 A 
ATOM      8  C   UNL     1      -3.367  11.852  18.944  0.00  0.00    +0.000 A 
ATOM      9  C   UNL     1      -3.402  12.755  20.010  0.00  0.00    +0.000 A 
ATOM     10  C   UNL     1      -2.263  12.959  20.781  0.00  0.00    +0.000 A 
ATOM     11  C   UNL     1      -1.064  12.312  20.408  0.00  0.00    +0.000 A 
ATOM     12  C   UNL     1       0.069  12.753  21.280  0.00  0.00    +0.000 C 
ATOM     13  C   UNL     1      -0.683  13.326  22.471  0.00  0.00    +0.000 C 
ATOM     14  C   UNL     1      -2.018  13.920  21.941  0.00  0.00    +0.000 C 
BRANCH  14  15
ATOM     15  N   UNL     1      -3.035  14.025  23.033  0.00  0.00    +0.000 NA
ATOM     16  C   UNL     1      -2.573  14.912  24.108  0.00  0.00    +0.000 C 
BRANCH  15  17
ATOM     17  C   UNL     1      -3.313  12.671  23.602  0.00  0.00    +0.000 C 
BRANCH  17  18
ATOM     18  C   UNL     1      -4.221  12.657  24.848  0.00  0.00    +0.000 C 
BRANCH  18  19
ATOM     19  O   UNL     1      -5.238  11.669  24.718  0.00  0.00    +0.000 OA
ATOM     20  H   UNL     1      -5.197  11.371  23.788  0.00  0.00    +0.000 HD
ENDBRANCH  18  19
ENDBRANCH  17  18
ENDBRANCH  15  17
ENDBRANCH  14  15
ENDBRANCH   3   6
BRANCH   1  24
ATOM     21  C   UNL     1       3.752   5.495  18.566  0.00  0.00    +0.000 A 
ATOM     22  C   UNL     1       2.789   5.685  19.574  0.00  0.00    +0.000 A 
ATOM     23  C   UNL     1       2.080   6.893  19.692  0.00  0.00    +0.000 A 
ATOM     24  C   UNL     1       2.323   7.928  18.792  0.00  0.00    +0.000 A 
ATOM     25  C   UNL     1       3.263   7.722  17.776  0.00  0.00    +0.000 A 
ATOM     26  C   UNL     1       3.961   6.520  17.635  0.00  0.00    +0.000 A 
BRANCH  26  27
ATOM     27  C   UNL     1       4.788   6.428  16.484  0.00  0.00    +0.000 C 
ATOM     28  N   UNL     1       5.413   6.359  15.508  0.00  0.00    +0.000 NA
ENDBRANCH  26  27
BRANCH  21  29
ATOM     29  O   UNL     1       4.337   4.258  18.567  0.00  0.00    +0.000 OA
BRANCH  29  31
ATOM     30  C   UNL     1       3.164   2.310  17.801  0.00  0.00    +0.000 C 
ATOM     31  C   UNL     1       3.565   3.132  19.020  0.00  0.00    +0.000 C 
ATOM     32  C   UNL     1       4.429   2.285  19.953  0.00  0.00    +0.000 C 
ENDBRANCH  29  31
ENDBRANCH  21  29
ENDBRANCH   1  24
TORSDOF 9
ENDMDL
MODEL 8
REMARK VINA RESULT:      -7.3      1.556      2.064
REMARK  Name = 
REMARK  12 active torsions:
REMARK  status: ('A' for Active; 'I' for Inactive)
REMARK    1  A    between atoms: C_1  and  C_2
REMARK    2  A    between atoms: C_2  and  C_3
REMARK    3  A    between atoms: C_2  and  O_4
REMARK    4  A    between atoms: O_4  and  C_5
REMARK    5  A    between atoms: C_8  and  C_9
REMARK    6  A    between atoms: C_11  and  C_12
REMARK    7  A    between atoms: C_20  and  N_21
REMARK    8  A    between atoms: N_21  and  C_22
REMARK    9  A    between atoms: N_21  and  C_23
REMARK   10  A    between atoms: C_23  and  C_24
REMARK   11  A    between atoms: C_24  and  O_25
REMARK   12  A    between atoms: C_29  and  C_30
REMARK                            x       y       z     vdW  Elec       q    Type
REMARK                         _______ _______ _______ _____ _____    ______ ____
ROOT
ATOM      1  C   UNL     1       8.265   9.155  17.957  0.00  0.00    +0.000 A 
ATOM      2  N   UNL     1       7.418   8.500  17.199  0.00  0.00    +0.000 NA
ATOM      3  C   UNL     1       7.466   7.230  17.708  0.00  0.00    +0.000 A 
ATOM      4  N   UNL     1       8.283   7.104  18.770  0.00  0.00    +0.000 NA
ATOM      5  O   UNL     1       8.828   8.386  18.928  0.00  0.00    +0.000 OA
ENDROOT
BRANCH   3   6
ATOM      6  C   UNL     1       6.665   6.170  17.112  0.00  0.00    +0.000 A 
ATOM      7  C   UNL     1       7.224   5.373  16.100  0.00  0.00    +0.000 A 
ATOM      8  C   UNL     1       6.475   4.371  15.478  0.00  0.00    +0.000 A 
ATOM      9  C   UNL     1       5.156   4.127  15.868  0.00  0.00    +0.000 A 
ATOM     10  C   UNL     1       4.599   4.848  16.918  0.00  0.00    +0.000 A 
ATOM     11  C   UNL     1       5.359   5.883  17.510  0.00  0.00    +0.000 A 
ATOM     12  C   UNL     1       4.546   6.618  18.528  0.00  0.00    +0.000 C 
ATOM     13  C   UNL     1       3.440   5.612  18.805  0.00  0.00    +0.000 C 
ATOM     14  C   UNL     1       3.185   4.823  17.490  0.00  0.00    +0.000 C 
BRANCH  14  15
ATOM     15  N   UNL     1       2.530   3.507  17.767  0.00  0.00    +0.000 NA
ATOM     16  C   UNL     1       1.150   3.688  18.236  0.00  0.00    +0.000 C 
BRANCH  15  17
ATOM     17  C   UNL     1       3.304   2.760  18.802  0.00  0.00    +0.000 C 
BRANCH  17  18
ATOM     18  C   UNL     1       3.149   1.227  18.760  0.00  0.00    +0.000 C 
BRANCH  18  19
ATOM     19  O   UNL     1       4.403   0.601  18.505  0.00  0.00    +0.000 OA
ATOM     20  H   UNL     1       4.361  -0.263  18.959  0.00  0.00    +0.000 HD
ENDBRANCH  18  19
ENDBRANCH  17  18
ENDBRANCH  15  17
ENDBRANCH  14  15
ENDBRANCH   3   6
BRANCH   1  24
ATOM     21  C   UNL     1       9.324  13.296  18.004  0.00  0.00    +0.000 A 
ATOM     22  C   UNL     1       8.099  12.901  17.436  0.00  0.00    +0.000 A 
ATOM     23  C   UNL     1       7.718  11.549  17.380  0.00  0.00    +0.000 A 
ATOM     24  C   UNL     1       8.562  10.571  17.903  0.00  0.00    +0.000 A 
ATOM     25  C   UNL     1       9.767  10.975  18.490  0.00  0.00    +0.000 A 
ATOM     26  C   UNL     1      10.149  12.316  18.569  0.00  0.00    +0.000 A 
BRANCH  26  27
ATOM     27  C   UNL     1      11.340  12.568  19.301  0.00  0.00    +0.000 C 
ATOM     28  N   UNL     1      12.329  12.816  19.856  0.00  0.00    +0.000 NA
ENDBRANCH  26  27
BRANCH  21  29
ATOM     29  O   UNL     1       9.538  14.647  18.005  0.00  0.00    +0.000 OA
BRANCH  29  31
ATOM     30  C   UNL     1       8.270  14.485  20.036  0.00  0.00    +0.000 C 
ATOM     31  C   UNL     1       9.000  15.428  19.087  0.00  0.00    +0.000 C 
ATOM     32  C   UNL     1      10.152  16.111  19.822  0.00  0.00    +0.000 C 
ENDBRANCH  29  31
ENDBRANCH  21  29
ENDBRANCH   1  24
TORSDOF 9
ENDMDL
MODEL 9
REMARK VINA RESULT:      -7.2      7.212     10.643
REMARK  Name = 
REMARK  12 active torsions:
REMARK  status: ('A' for Active; 'I' for Inactive)
REMARK    1  A    between atoms: C_1  and  C_2
REMARK    2  A    between atoms: C_2  and  C_3
REMARK    3  A    between atoms: C_2  and  O_4
REMARK    4  A    between atoms: O_4  and  C_5
REMARK    5  A    between atoms: C_8  and  C_9
REMARK    6  A    between atoms: C_11  and  C_12
REMARK    7  A    between atoms: C_20  and  N_21
REMARK    8  A    between atoms: N_21  and  C_22
REMARK    9  A    between atoms: N_21  and  C_23
REMARK   10  A    between atoms: C_23  and  C_24
REMARK   11  A    between atoms: C_24  and  O_25
REMARK   12  A    between atoms: C_29  and  C_30
REMARK                            x       y       z     vdW  Elec       q    Type
REMARK                         _______ _______ _______ _____ _____    ______ ____
ROOT
ATOM      1  C   UNL     1       2.101   8.694  18.318  0.00  0.00    +0.000 A 
ATOM      2  N   UNL     1       1.110   9.142  19.052  0.00  0.00    +0.000 NA
ATOM      3  C   UNL     1       0.915  10.406  18.565  0.00  0.00    +0.000 A 
ATOM      4  N   UNL     1       1.726  10.724  17.540  0.00  0.00    +0.000 NA
ATOM      5  O   UNL     1       2.528   9.585  17.383  0.00  0.00    +0.000 OA
ENDROOT
BRANCH   3   6
ATOM      6  C   UNL     1      -0.109  11.265  19.146  0.00  0.00    +0.000 A 
ATOM      7  C   UNL     1       0.270  12.268  20.053  0.00  0.00    +0.000 A 
ATOM      8  C   UNL     1      -0.686  13.087  20.659  0.00  0.00    +0.000 A 
ATOM      9  C   UNL     1      -2.041  12.938  20.357  0.00  0.00    +0.000 A 
ATOM     10  C   UNL     1      -2.441  12.005  19.407  0.00  0.00    +0.000 A 
ATOM     11  C   UNL     1      -1.464  11.160  18.832  0.00  0.00    +0.000 A 
ATOM     12  C   UNL     1      -2.103  10.149  17.933  0.00  0.00    +0.000 C 
ATOM     13  C   UNL     1      -3.454  10.798  17.673  0.00  0.00    +0.000 C 
ATOM     14  C   UNL     1      -3.838  11.604  18.946  0.00  0.00    +0.000 C 
BRANCH  14  15
ATOM     15  N   UNL     1      -4.839  12.670  18.628  0.00  0.00    +0.000 NA
ATOM     16  C   UNL     1      -5.489  13.170  19.846  0.00  0.00    +0.000 C 
BRANCH  15  17
ATOM     17  C   UNL     1      -5.882  12.131  17.704  0.00  0.00    +0.000 C 
BRANCH  17  18
ATOM     18  C   UNL     1      -7.196  11.693  18.380  0.00  0.00    +0.000 C 
BRANCH  18  19
ATOM     19  O   UNL     1      -7.203  10.286  18.603  0.00  0.00    +0.000 OA
ATOM     20  H   UNL     1      -7.600  10.163  19.488  0.00  0.00    +0.000 HD
ENDBRANCH  18  19
ENDBRANCH  17  18
ENDBRANCH  15  17
ENDBRANCH  14  15
ENDBRANCH   3   6
BRANCH   1  24
ATOM     21  C   UNL     1       3.935   4.834  18.200  0.00  0.00    +0.000 A 
ATOM     22  C   UNL     1       2.805   5.039  19.013  0.00  0.00    +0.000 A 
ATOM     23  C   UNL     1       2.181   6.296  19.098  0.00  0.00    +0.000 A 
ATOM     24  C   UNL     1       2.681   7.367  18.360  0.00  0.00    +0.000 A 
ATOM     25  C   UNL     1       3.789   7.148  17.534  0.00  0.00    +0.000 A 
ATOM     26  C   UNL     1       4.407   5.900  17.425  0.00  0.00    +0.000 A 
BRANCH  26  27
ATOM     27  C   UNL     1       5.441   5.815  16.454  0.00  0.00    +0.000 C 
ATOM     28  N   UNL     1       6.242   5.743  15.618  0.00  0.00    +0.000 NA
ENDBRANCH  26  27
BRANCH  21  29
ATOM     29  O   UNL     1       4.411   3.551  18.205  0.00  0.00    +0.000 OA
BRANCH  29  31
ATOM     30  C   UNL     1       3.505   1.332  18.078  0.00  0.00    +0.000 C 
ATOM     31  C   UNL     1       3.701   2.557  18.965  0.00  0.00    +0.000 C 
ATOM     32  C   UNL     1       4.537   2.181  20.187  0.00  0.00    +0.000 C 
ENDBRANCH  29  31
ENDBRANCH  21  29
ENDBRANCH   1  24
TORSDOF 9
ENDMDL
