MODEL 1
REMARK VINA RESULT:      -7.2      0.000      0.000
REMARK  Name = 
REMARK  10 active torsions:
REMARK  status: ('A' for Active; 'I' for Inactive)
REMARK    1  A    between atoms: C_1  and  C_2
REMARK    2  A    between atoms: C_2  and  O_3
REMARK    3  A    between atoms: O_3  and  C_4
REMARK    4  A    between atoms: C_4  and  C_6
REMARK    5  A    between atoms: N_8  and  C_9
REMARK    6  A    between atoms: C_15  and  C_16
REMARK    7  A    between atoms: C_16  and  O_18
REMARK    8  A    between atoms: O_18  and  C_19
REMARK    9  A    between atoms: C_19  and  C_20
REMARK   10  A    between atoms: C_21  and  N_22
REMARK                            x       y       z     vdW  Elec       q    Type
REMARK                         _______ _______ _______ _____ _____    ______ ____
ROOT
ATOM      1  C   UNL     1       5.425   5.304  17.254  0.00  0.00    +0.000 A 
ATOM      2  N   UNL     1       4.795   6.462  17.534  0.00  0.00    +0.000 NA
ATOM      3  N   UNL     1       3.552   6.096  17.964  0.00  0.00    +0.000 N 
ATOM      4  C   UNL     1       3.325   4.741  17.792  0.00  0.00    +0.000 A 
ATOM      5  C   UNL     1       4.528   4.216  17.377  0.00  0.00    +0.000 A 
ENDROOT
BRANCH   3   6
ATOM      6  C   UNL     1       2.680   7.080  18.522  0.00  0.00    +0.000 A 
ATOM      7  C   UNL     1       2.308   6.994  19.869  0.00  0.00    +0.000 A 
ATOM      8  C   UNL     1       1.571   8.029  20.457  0.00  0.00    +0.000 A 
ATOM      9  C   UNL     1       1.174   9.129  19.697  0.00  0.00    +0.000 A 
ATOM     10  C   UNL     1       1.474   9.183  18.341  0.00  0.00    +0.000 A 
ATOM     11  C   UNL     1       2.209   8.155  17.751  0.00  0.00    +0.000 A 
ENDBRANCH   3   6
BRANCH   5  12
ATOM     12  N   UNL     1       4.770   2.923  17.091  0.00  0.00    +0.000 N 
ATOM     13  H   UNL     1       5.709   2.539  17.019  0.00  0.00    +0.000 HD
ATOM     14  H   UNL     1       4.029   2.291  16.778  0.00  0.00    +0.000 HD
ENDBRANCH   5  12
BRANCH   1  15
ATOM     15  C   UNL     1       6.848   5.206  16.893  0.00  0.00    +0.000 C 
ATOM     16  O   UNL     1       7.720   5.879  17.434  0.00  0.00    +0.000 OA
BRANCH  15  17
ATOM     17  O   UNL     1       7.082   4.356  15.847  0.00  0.00    +0.000 OA
BRANCH  17  19
ATOM     18  C   UNL     1       6.166   3.844  13.701  0.00  0.00    +0.000 C 
ATOM     19  C   UNL     1       6.849   4.905  14.545  0.00  0.00    +0.000 C 
ENDBRANCH  17  19
ENDBRANCH  15  17
ENDBRANCH   1  15
BRANCH   4  20
ATOM     20  C   UNL     1       2.054   4.093  17.922  0.00  0.00    +0.000 C 
ATOM     21  O   UNL     1       1.044   4.358  17.282  0.00  0.00    +0.000 OA
BRANCH  20  22
ATOM     22  O   UNL     1       2.121   3.120  18.874  0.00  0.00    +0.000 OA
BRANCH  22  23
ATOM     23  C   UNL     1       1.054   3.132  19.829  0.00  0.00    +0.000 C 
ATOM     24  C   UNL     1       1.579   3.562  21.186  0.00  0.00    +0.000 C 
ENDBRANCH  22  23
ENDBRANCH  20  22
ENDBRANCH   4  20
TORSDOF 8
ENDMDL
MODEL 2
REMARK VINA RESULT:      -7.2      0.994      1.750
REMARK  Name = 
REMARK  10 active torsions:
REMARK  status: ('A' for Active; 'I' for Inactive)
REMARK    1  A    between atoms: C_1  and  C_2
REMARK    2  A    between atoms: C_2  and  O_3
REMARK    3  A    between atoms: O_3  and  C_4
REMARK    4  A    between atoms: C_4  and  C_6
REMARK    5  A    between atoms: N_8  and  C_9
REMARK    6  A    between atoms: C_15  and  C_16
REMARK    7  A    between atoms: C_16  and  O_18
REMARK    8  A    between atoms: O_18  and  C_19
REMARK    9  A    between atoms: C_19  and  C_20
REMARK   10  A    between atoms: C_21  and  N_22
REMARK                            x       y       z     vdW  Elec       q    Type
REMARK                         _______ _______ _______ _____ _____    ______ ____
ROOT
ATOM      1  C   UNL     1       5.411   5.500  17.155  0.00  0.00    +0.000 A 
ATOM      2  N   UNL     1       4.748   6.647  17.406  0.00  0.00    +0.000 NA
ATOM      3  N   UNL     1       3.536   6.258  17.898  0.00  0.00    +0.000 N 
ATOM      4  C   UNL     1       3.353   4.889  17.796  0.00  0.00    +0.000 A 
ATOM      5  C   UNL     1       4.559   4.388  17.361  0.00  0.00    +0.000 A 
ENDROOT
BRANCH   3   6
ATOM      6  C   UNL     1       2.649   7.236  18.443  0.00  0.00    +0.000 A 
ATOM      7  C   UNL     1       2.272   7.157  19.790  0.00  0.00    +0.000 A 
ATOM      8  C   UNL     1       1.519   8.187  20.365  0.00  0.00    +0.000 A 
ATOM      9  C   UNL     1       1.110   9.275  19.593  0.00  0.00    +0.000 A 
ATOM     10  C   UNL     1       1.415   9.320  18.238  0.00  0.00    +0.000 A 
ATOM     11  C   UNL     1       2.166   8.297  17.660  0.00  0.00    +0.000 A 
ENDBRANCH   3   6
BRANCH   5  12
ATOM     12  N   UNL     1       4.838   3.093  17.124  0.00  0.00    +0.000 N 
ATOM     13  H   UNL     1       4.445   2.578  16.339  0.00  0.00    +0.000 HD
ATOM     14  H   UNL     1       5.337   2.514  17.804  0.00  0.00    +0.000 HD
ENDBRANCH   5  12
BRANCH   1  15
ATOM     15  C   UNL     1       6.822   5.437  16.746  0.00  0.00    +0.000 C 
ATOM     16  O   UNL     1       7.209   5.776  15.632  0.00  0.00    +0.000 OA
BRANCH  15  17
ATOM     17  O   UNL     1       7.635   4.888  17.699  0.00  0.00    +0.000 OA
BRANCH  17  19
ATOM     18  C   UNL     1       8.147   7.040  18.601  0.00  0.00    +0.000 C 
ATOM     19  C   UNL     1       7.725   5.619  18.927  0.00  0.00    +0.000 C 
ENDBRANCH  17  19
ENDBRANCH  15  17
ENDBRANCH   1  15
BRANCH   4  20
ATOM     20  C   UNL     1       2.112   4.204  18.002  0.00  0.00    +0.000 C 
ATOM     21  O   UNL     1       1.110   4.308  17.307  0.00  0.00    +0.000 OA
BRANCH  20  22
ATOM     22  O   UNL     1       2.200   3.400  19.100  0.00  0.00    +0.000 OA
BRANCH  22  23
ATOM     23  C   UNL     1       1.089   3.482  20.001  0.00  0.00    +0.000 C 
ATOM     24  C   UNL     1       1.493   2.963  21.368  0.00  0.00    +0.000 C 
ENDBRANCH  22  23
ENDBRANCH  20  22
ENDBRANCH   4  20
TORSDOF 8
ENDMDL
MODEL 3
REMARK VINA RESULT:      -7.2      0.749      1.265
REMARK  Name = 
REMARK  10 active torsions:
REMARK  status: ('A' for Active; 'I' for Inactive)
REMARK    1  A    between atoms: C_1  and  C_2
REMARK    2  A    between atoms: C_2  and  O_3
REMARK    3  A    between atoms: O_3  and  C_4
REMARK    4  A    between atoms: C_4  and  C_6
REMARK    5  A    between atoms: N_8  and  C_9
REMARK    6  A    between atoms: C_15  and  C_16
REMARK    7  A    between atoms: C_16  and  O_18
REMARK    8  A    between atoms: O_18  and  C_19
REMARK    9  A    between atoms: C_19  and  C_20
REMARK   10  A    between atoms: C_21  and  N_22
REMARK                            x       y       z     vdW  Elec       q    Type
REMARK                         _______ _______ _______ _____ _____    ______ ____
ROOT
ATOM      1  C   UNL     1       5.299   4.990  17.931  0.00  0.00    +0.000 A 
ATOM      2  N   UNL     1       4.821   6.247  18.031  0.00  0.00    +0.000 NA
ATOM      3  N   UNL     1       3.494   6.102  18.312  0.00  0.00    +0.000 N 
ATOM      4  C   UNL     1       3.086   4.782  18.216  0.00  0.00    +0.000 A 
ATOM      5  C   UNL     1       4.238   4.056  18.013  0.00  0.00    +0.000 A 
ENDROOT
BRANCH   3   6
ATOM      6  C   UNL     1       2.718   7.248  18.666  0.00  0.00    +0.000 A 
ATOM      7  C   UNL     1       2.426   8.215  17.696  0.00  0.00    +0.000 A 
ATOM      8  C   UNL     1       1.551   9.265  17.999  0.00  0.00    +0.000 A 
ATOM      9  C   UNL     1       0.997   9.374  19.274  0.00  0.00    +0.000 A 
ATOM     10  C   UNL     1       1.344   8.461  20.264  0.00  0.00    +0.000 A 
ATOM     11  C   UNL     1       2.215   7.412  19.967  0.00  0.00    +0.000 A 
ENDBRANCH   3   6
BRANCH   5  12
ATOM     12  N   UNL     1       4.315   2.720  17.864  0.00  0.00    +0.000 N 
ATOM     13  H   UNL     1       3.972   2.236  17.037  0.00  0.00    +0.000 HD
ATOM     14  H   UNL     1       4.580   2.104  18.636  0.00  0.00    +0.000 HD
ENDBRANCH   5  12
BRANCH   1  15
ATOM     15  C   UNL     1       6.723   4.660  17.779  0.00  0.00    +0.000 C 
ATOM     16  O   UNL     1       7.566   4.941  18.625  0.00  0.00    +0.000 OA
BRANCH  15  17
ATOM     17  O   UNL     1       7.019   4.087  16.572  0.00  0.00    +0.000 OA
BRANCH  17  19
ATOM     18  C   UNL     1       6.158   4.133  14.345  0.00  0.00    +0.000 C 
ATOM     19  C   UNL     1       6.851   4.935  15.431  0.00  0.00    +0.000 C 
ENDBRANCH  17  19
ENDBRANCH  15  17
ENDBRANCH   1  15
BRANCH   4  20
ATOM     20  C   UNL     1       1.725   4.335  18.219  0.00  0.00    +0.000 C 
ATOM     21  O   UNL     1       1.045   4.099  17.228  0.00  0.00    +0.000 OA
BRANCH  20  22
ATOM     22  O   UNL     1       1.280   4.202  19.500  0.00  0.00    +0.000 OA
BRANCH  22  23
ATOM     23  C   UNL     1       1.211   2.854  19.981  0.00  0.00    +0.000 C 
ATOM     24  C   UNL     1       1.841   2.762  21.358  0.00  0.00    +0.000 C 
ENDBRANCH  22  23
ENDBRANCH  20  22
ENDBRANCH   4  20
TORSDOF 8
ENDMDL
MODEL 4
REMARK VINA RESULT:      -7.1      0.474      1.133
REMARK  Name = 
REMARK  10 active torsions:
REMARK  status: ('A' for Active; 'I' for Inactive)
REMARK    1  A    between atoms: C_1  and  C_2
REMARK    2  A    between atoms: C_2  and  O_3
REMARK    3  A    between atoms: O_3  and  C_4
REMARK    4  A    between atoms: C_4  and  C_6
REMARK    5  A    between atoms: N_8  and  C_9
REMARK    6  A    between atoms: C_15  and  C_16
REMARK    7  A    between atoms: C_16  and  O_18
REMARK    8  A    between atoms: O_18  and  C_19
REMARK    9  A    between atoms: C_19  and  C_20
REMARK   10  A    between atoms: C_21  and  N_22
REMARK                            x       y       z     vdW  Elec       q    Type
REMARK                         _______ _______ _______ _____ _____    ______ ____
ROOT
ATOM      1  C   UNL     1       5.404   5.683  16.878  0.00  0.00    +0.000 A 
ATOM      2  N   UNL     1       4.762   6.824  17.201  0.00  0.00    +0.000 NA
ATOM      3  N   UNL     1       3.600   6.423  17.794  0.00  0.00    +0.000 N 
ATOM      4  C   UNL     1       3.414   5.054  17.691  0.00  0.00    +0.000 A 
ATOM      5  C   UNL     1       4.578   4.565  17.144  0.00  0.00    +0.000 A 
ENDROOT
BRANCH   3   6
ATOM      6  C   UNL     1       2.760   7.389  18.428  0.00  0.00    +0.000 A 
ATOM      7  C   UNL     1       2.287   8.485  17.694  0.00  0.00    +0.000 A 
ATOM      8  C   UNL     1       1.353   9.356  18.267  0.00  0.00    +0.000 A 
ATOM      9  C   UNL     1       0.919   9.160  19.578  0.00  0.00    +0.000 A 
ATOM     10  C   UNL     1       1.443   8.120  20.336  0.00  0.00    +0.000 A 
ATOM     11  C   UNL     1       2.374   7.248  19.770  0.00  0.00    +0.000 A 
ENDBRANCH   3   6
BRANCH   5  12
ATOM     12  N   UNL     1       4.840   3.274  16.868  0.00  0.00    +0.000 N 
ATOM     13  H   UNL     1       4.882   2.552  17.584  0.00  0.00    +0.000 HD
ATOM     14  H   UNL     1       5.162   2.973  15.945  0.00  0.00    +0.000 HD
ENDBRANCH   5  12
BRANCH   1  15
ATOM     15  C   UNL     1       6.773   5.632  16.344  0.00  0.00    +0.000 C 
ATOM     16  O   UNL     1       7.606   6.506  16.561  0.00  0.00    +0.000 OA
BRANCH  15  17
ATOM     17  O   UNL     1       6.992   4.560  15.523  0.00  0.00    +0.000 OA
BRANCH  17  19
ATOM     18  C   UNL     1       6.086   3.773  13.458  0.00  0.00    +0.000 C 
ATOM     19  C   UNL     1       6.940   4.839  14.120  0.00  0.00    +0.000 C 
ENDBRANCH  17  19
ENDBRANCH  15  17
ENDBRANCH   1  15
BRANCH   4  20
ATOM     20  C   UNL     1       2.198   4.360  17.998  0.00  0.00    +0.000 C 
ATOM     21  O   UNL     1       1.147   4.443  17.376  0.00  0.00    +0.000 OA
BRANCH  20  22
ATOM     22  O   UNL     1       2.375   3.576  19.100  0.00  0.00    +0.000 OA
BRANCH  22  23
ATOM     23  C   UNL     1       1.369   3.715  20.110  0.00  0.00    +0.000 C 
ATOM     24  C   UNL     1       2.005   3.653  21.486  0.00  0.00    +0.000 C 
ENDBRANCH  22  23
ENDBRANCH  20  22
ENDBRANCH   4  20
TORSDOF 8
ENDMDL
MODEL 5
REMARK VINA RESULT:      -7.1      1.140      2.160
REMARK  Name = 
REMARK  10 active torsions:
REMARK  status: ('A' for Active; 'I' for Inactive)
REMARK    1  A    between atoms: C_1  and  C_2
REMARK    2  A    between atoms: C_2  and  O_3
REMARK    3  A    between atoms: O_3  and  C_4
REMARK    4  A    between atoms: C_4  and  C_6
REMARK    5  A    between atoms: N_8  and  C_9
REMARK    6  A    between atoms: C_15  and  C_16
REMARK    7  A    between atoms: C_16  and  O_18
REMARK    8  A    between atoms: O_18  and  C_19
REMARK    9  A    between atoms: C_19  and  C_20
REMARK   10  A    between atoms: C_21  and  N_22
REMARK                            x       y       z     vdW  Elec       q    Type
REMARK                         _______ _______ _______ _____ _____    ______ ____
ROOT
ATOM      1  C   UNL     1       5.560   5.655  17.057  0.00  0.00    +0.000 A 
ATOM      2  N   UNL     1       4.903   6.792  17.358  0.00  0.00    +0.000 NA
ATOM      3  N   UNL     1       3.695   6.387  17.848  0.00  0.00    +0.000 N 
ATOM      4  C   UNL     1       3.509   5.023  17.697  0.00  0.00    +0.000 A 
ATOM      5  C   UNL     1       4.709   4.537  17.231  0.00  0.00    +0.000 A 
ENDROOT
BRANCH   3   6
ATOM      6  C   UNL     1       2.815   7.345  18.438  0.00  0.00    +0.000 A 
ATOM      7  C   UNL     1       2.330   8.410  17.668  0.00  0.00    +0.000 A 
ATOM      8  C   UNL     1       1.360   9.268  18.197  0.00  0.00    +0.000 A 
ATOM      9  C   UNL     1       0.900   9.091  19.502  0.00  0.00    +0.000 A 
ATOM     10  C   UNL     1       1.433   8.083  20.297  0.00  0.00    +0.000 A 
ATOM     11  C   UNL     1       2.400   7.224  19.774  0.00  0.00    +0.000 A 
ENDBRANCH   3   6
BRANCH   5  12
ATOM     12  N   UNL     1       4.984   3.251  16.943  0.00  0.00    +0.000 N 
ATOM     13  H   UNL     1       5.468   2.632  17.589  0.00  0.00    +0.000 HD
ATOM     14  H   UNL     1       4.858   2.869  16.003  0.00  0.00    +0.000 HD
ENDBRANCH   5  12
BRANCH   1  15
ATOM     15  C   UNL     1       6.967   5.605  16.631  0.00  0.00    +0.000 C 
ATOM     16  O   UNL     1       7.541   4.557  16.353  0.00  0.00    +0.000 OA
BRANCH  15  17
ATOM     17  O   UNL     1       7.582   6.826  16.657  0.00  0.00    +0.000 OA
BRANCH  17  19
ATOM     18  C   UNL     1       8.076   8.816  17.884  0.00  0.00    +0.000 C 
ATOM     19  C   UNL     1       7.943   7.306  17.957  0.00  0.00    +0.000 C 
ENDBRANCH  17  19
ENDBRANCH  15  17
ENDBRANCH   1  15
BRANCH   4  20
ATOM     20  C   UNL     1       2.269   4.332  17.891  0.00  0.00    +0.000 C 
ATOM     21  O   UNL     1       1.200   4.613  17.365  0.00  0.00    +0.000 OA
BRANCH  20  22
ATOM     22  O   UNL     1       2.444   3.294  18.758  0.00  0.00    +0.000 OA
BRANCH  22  23
ATOM     23  C   UNL     1       2.573   3.669  20.134  0.00  0.00    +0.000 C 
ATOM     24  C   UNL     1       1.231   3.554  20.831  0.00  0.00    +0.000 C 
ENDBRANCH  22  23
ENDBRANCH  20  22
ENDBRANCH   4  20
TORSDOF 8
ENDMDL
MODEL 6
REMARK VINA RESULT:      -6.8      2.022      4.222
REMARK  Name = 
REMARK  10 active torsions:
REMARK  status: ('A' for Active; 'I' for Inactive)
REMARK    1  A    between atoms: C_1  and  C_2
REMARK    2  A    between atoms: C_2  and  O_3
REMARK    3  A    between atoms: O_3  and  C_4
REMARK    4  A    between atoms: C_4  and  C_6
REMARK    5  A    between atoms: N_8  and  C_9
REMARK    6  A    between atoms: C_15  and  C_16
REMARK    7  A    between atoms: C_16  and  O_18
REMARK    8  A    between atoms: O_18  and  C_19
REMARK    9  A    between atoms: C_19  and  C_20
REMARK   10  A    between atoms: C_21  and  N_22
REMARK                            x       y       z     vdW  Elec       q    Type
REMARK                         _______ _______ _______ _____ _____    ______ ____
ROOT
ATOM      1  C   UNL     1       6.074   4.365  15.457  0.00  0.00    +0.000 A 
ATOM      2  N   UNL     1       5.099   3.510  15.823  0.00  0.00    +0.000 NA
ATOM      3  N   UNL     1       4.701   3.932  17.058  0.00  0.00    +0.000 N 
ATOM      4  C   UNL     1       5.526   4.927  17.555  0.00  0.00    +0.000 A 
ATOM      5  C   UNL     1       6.383   5.242  16.525  0.00  0.00    +0.000 A 
ENDROOT
BRANCH   3   6
ATOM      6  C   UNL     1       3.544   3.352  17.663  0.00  0.00    +0.000 A 
ATOM      7  C   UNL     1       3.684   2.240  18.505  0.00  0.00    +0.000 A 
ATOM      8  C   UNL     1       2.577   1.756  19.211  0.00  0.00    +0.000 A 
ATOM      9  C   UNL     1       1.326   2.352  19.052  0.00  0.00    +0.000 A 
ATOM     10  C   UNL     1       1.165   3.405  18.159  0.00  0.00    +0.000 A 
ATOM     11  C   UNL     1       2.265   3.893  17.454  0.00  0.00    +0.000 A 
ENDBRANCH   3   6
BRANCH   5  12
ATOM     12  N   UNL     1       7.360   6.167  16.564  0.00  0.00    +0.000 N 
ATOM     13  H   UNL     1       7.454   6.902  15.867  0.00  0.00    +0.000 HD
ATOM     14  H   UNL     1       8.151   6.090  17.208  0.00  0.00    +0.000 HD
ENDBRANCH   5  12
BRANCH   1  15
ATOM     15  C   UNL     1       6.700   4.381  14.126  0.00  0.00    +0.000 C 
ATOM     16  O   UNL     1       7.400   5.308  13.730  0.00  0.00    +0.000 OA
BRANCH  15  17
ATOM     17  O   UNL     1       6.356   3.305  13.356  0.00  0.00    +0.000 OA
BRANCH  17  19
ATOM     18  C   UNL     1       4.655   3.206  11.682  0.00  0.00    +0.000 C 
ATOM     19  C   UNL     1       6.091   3.593  11.978  0.00  0.00    +0.000 C 
ENDBRANCH  17  19
ENDBRANCH  15  17
ENDBRANCH   1  15
BRANCH   4  20
ATOM     20  C   UNL     1       5.520   5.408  18.904  0.00  0.00    +0.000 C 
ATOM     21  O   UNL     1       6.432   5.292  19.713  0.00  0.00    +0.000 OA
BRANCH  20  22
ATOM     22  O   UNL     1       4.336   6.030  19.172  0.00  0.00    +0.000 OA
BRANCH  22  23
ATOM     23  C   UNL     1       3.957   7.042  18.232  0.00  0.00    +0.000 C 
ATOM     24  C   UNL     1       2.507   7.432  18.448  0.00  0.00    +0.000 C 
ENDBRANCH  22  23
ENDBRANCH  20  22
ENDBRANCH   4  20
TORSDOF 8
ENDMDL
MODEL 7
REMARK VINA RESULT:      -6.8      2.809      5.161
REMARK  Name = 
REMARK  10 active torsions:
REMARK  status: ('A' for Active; 'I' for Inactive)
REMARK    1  A    between atoms: C_1  and  C_2
REMARK    2  A    between atoms: C_2  and  O_3
REMARK    3  A    between atoms: O_3  and  C_4
REMARK    4  A    between atoms: C_4  and  C_6
REMARK    5  A    between atoms: N_8  and  C_9
REMARK    6  A    between atoms: C_15  and  C_16
REMARK    7  A    between atoms: C_16  and  O_18
REMARK    8  A    between atoms: O_18  and  C_19
REMARK    9  A    between atoms: C_19  and  C_20
REMARK   10  A    between atoms: C_21  and  N_22
REMARK                            x       y       z     vdW  Elec       q    Type
REMARK                         _______ _______ _______ _____ _____    ______ ____
ROOT
ATOM      1  C   UNL     1       5.903   4.071  14.214  0.00  0.00    +0.000 A 
ATOM      2  N   UNL     1       4.990   3.710  15.137  0.00  0.00    +0.000 NA
ATOM      3  N   UNL     1       5.343   4.383  16.270  0.00  0.00    +0.000 N 
ATOM      4  C   UNL     1       6.563   5.023  16.131  0.00  0.00    +0.000 A 
ATOM      5  C   UNL     1       6.912   4.866  14.809  0.00  0.00    +0.000 A 
ENDROOT
BRANCH   3   6
ATOM      6  C   UNL     1       4.470   4.369  17.401  0.00  0.00    +0.000 A 
ATOM      7  C   UNL     1       4.407   3.231  18.216  0.00  0.00    +0.000 A 
ATOM      8  C   UNL     1       3.663   3.263  19.401  0.00  0.00    +0.000 A 
ATOM      9  C   UNL     1       2.953   4.410  19.756  0.00  0.00    +0.000 A 
ATOM     10  C   UNL     1       2.949   5.515  18.912  0.00  0.00    +0.000 A 
ATOM     11  C   UNL     1       3.690   5.489  17.731  0.00  0.00    +0.000 A 
ENDBRANCH   3   6
BRANCH   5  12
ATOM     12  N   UNL     1       8.031   5.334  14.226  0.00  0.00    +0.000 N 
ATOM     13  H   UNL     1       8.432   4.920  13.387  0.00  0.00    +0.000 HD
ATOM     14  H   UNL     1       8.625   6.032  14.679  0.00  0.00    +0.000 HD
ENDBRANCH   5  12
BRANCH   1  15
ATOM     15  C   UNL     1       5.831   3.699  12.793  0.00  0.00    +0.000 C 
ATOM     16  O   UNL     1       6.819   3.393  12.133  0.00  0.00    +0.000 OA
BRANCH  15  17
ATOM     17  O   UNL     1       4.572   3.809  12.270  0.00  0.00    +0.000 OA
BRANCH  17  19
ATOM     18  C   UNL     1       3.294   3.621  10.260  0.00  0.00    +0.000 C 
ATOM     19  C   UNL     1       4.278   2.925  11.182  0.00  0.00    +0.000 C 
ENDBRANCH  17  19
ENDBRANCH  15  17
ENDBRANCH   1  15
BRANCH   4  20
ATOM     20  C   UNL     1       7.315   5.610  17.200  0.00  0.00    +0.000 C 
ATOM     21  O   UNL     1       7.550   5.089  18.283  0.00  0.00    +0.000 OA
BRANCH  20  22
ATOM     22  O   UNL     1       7.745   6.853  16.841  0.00  0.00    +0.000 OA
BRANCH  22  23
ATOM     23  C   UNL     1       7.182   7.931  17.597  0.00  0.00    +0.000 C 
ATOM     24  C   UNL     1       8.267   8.922  17.973  0.00  0.00    +0.000 C 
ENDBRANCH  22  23
ENDBRANCH  20  22
ENDBRANCH   4  20
TORSDOF 8
ENDMDL
MODEL 8
REMARK VINA RESULT:      -6.8      1.284      1.577
REMARK  Name = 
REMARK  10 active torsions:
REMARK  status: ('A' for Active; 'I' for Inactive)
REMARK    1  A    between atoms: C_1  and  C_2
REMARK    2  A    between atoms: C_2  and  O_3
REMARK    3  A    between atoms: O_3  and  C_4
REMARK    4  A    between atoms: C_4  and  C_6
REMARK    5  A    between atoms: N_8  and  C_9
REMARK    6  A    between atoms: C_15  and  C_16
REMARK    7  A    between atoms: C_16  and  O_18
REMARK    8  A    between atoms: O_18  and  C_19
REMARK    9  A    between atoms: C_19  and  C_20
REMARK   10  A    between atoms: C_21  and  N_22
REMARK                            x       y       z     vdW  Elec       q    Type
REMARK                         _______ _______ _______ _____ _____    ______ ____
ROOT
ATOM      1  C   UNL     1       5.316   5.334  18.063  0.00  0.00    +0.000 A 
ATOM      2  N   UNL     1       4.543   6.414  17.831  0.00  0.00    +0.000 NA
ATOM      3  N   UNL     1       3.496   6.295  18.697  0.00  0.00    +0.000 N 
ATOM      4  C   UNL     1       3.500   5.072  19.347  0.00  0.00    +0.000 A 
ATOM      5  C   UNL     1       4.680   4.465  18.982  0.00  0.00    +0.000 A 
ENDROOT
BRANCH   3   6
ATOM      6  C   UNL     1       2.574   7.377  18.844  0.00  0.00    +0.000 A 
ATOM      7  C   UNL     1       2.006   7.639  20.097  0.00  0.00    +0.000 A 
ATOM      8  C   UNL     1       1.215   8.780  20.279  0.00  0.00    +0.000 A 
ATOM      9  C   UNL     1       0.960   9.637  19.209  0.00  0.00    +0.000 A 
ATOM     10  C   UNL     1       1.458   9.340  17.945  0.00  0.00    +0.000 A 
ATOM     11  C   UNL     1       2.247   8.205  17.759  0.00  0.00    +0.000 A 
ENDBRANCH   3   6
BRANCH   5  12
ATOM     12  N   UNL     1       5.103   3.252  19.384  0.00  0.00    +0.000 N 
ATOM     13  H   UNL     1       4.546   2.642  19.978  0.00  0.00    +0.000 HD
ATOM     14  H   UNL     1       6.067   2.941  19.242  0.00  0.00    +0.000 HD
ENDBRANCH   5  12
BRANCH   1  15
ATOM     15  C   UNL     1       6.638   5.121  17.454  0.00  0.00    +0.000 C 
ATOM     16  O   UNL     1       7.538   4.505  18.016  0.00  0.00    +0.000 OA
BRANCH  15  17
ATOM     17  O   UNL     1       6.782   5.744  16.245  0.00  0.00    +0.000 OA
BRANCH  17  19
ATOM     18  C   UNL     1       5.675   4.462  14.561  0.00  0.00    +0.000 C 
ATOM     19  C   UNL     1       7.019   4.877  15.130  0.00  0.00    +0.000 C 
ENDBRANCH  17  19
ENDBRANCH  15  17
ENDBRANCH   1  15
BRANCH   4  20
ATOM     20  C   UNL     1       2.421   4.550  20.132  0.00  0.00    +0.000 C 
ATOM     21  O   UNL     1       2.410   4.433  21.351  0.00  0.00    +0.000 OA
BRANCH  20  22
ATOM     22  O   UNL     1       1.384   4.195  19.322  0.00  0.00    +0.000 OA
BRANCH  22  23
ATOM     23  C   UNL     1       0.852   2.886  19.557  0.00  0.00    +0.000 C 
ATOM     24  C   UNL     1       1.747   1.841  18.920  0.00  0.00    +0.000 C 
ENDBRANCH  22  23
ENDBRANCH  20  22
ENDBRANCH   4  20
TORSDOF 8
ENDMDL
MODEL 9
REMARK VINA RESULT:      -6.8      1.199      2.146
REMARK  Name = 
REMARK  10 active torsions:
REMARK  status: ('A' for Active; 'I' for Inactive)
REMARK    1  A    between atoms: C_1  and  C_2
REMARK    2  A    between atoms: C_2  and  O_3
REMARK    3  A    between atoms: O_3  and  C_4
REMARK    4  A    between atoms: C_4  and  C_6
REMARK    5  A    between atoms: N_8  and  C_9
REMARK    6  A    between atoms: C_15  and  C_16
REMARK    7  A    between atoms: C_16  and  O_18
REMARK    8  A    between atoms: O_18  and  C_19
REMARK    9  A    between atoms: C_19  and  C_20
REMARK   10  A    between atoms: C_21  and  N_22
REMARK                            x       y       z     vdW  Elec       q    Type
REMARK                         _______ _______ _______ _____ _____    ______ ____
ROOT
ATOM      1  C   UNL     1       5.200   4.999  17.586  0.00  0.00    +0.000 A 
ATOM      2  N   UNL     1       4.721   6.253  17.711  0.00  0.00    +0.000 NA
ATOM      3  N   UNL     1       3.433   6.101  18.136  0.00  0.00    +0.000 N 
ATOM      4  C   UNL     1       3.034   4.775  18.110  0.00  0.00    +0.000 A 
ATOM      5  C   UNL     1       4.167   4.056  17.800  0.00  0.00    +0.000 A 
ENDROOT
BRANCH   3   6
ATOM      6  C   UNL     1       2.685   7.246  18.547  0.00  0.00    +0.000 A 
ATOM      7  C   UNL     1       2.378   8.247  17.616  0.00  0.00    +0.000 A 
ATOM      8  C   UNL     1       1.529   9.299  17.977  0.00  0.00    +0.000 A 
ATOM      9  C   UNL     1       1.015   9.376  19.271  0.00  0.00    +0.000 A 
ATOM     10  C   UNL     1       1.379   8.429  20.222  0.00  0.00    +0.000 A 
ATOM     11  C   UNL     1       2.224   7.378  19.867  0.00  0.00    +0.000 A 
ENDBRANCH   3   6
BRANCH   5  12
ATOM     12  N   UNL     1       4.243   2.719  17.670  0.00  0.00    +0.000 N 
ATOM     13  H   UNL     1       4.062   2.238  16.792  0.00  0.00    +0.000 HD
ATOM     14  H   UNL     1       4.336   2.101  18.480  0.00  0.00    +0.000 HD
ENDBRANCH   5  12
BRANCH   1  15
ATOM     15  C   UNL     1       6.605   4.680  17.289  0.00  0.00    +0.000 C 
ATOM     16  O   UNL     1       7.027   4.532  16.146  0.00  0.00    +0.000 OA
BRANCH  15  17
ATOM     17  O   UNL     1       7.363   4.487  18.411  0.00  0.00    +0.000 OA
BRANCH  17  19
ATOM     18  C   UNL     1       8.122   6.737  18.671  0.00  0.00    +0.000 C 
ATOM     19  C   UNL     1       7.390   5.583  19.332  0.00  0.00    +0.000 C 
ENDBRANCH  17  19
ENDBRANCH  15  17
ENDBRANCH   1  15
BRANCH   4  20
ATOM     20  C   UNL     1       1.687   4.314  18.267  0.00  0.00    +0.000 C 
ATOM     21  O   UNL     1       0.909   4.047  17.361  0.00  0.00    +0.000 OA
BRANCH  20  22
ATOM     22  O   UNL     1       1.381   4.209  19.592  0.00  0.00    +0.000 OA
BRANCH  22  23
ATOM     23  C   UNL     1       1.452   2.881  20.126  0.00  0.00    +0.000 C 
ATOM     24  C   UNL     1       2.373   2.857  21.332  0.00  0.00    +0.000 C 
ENDBRANCH  22  23
ENDBRANCH  20  22
ENDBRANCH   4  20
TORSDOF 8
ENDMDL
