MODEL 1
REMARK VINA RESULT:      -8.7      0.000      0.000
REMARK  Name = 
REMARK  3 active torsions:
REMARK  status: ('A' for Active; 'I' for Inactive)
REMARK    1  A    between atoms: C_1  and  C_2
REMARK    2  A    between atoms: C_8  and  C_9
REMARK    3  A    between atoms: C_18  and  C_19
REMARK                            x       y       z     vdW  Elec       q    Type
REMARK                         _______ _______ _______ _____ _____    ______ ____
ROOT
ATOM      1  C   UNL     1       8.293   5.472  12.694  0.00  0.00    +0.000 C 
ATOM      2  C   UNL     1       7.437   5.149  13.872  0.00  0.00    +0.000 A 
ATOM      3  N   UNL     1       7.731   5.681  15.123  0.00  0.00    +0.000 N 
ATOM      4  N   UNL     1       6.677   5.311  15.947  0.00  0.00    +0.000 N 
ATOM      5  C   UNL     1       6.541   5.686  17.254  0.00  0.00    +0.000 A 
ATOM      6  O   UNL     1       7.274   6.443  17.879  0.00  0.00    +0.000 OA
ATOM      7  C   UNL     1       5.350   5.075  17.882  0.00  0.00    +0.000 A 
ATOM      8  C   UNL     1       4.568   4.265  17.147  0.00  0.00    +0.000 A 
ATOM      9  N   UNL     1       4.779   3.929  15.822  0.00  0.00    +0.000 NA
ATOM     10  C   UNL     1       5.817   4.465  15.276  0.00  0.00    +0.000 A 
ATOM     11  C   UNL     1       6.340   4.360  13.885  0.00  0.00    +0.000 A 
ATOM     12  H   UNL     1       7.945   6.678  15.137  0.00  0.00    +0.000 HD
ENDROOT
BRANCH   8  13
ATOM     13  C   UNL     1       3.407   3.662  17.833  0.00  0.00    +0.000 A 
ATOM     14  C   UNL     1       3.423   2.277  18.066  0.00  0.00    +0.000 A 
ATOM     15  C   UNL     1       2.397   1.663  18.789  0.00  0.00    +0.000 A 
ATOM     16  C   UNL     1       1.338   2.424  19.279  0.00  0.00    +0.000 A 
ATOM     17  C   UNL     1       1.298   3.798  19.037  0.00  0.00    +0.000 A 
ATOM     18  C   UNL     1       2.326   4.417  18.317  0.00  0.00    +0.000 A 
ATOM     19 CL   UNL     1       2.220   6.127  18.074  0.00  0.00    +0.000 Cl
ENDBRANCH   8  13
BRANCH  11  20
ATOM     20  C   UNL     1       5.743   3.593  12.807  0.00  0.00    +0.000 A 
ATOM     21  C   UNL     1       6.401   2.459  12.319  0.00  0.00    +0.000 A 
ATOM     22  C   UNL     1       5.838   1.704  11.289  0.00  0.00    +0.000 A 
ATOM     23  C   UNL     1       4.615   2.082  10.739  0.00  0.00    +0.000 A 
ATOM     24  C   UNL     1       3.957   3.216  11.212  0.00  0.00    +0.000 A 
ATOM     25  C   UNL     1       4.519   3.973  12.244  0.00  0.00    +0.000 A 
ENDBRANCH  11  20
TORSDOF 2
ENDMDL
MODEL 2
REMARK VINA RESULT:      -8.2      1.109      1.705
REMARK  Name = 
REMARK  3 active torsions:
REMARK  status: ('A' for Active; 'I' for Inactive)
REMARK    1  A    between atoms: C_1  and  C_2
REMARK    2  A    between atoms: C_8  and  C_9
REMARK    3  A    between atoms: C_18  and  C_19
REMARK                            x       y       z     vdW  Elec       q    Type
REMARK                         _______ _______ _______ _____ _____    ______ ____
ROOT
ATOM      1  C   UNL     1       8.279   5.529  12.934  0.00  0.00    +0.000 C 
ATOM      2  C   UNL     1       7.387   5.216  14.087  0.00  0.00    +0.000 A 
ATOM      3  N   UNL     1       7.641   5.758  15.342  0.00  0.00    +0.000 N 
ATOM      4  N   UNL     1       6.561   5.395  16.135  0.00  0.00    +0.000 N 
ATOM      5  C   UNL     1       6.384   5.781  17.435  0.00  0.00    +0.000 A 
ATOM      6  O   UNL     1       7.097   6.544  18.075  0.00  0.00    +0.000 OA
ATOM      7  C   UNL     1       5.174   5.174  18.030  0.00  0.00    +0.000 A 
ATOM      8  C   UNL     1       4.416   4.357  17.277  0.00  0.00    +0.000 A 
ATOM      9  N   UNL     1       4.669   4.010  15.963  0.00  0.00    +0.000 NA
ATOM     10  C   UNL     1       5.723   4.542  15.445  0.00  0.00    +0.000 A 
ATOM     11  C   UNL     1       6.290   4.426  14.072  0.00  0.00    +0.000 A 
ATOM     12  H   UNL     1       7.853   6.755  15.354  0.00  0.00    +0.000 HD
ENDROOT
BRANCH   8  13
ATOM     13  C   UNL     1       3.235   3.759  17.931  0.00  0.00    +0.000 A 
ATOM     14  C   UNL     1       1.963   4.186  17.515  0.00  0.00    +0.000 A 
ATOM     15  C   UNL     1       0.807   3.594  18.031  0.00  0.00    +0.000 A 
ATOM     16  C   UNL     1       0.909   2.575  18.975  0.00  0.00    +0.000 A 
ATOM     17  C   UNL     1       2.165   2.153  19.412  0.00  0.00    +0.000 A 
ATOM     18  C   UNL     1       3.325   2.741  18.895  0.00  0.00    +0.000 A 
ATOM     19 CL   UNL     1       4.848   2.155  19.468  0.00  0.00    +0.000 Cl
ENDBRANCH   8  13
BRANCH  11  20
ATOM     20  C   UNL     1       5.728   3.649  12.982  0.00  0.00    +0.000 A 
ATOM     21  C   UNL     1       4.493   4.018  12.437  0.00  0.00    +0.000 A 
ATOM     22  C   UNL     1       3.940   3.290  11.382  0.00  0.00    +0.000 A 
ATOM     23  C   UNL     1       4.618   2.186  10.870  0.00  0.00    +0.000 A 
ATOM     24  C   UNL     1       5.844   1.805  11.414  0.00  0.00    +0.000 A 
ATOM     25  C   UNL     1       6.399   2.534  12.468  0.00  0.00    +0.000 A 
ENDBRANCH  11  20
TORSDOF 2
ENDMDL
MODEL 3
REMARK VINA RESULT:      -7.3      5.316      7.927
REMARK  Name = 
REMARK  3 active torsions:
REMARK  status: ('A' for Active; 'I' for Inactive)
REMARK    1  A    between atoms: C_1  and  C_2
REMARK    2  A    between atoms: C_8  and  C_9
REMARK    3  A    between atoms: C_18  and  C_19
REMARK                            x       y       z     vdW  Elec       q    Type
REMARK                         _______ _______ _______ _____ _____    ______ ____
ROOT
ATOM      1  C   UNL     1       3.930   5.176  17.162  0.00  0.00    +0.000 C 
ATOM      2  C   UNL     1       3.257   6.292  17.886  0.00  0.00    +0.000 A 
ATOM      3  N   UNL     1       3.410   7.606  17.456  0.00  0.00    +0.000 N 
ATOM      4  N   UNL     1       2.552   8.362  18.241  0.00  0.00    +0.000 N 
ATOM      5  C   UNL     1       2.348   9.707  18.100  0.00  0.00    +0.000 A 
ATOM      6  O   UNL     1       2.828  10.434  17.239  0.00  0.00    +0.000 OA
ATOM      7  C   UNL     1       1.429  10.236  19.130  0.00  0.00    +0.000 A 
ATOM      8  C   UNL     1       0.916   9.392  20.043  0.00  0.00    +0.000 A 
ATOM      9  N   UNL     1       1.178   8.036  20.120  0.00  0.00    +0.000 NA
ATOM     10  C   UNL     1       1.978   7.577  19.221  0.00  0.00    +0.000 A 
ATOM     11  C   UNL     1       2.462   6.189  18.975  0.00  0.00    +0.000 A 
ATOM     12  H   UNL     1       3.303   7.754  16.453  0.00  0.00    +0.000 HD
ENDROOT
BRANCH   8  13
ATOM     13  C   UNL     1       0.024   9.980  21.063  0.00  0.00    +0.000 A 
ATOM     14  C   UNL     1       0.083   9.464  22.368  0.00  0.00    +0.000 A 
ATOM     15  C   UNL     1      -0.669  10.038  23.397  0.00  0.00    +0.000 A 
ATOM     16  C   UNL     1      -1.497  11.127  23.131  0.00  0.00    +0.000 A 
ATOM     17  C   UNL     1      -1.581  11.637  21.835  0.00  0.00    +0.000 A 
ATOM     18  C   UNL     1      -0.826  11.068  20.803  0.00  0.00    +0.000 A 
ATOM     19 CL   UNL     1      -0.965  11.765  19.225  0.00  0.00    +0.000 Cl
ENDBRANCH   8  13
BRANCH  11  20
ATOM     20  C   UNL     1       2.099   5.013  19.744  0.00  0.00    +0.000 A 
ATOM     21  C   UNL     1       1.221   4.072  19.194  0.00  0.00    +0.000 A 
ATOM     22  C   UNL     1       0.868   2.930  19.914  0.00  0.00    +0.000 A 
ATOM     23  C   UNL     1       1.388   2.724  21.190  0.00  0.00    +0.000 A 
ATOM     24  C   UNL     1       2.255   3.662  21.750  0.00  0.00    +0.000 A 
ATOM     25  C   UNL     1       2.611   4.805  21.030  0.00  0.00    +0.000 A 
ENDBRANCH  11  20
TORSDOF 2
ENDMDL
MODEL 4
REMARK VINA RESULT:      -7.2      8.410     10.677
REMARK  Name = 
REMARK  3 active torsions:
REMARK  status: ('A' for Active; 'I' for Inactive)
REMARK    1  A    between atoms: C_1  and  C_2
REMARK    2  A    between atoms: C_8  and  C_9
REMARK    3  A    between atoms: C_18  and  C_19
REMARK                            x       y       z     vdW  Elec       q    Type
REMARK                         _______ _______ _______ _____ _____    ______ ____
ROOT
ATOM      1  C   UNL     1      -0.036  16.178  18.762  0.00  0.00    +0.000 C 
ATOM      2  C   UNL     1       0.079  14.695  18.872  0.00  0.00    +0.000 A 
ATOM      3  N   UNL     1      -1.063  13.901  18.917  0.00  0.00    +0.000 N 
ATOM      4  N   UNL     1      -0.611  12.589  18.870  0.00  0.00    +0.000 N 
ATOM      5  C   UNL     1      -1.420  11.488  18.828  0.00  0.00    +0.000 A 
ATOM      6  O   UNL     1      -2.644  11.480  18.763  0.00  0.00    +0.000 OA
ATOM      7  C   UNL     1      -0.642  10.231  18.855  0.00  0.00    +0.000 A 
ATOM      8  C   UNL     1       0.700  10.296  18.911  0.00  0.00    +0.000 A 
ATOM      9  N   UNL     1       1.447  11.458  18.955  0.00  0.00    +0.000 NA
ATOM     10  C   UNL     1       0.768  12.553  18.930  0.00  0.00    +0.000 A 
ATOM     11  C   UNL     1       1.219  13.972  18.936  0.00  0.00    +0.000 A 
ATOM     12  H   UNL     1      -1.778  14.124  18.226  0.00  0.00    +0.000 HD
ENDROOT
BRANCH   8  13
ATOM     13  C   UNL     1       1.424   9.009  18.961  0.00  0.00    +0.000 A 
ATOM     14  C   UNL     1       2.158   8.620  17.829  0.00  0.00    +0.000 A 
ATOM     15  C   UNL     1       2.936   7.459  17.847  0.00  0.00    +0.000 A 
ATOM     16  C   UNL     1       2.983   6.670  18.994  0.00  0.00    +0.000 A 
ATOM     17  C   UNL     1       2.243   7.034  20.120  0.00  0.00    +0.000 A 
ATOM     18  C   UNL     1       1.466   8.197  20.106  0.00  0.00    +0.000 A 
ATOM     19 CL   UNL     1       0.591   8.597  21.545  0.00  0.00    +0.000 Cl
ENDBRANCH   8  13
BRANCH  11  20
ATOM     20  C   UNL     1       2.598  14.426  18.966  0.00  0.00    +0.000 A 
ATOM     21  C   UNL     1       3.274  14.500  20.189  0.00  0.00    +0.000 A 
ATOM     22  C   UNL     1       4.603  14.924  20.236  0.00  0.00    +0.000 A 
ATOM     23  C   UNL     1       5.261  15.282  19.061  0.00  0.00    +0.000 A 
ATOM     24  C   UNL     1       4.592  15.222  17.840  0.00  0.00    +0.000 A 
ATOM     25  C   UNL     1       3.262  14.795  17.790  0.00  0.00    +0.000 A 
ENDBRANCH  11  20
TORSDOF 2
ENDMDL
MODEL 5
REMARK VINA RESULT:      -7.1      8.564     10.826
REMARK  Name = 
REMARK  3 active torsions:
REMARK  status: ('A' for Active; 'I' for Inactive)
REMARK    1  A    between atoms: C_1  and  C_2
REMARK    2  A    between atoms: C_8  and  C_9
REMARK    3  A    between atoms: C_18  and  C_19
REMARK                            x       y       z     vdW  Elec       q    Type
REMARK                         _______ _______ _______ _____ _____    ______ ____
ROOT
ATOM      1  C   UNL     1       0.165  16.442  18.855  0.00  0.00    +0.000 C 
ATOM      2  C   UNL     1       0.225  14.954  18.925  0.00  0.00    +0.000 A 
ATOM      3  N   UNL     1      -0.944  14.200  18.905  0.00  0.00    +0.000 N 
ATOM      4  N   UNL     1      -0.536  12.875  18.835  0.00  0.00    +0.000 N 
ATOM      5  C   UNL     1      -1.380  11.804  18.732  0.00  0.00    +0.000 A 
ATOM      6  O   UNL     1      -2.599  11.841  18.622  0.00  0.00    +0.000 OA
ATOM      7  C   UNL     1      -0.646  10.521  18.750  0.00  0.00    +0.000 A 
ATOM      8  C   UNL     1       0.695  10.537  18.856  0.00  0.00    +0.000 A 
ATOM      9  N   UNL     1       1.479  11.670  18.962  0.00  0.00    +0.000 NA
ATOM     10  C   UNL     1       0.838  12.788  18.944  0.00  0.00    +0.000 A 
ATOM     11  C   UNL     1       1.337  14.191  19.008  0.00  0.00    +0.000 A 
ATOM     12  H   UNL     1      -1.625  14.467  18.195  0.00  0.00    +0.000 HD
ENDROOT
BRANCH   8  13
ATOM     13  C   UNL     1       1.373   9.225  18.894  0.00  0.00    +0.000 A 
ATOM     14  C   UNL     1       2.087   8.817  17.756  0.00  0.00    +0.000 A 
ATOM     15  C   UNL     1       2.824   7.629  17.763  0.00  0.00    +0.000 A 
ATOM     16  C   UNL     1       2.846   6.831  18.904  0.00  0.00    +0.000 A 
ATOM     17  C   UNL     1       2.125   7.213  20.036  0.00  0.00    +0.000 A 
ATOM     18  C   UNL     1       1.390   8.404  20.033  0.00  0.00    +0.000 A 
ATOM     19 CL   UNL     1       0.536   8.824  21.479  0.00  0.00    +0.000 Cl
ENDBRANCH   8  13
BRANCH  11  20
ATOM     20  C   UNL     1       2.728  14.595  19.101  0.00  0.00    +0.000 A 
ATOM     21  C   UNL     1       3.494  14.707  17.936  0.00  0.00    +0.000 A 
ATOM     22  C   UNL     1       4.831  15.104  18.004  0.00  0.00    +0.000 A 
ATOM     23  C   UNL     1       5.410  15.386  19.240  0.00  0.00    +0.000 A 
ATOM     24  C   UNL     1       4.656  15.267  20.407  0.00  0.00    +0.000 A 
ATOM     25  C   UNL     1       3.318  14.872  20.340  0.00  0.00    +0.000 A 
ENDBRANCH  11  20
TORSDOF 2
ENDMDL
MODEL 6
REMARK VINA RESULT:      -7.1      5.389      8.608
REMARK  Name = 
REMARK  3 active torsions:
REMARK  status: ('A' for Active; 'I' for Inactive)
REMARK    1  A    between atoms: C_1  and  C_2
REMARK    2  A    between atoms: C_8  and  C_9
REMARK    3  A    between atoms: C_18  and  C_19
REMARK                            x       y       z     vdW  Elec       q    Type
REMARK                         _______ _______ _______ _____ _____    ______ ____
ROOT
ATOM      1  C   UNL     1       1.449  12.172  18.772  0.00  0.00    +0.000 C 
ATOM      2  C   UNL     1       1.610  10.690  18.797  0.00  0.00    +0.000 A 
ATOM      3  N   UNL     1       2.302  10.039  17.781  0.00  0.00    +0.000 N 
ATOM      4  N   UNL     1       2.393   8.712  18.177  0.00  0.00    +0.000 N 
ATOM      5  C   UNL     1       3.058   7.736  17.487  0.00  0.00    +0.000 A 
ATOM      6  O   UNL     1       3.718   7.883  16.466  0.00  0.00    +0.000 OA
ATOM      7  C   UNL     1       2.914   6.412  18.129  0.00  0.00    +0.000 A 
ATOM      8  C   UNL     1       2.192   6.310  19.259  0.00  0.00    +0.000 A 
ATOM      9  N   UNL     1       1.542   7.351  19.895  0.00  0.00    +0.000 NA
ATOM     10  C   UNL     1       1.670   8.505  19.335  0.00  0.00    +0.000 A 
ATOM     11  C   UNL     1       1.145   9.840  19.739  0.00  0.00    +0.000 A 
ATOM     12  H   UNL     1       3.191  10.460  17.516  0.00  0.00    +0.000 HD
ENDROOT
BRANCH   8  13
ATOM     13  C   UNL     1       2.061   4.959  19.842  0.00  0.00    +0.000 A 
ATOM     14  C   UNL     1       2.373   4.793  21.201  0.00  0.00    +0.000 A 
ATOM     15  C   UNL     1       2.184   3.561  21.832  0.00  0.00    +0.000 A 
ATOM     16  C   UNL     1       1.689   2.477  21.109  0.00  0.00    +0.000 A 
ATOM     17  C   UNL     1       1.394   2.621  19.753  0.00  0.00    +0.000 A 
ATOM     18  C   UNL     1       1.579   3.855  19.120  0.00  0.00    +0.000 A 
ATOM     19 CL   UNL     1       1.172   3.966  17.441  0.00  0.00    +0.000 Cl
ENDBRANCH   8  13
BRANCH  11  20
ATOM     20  C   UNL     1       0.345  10.118  20.918  0.00  0.00    +0.000 A 
ATOM     21  C   UNL     1       0.590   9.412  22.101  0.00  0.00    +0.000 A 
ATOM     22  C   UNL     1      -0.162   9.672  23.248  0.00  0.00    +0.000 A 
ATOM     23  C   UNL     1      -1.167  10.637  23.215  0.00  0.00    +0.000 A 
ATOM     24  C   UNL     1      -1.425  11.337  22.038  0.00  0.00    +0.000 A 
ATOM     25  C   UNL     1      -0.672  11.079  20.889  0.00  0.00    +0.000 A 
ENDBRANCH  11  20
TORSDOF 2
ENDMDL
MODEL 7
REMARK VINA RESULT:      -7.1      5.420      8.661
REMARK  Name = 
REMARK  3 active torsions:
REMARK  status: ('A' for Active; 'I' for Inactive)
REMARK    1  A    between atoms: C_1  and  C_2
REMARK    2  A    between atoms: C_8  and  C_9
REMARK    3  A    between atoms: C_18  and  C_19
REMARK                            x       y       z     vdW  Elec       q    Type
REMARK                         _______ _______ _______ _____ _____    ______ ____
ROOT
ATOM      1  C   UNL     1       1.189  12.057  18.664  0.00  0.00    +0.000 C 
ATOM      2  C   UNL     1       1.471  10.595  18.738  0.00  0.00    +0.000 A 
ATOM      3  N   UNL     1       2.149   9.955  17.706  0.00  0.00    +0.000 N 
ATOM      4  N   UNL     1       2.372   8.659  18.148  0.00  0.00    +0.000 N 
ATOM      5  C   UNL     1       3.070   7.708  17.456  0.00  0.00    +0.000 A 
ATOM      6  O   UNL     1       3.653   7.860  16.389  0.00  0.00    +0.000 OA
ATOM      7  C   UNL     1       3.074   6.407  18.158  0.00  0.00    +0.000 A 
ATOM      8  C   UNL     1       2.433   6.299  19.335  0.00  0.00    +0.000 A 
ATOM      9  N   UNL     1       1.742   7.314  19.970  0.00  0.00    +0.000 NA
ATOM     10  C   UNL     1       1.740   8.448  19.358  0.00  0.00    +0.000 A 
ATOM     11  C   UNL     1       1.135   9.754  19.741  0.00  0.00    +0.000 A 
ATOM     12  H   UNL     1       2.984  10.433  17.368  0.00  0.00    +0.000 HD
ENDROOT
BRANCH   8  13
ATOM     13  C   UNL     1       2.449   4.970  19.979  0.00  0.00    +0.000 A 
ATOM     14  C   UNL     1       1.257   4.501  20.555  0.00  0.00    +0.000 A 
ATOM     15  C   UNL     1       1.184   3.215  21.099  0.00  0.00    +0.000 A 
ATOM     16  C   UNL     1       2.305   2.387  21.081  0.00  0.00    +0.000 A 
ATOM     17  C   UNL     1       3.502   2.847  20.530  0.00  0.00    +0.000 A 
ATOM     18  C   UNL     1       3.576   4.132  19.981  0.00  0.00    +0.000 A 
ATOM     19 CL   UNL     1       5.087   4.627  19.297  0.00  0.00    +0.000 Cl
ENDBRANCH   8  13
BRANCH  11  20
ATOM     20  C   UNL     1       0.389  10.021  20.958  0.00  0.00    +0.000 A 
ATOM     21  C   UNL     1      -0.568  11.042  20.971  0.00  0.00    +0.000 A 
ATOM     22  C   UNL     1      -1.303  11.307  22.127  0.00  0.00    +0.000 A 
ATOM     23  C   UNL     1      -1.080  10.555  23.279  0.00  0.00    +0.000 A 
ATOM     24  C   UNL     1      -0.122   9.543  23.278  0.00  0.00    +0.000 A 
ATOM     25  C   UNL     1       0.613   9.275  22.121  0.00  0.00    +0.000 A 
ENDBRANCH  11  20
TORSDOF 2
ENDMDL
MODEL 8
REMARK VINA RESULT:      -6.9      8.712     11.225
REMARK  Name = 
REMARK  3 active torsions:
REMARK  status: ('A' for Active; 'I' for Inactive)
REMARK    1  A    between atoms: C_1  and  C_2
REMARK    2  A    between atoms: C_8  and  C_9
REMARK    3  A    between atoms: C_18  and  C_19
REMARK                            x       y       z     vdW  Elec       q    Type
REMARK                         _______ _______ _______ _____ _____    ______ ____
ROOT
ATOM      1  C   UNL     1      -1.995  10.668  18.427  0.00  0.00    +0.000 C 
ATOM      2  C   UNL     1      -0.842  11.611  18.492  0.00  0.00    +0.000 A 
ATOM      3  N   UNL     1      -1.039  12.977  18.322  0.00  0.00    +0.000 N 
ATOM      4  N   UNL     1       0.188  13.571  18.583  0.00  0.00    +0.000 N 
ATOM      5  C   UNL     1       0.417  14.919  18.590  0.00  0.00    +0.000 A 
ATOM      6  O   UNL     1      -0.416  15.803  18.433  0.00  0.00    +0.000 OA
ATOM      7  C   UNL     1       1.840  15.235  18.833  0.00  0.00    +0.000 A 
ATOM      8  C   UNL     1       2.711  14.227  19.015  0.00  0.00    +0.000 A 
ATOM      9  N   UNL     1       2.398  12.880  18.989  0.00  0.00    +0.000 NA
ATOM     10  C   UNL     1       1.157  12.606  18.778  0.00  0.00    +0.000 A 
ATOM     11  C   UNL     1       0.454  11.294  18.710  0.00  0.00    +0.000 A 
ATOM     12  H   UNL     1      -1.818  13.376  18.845  0.00  0.00    +0.000 HD
ENDROOT
BRANCH   8  13
ATOM     13  C   UNL     1       4.124  14.601  19.229  0.00  0.00    +0.000 A 
ATOM     14  C   UNL     1       4.953  14.722  18.101  0.00  0.00    +0.000 A 
ATOM     15  C   UNL     1       6.273  15.161  18.230  0.00  0.00    +0.000 A 
ATOM     16  C   UNL     1       6.784  15.473  19.488  0.00  0.00    +0.000 A 
ATOM     17  C   UNL     1       5.979  15.338  20.619  0.00  0.00    +0.000 A 
ATOM     18  C   UNL     1       4.654  14.903  20.493  0.00  0.00    +0.000 A 
ATOM     19 CL   UNL     1       3.708  14.779  21.937  0.00  0.00    +0.000 Cl
ENDBRANCH   8  13
BRANCH  11  20
ATOM     20  C   UNL     1       1.068   9.990  18.885  0.00  0.00    +0.000 A 
ATOM     21  C   UNL     1       0.997   9.355  20.129  0.00  0.00    +0.000 A 
ATOM     22  C   UNL     1       1.572   8.097  20.314  0.00  0.00    +0.000 A 
ATOM     23  C   UNL     1       2.226   7.469  19.255  0.00  0.00    +0.000 A 
ATOM     24  C   UNL     1       2.310   8.100  18.015  0.00  0.00    +0.000 A 
ATOM     25  C   UNL     1       1.733   9.359  17.828  0.00  0.00    +0.000 A 
ENDBRANCH  11  20
TORSDOF 2
ENDMDL
MODEL 9
REMARK VINA RESULT:      -6.8      3.703      5.883
REMARK  Name = 
REMARK  3 active torsions:
REMARK  status: ('A' for Active; 'I' for Inactive)
REMARK    1  A    between atoms: C_1  and  C_2
REMARK    2  A    between atoms: C_8  and  C_9
REMARK    3  A    between atoms: C_18  and  C_19
REMARK                            x       y       z     vdW  Elec       q    Type
REMARK                         _______ _______ _______ _____ _____    ______ ____
ROOT
ATOM      1  C   UNL     1       4.627   1.251  18.543  0.00  0.00    +0.000 C 
ATOM      2  C   UNL     1       3.910   2.537  18.779  0.00  0.00    +0.000 A 
ATOM      3  N   UNL     1       2.869   2.604  19.699  0.00  0.00    +0.000 N 
ATOM      4  N   UNL     1       2.526   3.947  19.782  0.00  0.00    +0.000 N 
ATOM      5  C   UNL     1       1.582   4.459  20.627  0.00  0.00    +0.000 A 
ATOM      6  O   UNL     1       0.945   3.843  21.473  0.00  0.00    +0.000 OA
ATOM      7  C   UNL     1       1.397   5.913  20.431  0.00  0.00    +0.000 A 
ATOM      8  C   UNL     1       2.134   6.545  19.500  0.00  0.00    +0.000 A 
ATOM      9  N   UNL     1       3.071   5.949  18.677  0.00  0.00    +0.000 NA
ATOM     10  C   UNL     1       3.232   4.682  18.851  0.00  0.00    +0.000 A 
ATOM     11  C   UNL     1       4.155   3.723  18.180  0.00  0.00    +0.000 A 
ATOM     12  H   UNL     1       3.049   2.161  20.598  0.00  0.00    +0.000 HD
ENDROOT
BRANCH   8  13
ATOM     13  C   UNL     1       1.888   7.991  19.330  0.00  0.00    +0.000 A 
ATOM     14  C   UNL     1       2.211   8.575  18.094  0.00  0.00    +0.000 A 
ATOM     15  C   UNL     1       1.920   9.918  17.840  0.00  0.00    +0.000 A 
ATOM     16  C   UNL     1       1.311  10.696  18.823  0.00  0.00    +0.000 A 
ATOM     17  C   UNL     1       1.002  10.135  20.063  0.00  0.00    +0.000 A 
ATOM     18  C   UNL     1       1.289   8.789  20.318  0.00  0.00    +0.000 A 
ATOM     19 CL   UNL     1       0.860   8.156  21.871  0.00  0.00    +0.000 Cl
ENDBRANCH   8  13
BRANCH  11  20
ATOM     20  C   UNL     1       5.115   4.051  17.142  0.00  0.00    +0.000 A 
ATOM     21  C   UNL     1       6.411   4.441  17.498  0.00  0.00    +0.000 A 
ATOM     22  C   UNL     1       7.351   4.751  16.514  0.00  0.00    +0.000 A 
ATOM     23  C   UNL     1       6.998   4.677  15.168  0.00  0.00    +0.000 A 
ATOM     24  C   UNL     1       5.706   4.300  14.805  0.00  0.00    +0.000 A 
ATOM     25  C   UNL     1       4.764   3.988  15.788  0.00  0.00    +0.000 A 
ENDBRANCH  11  20
TORSDOF 2
ENDMDL
