MODEL 1
REMARK VINA RESULT:      -6.6      0.000      0.000
REMARK  Name = 
REMARK  9 active torsions:
REMARK  status: ('A' for Active; 'I' for Inactive)
REMARK    1  A    between atoms: C_1  and  N_2
REMARK    2  A    between atoms: C_5  and  C_6
REMARK    3  A    between atoms: N_11  and  C_12
REMARK    4  A    between atoms: C_12  and  C_13
REMARK    5  A    between atoms: C_13  and  O_14
REMARK    6  A    between atoms: C_13  and  C_15
REMARK    7  A    between atoms: C_15  and  C_16
REMARK    8  A    between atoms: C_15  and  C_17
REMARK    9  A    between atoms: C_15  and  C_18
REMARK                            x       y       z     vdW  Elec       q    Type
REMARK                         _______ _______ _______ _____ _____    ______ ____
ROOT
ATOM      1  C   UNL     1       2.861   6.552  19.029  0.00  0.00    +0.000 C 
ATOM      2  O   UNL     1       2.680   5.789  19.983  0.00  0.00    +0.000 OA
ATOM      3  N   UNL     1       2.163   7.743  18.931  0.00  0.00    +0.000 N 
ATOM      4  C   UNL     1       1.386   8.144  20.111  0.00  0.00    +0.000 C 
ATOM      5  C   UNL     1       1.345   9.677  20.255  0.00  0.00    +0.000 C 
ATOM      6  N   UNL     1       0.856  10.383  19.050  0.00  0.00    +0.000 NA
ATOM      7  C   UNL     1       1.688   9.955  17.894  0.00  0.00    +0.000 C 
ATOM      8  C   UNL     1       1.748   8.419  17.691  0.00  0.00    +0.000 C 
ENDROOT
BRANCH   1  13
ATOM      9  C   UNL     1       6.953   4.664  15.473  0.00  0.00    +0.000 C 
ATOM     10  N   UNL     1       5.906   5.177  16.336  0.00  0.00    +0.000 N 
ATOM     11  C   UNL     1       4.784   4.416  16.592  0.00  0.00    +0.000 A 
ATOM     12  C   UNL     1       3.804   4.882  17.373  0.00  0.00    +0.000 A 
ATOM     13  C   UNL     1       3.917   6.180  18.024  0.00  0.00    +0.000 A 
ATOM     14  C   UNL     1       5.047   6.887  17.849  0.00  0.00    +0.000 A 
ATOM     15  C   UNL     1       6.082   6.441  16.885  0.00  0.00    +0.000 A 
ATOM     16  O   UNL     1       7.030   7.186  16.641  0.00  0.00    +0.000 OA
ENDBRANCH   1  13
BRANCH   6  17
ATOM     17  C   UNL     1      -0.572  10.122  18.765  0.00  0.00    +0.000 C 
BRANCH  17  18
ATOM     18  C   UNL     1      -1.465  11.348  18.431  0.00  0.00    +0.000 C 
BRANCH  18  19
ATOM     19  C   UNL     1      -2.763  10.973  17.648  0.00  0.00    +0.000 C 
ATOM     20  C   UNL     1      -3.102   9.480  17.832  0.00  0.00    +0.000 C 
ATOM     21  C   UNL     1      -3.941  11.799  18.204  0.00  0.00    +0.000 C 
ATOM     22  C   UNL     1      -2.627  11.271  16.144  0.00  0.00    +0.000 C 
ENDBRANCH  18  19
BRANCH  18  23
ATOM     23  O   UNL     1      -0.719  12.322  17.694  0.00  0.00    +0.000 OA
ATOM     24  H   UNL     1      -0.308  11.873  16.935  0.00  0.00    +0.000 HD
ENDBRANCH  18  23
ENDBRANCH  17  18
ENDBRANCH   6  17
TORSDOF 5
ENDMDL
MODEL 2
REMARK VINA RESULT:      -6.5      0.618      1.109
REMARK  Name = 
REMARK  9 active torsions:
REMARK  status: ('A' for Active; 'I' for Inactive)
REMARK    1  A    between atoms: C_1  and  N_2
REMARK    2  A    between atoms: C_5  and  C_6
REMARK    3  A    between atoms: N_11  and  C_12
REMARK    4  A    between atoms: C_12  and  C_13
REMARK    5  A    between atoms: C_13  and  O_14
REMARK    6  A    between atoms: C_13  and  C_15
REMARK    7  A    between atoms: C_15  and  C_16
REMARK    8  A    between atoms: C_15  and  C_17
REMARK    9  A    between atoms: C_15  and  C_18
REMARK                            x       y       z     vdW  Elec       q    Type
REMARK                         _______ _______ _______ _____ _____    ______ ____
ROOT
ATOM      1  C   UNL     1       2.468   6.866  19.258  0.00  0.00    +0.000 C 
ATOM      2  O   UNL     1       2.408   6.271  20.339  0.00  0.00    +0.000 OA
ATOM      3  N   UNL     1       1.776   8.048  19.059  0.00  0.00    +0.000 N 
ATOM      4  C   UNL     1       1.167   8.657  20.248  0.00  0.00    +0.000 C 
ATOM      5  C   UNL     1       1.162  10.193  20.145  0.00  0.00    +0.000 C 
ATOM      6  N   UNL     1       0.523  10.713  18.915  0.00  0.00    +0.000 NA
ATOM      7  C   UNL     1       1.189  10.078  17.746  0.00  0.00    +0.000 C 
ATOM      8  C   UNL     1       1.206   8.529  17.790  0.00  0.00    +0.000 C 
ENDROOT
BRANCH   1  13
ATOM      9  C   UNL     1       6.046   4.314  15.565  0.00  0.00    +0.000 C 
ATOM     10  N   UNL     1       5.124   4.988  16.459  0.00  0.00    +0.000 N 
ATOM     11  C   UNL     1       4.065   4.297  17.011  0.00  0.00    +0.000 A 
ATOM     12  C   UNL     1       3.198   4.908  17.824  0.00  0.00    +0.000 A 
ATOM     13  C   UNL     1       3.377   6.304  18.198  0.00  0.00    +0.000 A 
ATOM     14  C   UNL     1       4.456   6.957  17.733  0.00  0.00    +0.000 A 
ATOM     15  C   UNL     1       5.351   6.331  16.731  0.00  0.00    +0.000 A 
ATOM     16  O   UNL     1       6.239   7.010  16.218  0.00  0.00    +0.000 OA
ENDBRANCH   1  13
BRANCH   6  17
ATOM     17  C   UNL     1      -0.932  10.454  18.864  0.00  0.00    +0.000 C 
BRANCH  17  18
ATOM     18  C   UNL     1      -1.825  11.552  18.223  0.00  0.00    +0.000 C 
BRANCH  18  19
ATOM     19  C   UNL     1      -3.021  10.974  17.400  0.00  0.00    +0.000 C 
ATOM     20  C   UNL     1      -4.317  11.755  17.695  0.00  0.00    +0.000 C 
ATOM     21  C   UNL     1      -2.711  11.118  15.897  0.00  0.00    +0.000 C 
ATOM     22  C   UNL     1      -3.255   9.485  17.709  0.00  0.00    +0.000 C 
ENDBRANCH  18  19
BRANCH  18  23
ATOM     23  O   UNL     1      -1.039  12.415  17.395  0.00  0.00    +0.000 OA
ATOM     24  H   UNL     1      -0.139  12.443  17.763  0.00  0.00    +0.000 HD
ENDBRANCH  18  23
ENDBRANCH  17  18
ENDBRANCH   6  17
TORSDOF 5
ENDMDL
MODEL 3
REMARK VINA RESULT:      -6.4      2.918      4.159
REMARK  Name = 
REMARK  9 active torsions:
REMARK  status: ('A' for Active; 'I' for Inactive)
REMARK    1  A    between atoms: C_1  and  N_2
REMARK    2  A    between atoms: C_5  and  C_6
REMARK    3  A    between atoms: N_11  and  C_12
REMARK    4  A    between atoms: C_12  and  C_13
REMARK    5  A    between atoms: C_13  and  O_14
REMARK    6  A    between atoms: C_13  and  C_15
REMARK    7  A    between atoms: C_15  and  C_16
REMARK    8  A    between atoms: C_15  and  C_17
REMARK    9  A    between atoms: C_15  and  C_18
REMARK                            x       y       z     vdW  Elec       q    Type
REMARK                         _______ _______ _______ _____ _____    ______ ____
ROOT
ATOM      1  C   UNL     1       2.379   7.775  18.358  0.00  0.00    +0.000 C 
ATOM      2  O   UNL     1       2.867   8.299  17.351  0.00  0.00    +0.000 OA
ATOM      3  N   UNL     1       1.576   8.503  19.218  0.00  0.00    +0.000 N 
ATOM      4  C   UNL     1       1.162   9.834  18.758  0.00  0.00    +0.000 C 
ATOM      5  C   UNL     1      -0.239  10.194  19.284  0.00  0.00    +0.000 C 
ATOM      6  N   UNL     1      -0.377  10.091  20.754  0.00  0.00    +0.000 NA
ATOM      7  C   UNL     1       0.037   8.721  21.161  0.00  0.00    +0.000 C 
ATOM      8  C   UNL     1       1.451   8.315  20.673  0.00  0.00    +0.000 C 
ENDROOT
BRANCH   1  13
ATOM      9  C   UNL     1       3.803   2.245  18.939  0.00  0.00    +0.000 C 
ATOM     10  N   UNL     1       3.405   3.634  18.826  0.00  0.00    +0.000 N 
ATOM     11  C   UNL     1       4.216   4.631  19.328  0.00  0.00    +0.000 A 
ATOM     12  C   UNL     1       3.854   5.915  19.246  0.00  0.00    +0.000 A 
ATOM     13  C   UNL     1       2.624   6.305  18.571  0.00  0.00    +0.000 A 
ATOM     14  C   UNL     1       1.874   5.345  18.003  0.00  0.00    +0.000 A 
ATOM     15  C   UNL     1       2.196   3.911  18.199  0.00  0.00    +0.000 A 
ATOM     16  O   UNL     1       1.406   3.061  17.792  0.00  0.00    +0.000 OA
ENDBRANCH   1  13
BRANCH   6  17
ATOM     17  C   UNL     1       0.429  11.095  21.482  0.00  0.00    +0.000 C 
BRANCH  17  18
ATOM     18  C   UNL     1      -0.188  12.512  21.650  0.00  0.00    +0.000 C 
BRANCH  18  19
ATOM     19  C   UNL     1       0.603  13.624  20.890  0.00  0.00    +0.000 C 
ATOM     20  C   UNL     1      -0.152  14.063  19.620  0.00  0.00    +0.000 C 
ATOM     21  C   UNL     1       0.744  14.855  21.808  0.00  0.00    +0.000 C 
ATOM     22  C   UNL     1       2.012  13.149  20.494  0.00  0.00    +0.000 C 
ENDBRANCH  18  19
BRANCH  18  23
ATOM     23  O   UNL     1      -0.290  12.850  23.037  0.00  0.00    +0.000 OA
ATOM     24  H   UNL     1       0.409  12.370  23.514  0.00  0.00    +0.000 HD
ENDBRANCH  18  23
ENDBRANCH  17  18
ENDBRANCH   6  17
TORSDOF 5
ENDMDL
MODEL 4
REMARK VINA RESULT:      -6.3      2.712      3.963
REMARK  Name = 
REMARK  9 active torsions:
REMARK  status: ('A' for Active; 'I' for Inactive)
REMARK    1  A    between atoms: C_1  and  N_2
REMARK    2  A    between atoms: C_5  and  C_6
REMARK    3  A    between atoms: N_11  and  C_12
REMARK    4  A    between atoms: C_12  and  C_13
REMARK    5  A    between atoms: C_13  and  O_14
REMARK    6  A    between atoms: C_13  and  C_15
REMARK    7  A    between atoms: C_15  and  C_16
REMARK    8  A    between atoms: C_15  and  C_17
REMARK    9  A    between atoms: C_15  and  C_18
REMARK                            x       y       z     vdW  Elec       q    Type
REMARK                         _______ _______ _______ _____ _____    ______ ____
ROOT
ATOM      1  C   UNL     1       2.742   7.503  18.248  0.00  0.00    +0.000 C 
ATOM      2  O   UNL     1       3.379   7.971  17.299  0.00  0.00    +0.000 OA
ATOM      3  N   UNL     1       1.901   8.303  19.002  0.00  0.00    +0.000 N 
ATOM      4  C   UNL     1       1.641   9.651  18.480  0.00  0.00    +0.000 C 
ATOM      5  C   UNL     1       0.218  10.120  18.836  0.00  0.00    +0.000 C 
ATOM      6  N   UNL     1      -0.093  10.057  20.282  0.00  0.00    +0.000 NA
ATOM      7  C   UNL     1       0.170   8.670  20.751  0.00  0.00    +0.000 C 
ATOM      8  C   UNL     1       1.597   8.155  20.434  0.00  0.00    +0.000 C 
ENDROOT
BRANCH   1  13
ATOM      9  C   UNL     1       3.636   1.876  18.950  0.00  0.00    +0.000 C 
ATOM     10  N   UNL     1       3.374   3.296  18.811  0.00  0.00    +0.000 N 
ATOM     11  C   UNL     1       4.332   4.217  19.183  0.00  0.00    +0.000 A 
ATOM     12  C   UNL     1       4.099   5.528  19.075  0.00  0.00    +0.000 A 
ATOM     13  C   UNL     1       2.854   6.024  18.506  0.00  0.00    +0.000 A 
ATOM     14  C   UNL     1       1.954   5.131  18.061  0.00  0.00    +0.000 A 
ATOM     15  C   UNL     1       2.143   3.679  18.293  0.00  0.00    +0.000 A 
ATOM     16  O   UNL     1       1.231   2.905  18.006  0.00  0.00    +0.000 OA
ENDBRANCH   1  13
BRANCH   6  17
ATOM     17  C   UNL     1       0.694  11.016  21.086  0.00  0.00    +0.000 C 
BRANCH  17  18
ATOM     18  C   UNL     1       0.066  12.415  21.337  0.00  0.00    +0.000 C 
BRANCH  18  19
ATOM     19  C   UNL     1      -1.172  12.375  22.289  0.00  0.00    +0.000 C 
ATOM     20  C   UNL     1      -1.160  13.577  23.254  0.00  0.00    +0.000 C 
ATOM     21  C   UNL     1      -2.459  12.459  21.443  0.00  0.00    +0.000 C 
ATOM     22  C   UNL     1      -1.214  11.075  23.112  0.00  0.00    +0.000 C 
ENDBRANCH  18  19
BRANCH  18  23
ATOM     23  O   UNL     1      -0.296  13.028  20.096  0.00  0.00    +0.000 OA
ATOM     24  H   UNL     1      -0.076  12.408  19.379  0.00  0.00    +0.000 HD
ENDBRANCH  18  23
ENDBRANCH  17  18
ENDBRANCH   6  17
TORSDOF 5
ENDMDL
MODEL 5
REMARK VINA RESULT:      -6.3      2.818      3.874
REMARK  Name = 
REMARK  9 active torsions:
REMARK  status: ('A' for Active; 'I' for Inactive)
REMARK    1  A    between atoms: C_1  and  N_2
REMARK    2  A    between atoms: C_5  and  C_6
REMARK    3  A    between atoms: N_11  and  C_12
REMARK    4  A    between atoms: C_12  and  C_13
REMARK    5  A    between atoms: C_13  and  O_14
REMARK    6  A    between atoms: C_13  and  C_15
REMARK    7  A    between atoms: C_15  and  C_16
REMARK    8  A    between atoms: C_15  and  C_17
REMARK    9  A    between atoms: C_15  and  C_18
REMARK                            x       y       z     vdW  Elec       q    Type
REMARK                         _______ _______ _______ _____ _____    ______ ____
ROOT
ATOM      1  C   UNL     1       2.496   7.838  18.203  0.00  0.00    +0.000 C 
ATOM      2  O   UNL     1       2.864   8.446  17.193  0.00  0.00    +0.000 OA
ATOM      3  N   UNL     1       1.668   8.444  19.133  0.00  0.00    +0.000 N 
ATOM      4  C   UNL     1       1.083   9.733  18.745  0.00  0.00    +0.000 C 
ATOM      5  C   UNL     1      -0.318   9.916  19.358  0.00  0.00    +0.000 C 
ATOM      6  N   UNL     1      -0.358   9.752  20.829  0.00  0.00    +0.000 NA
ATOM      7  C   UNL     1       0.228   8.426  21.162  0.00  0.00    +0.000 C 
ATOM      8  C   UNL     1       1.648   8.197  20.584  0.00  0.00    +0.000 C 
ENDROOT
BRANCH   1  13
ATOM      9  C   UNL     1       3.668   2.290  19.093  0.00  0.00    +0.000 C 
ATOM     10  N   UNL     1       3.403   3.691  18.827  0.00  0.00    +0.000 N 
ATOM     11  C   UNL     1       2.158   4.090  18.386  0.00  0.00    +0.000 A 
ATOM     12  C   UNL     1       1.905   5.375  18.122  0.00  0.00    +0.000 A 
ATOM     13  C   UNL     1       2.914   6.400  18.348  0.00  0.00    +0.000 A 
ATOM     14  C   UNL     1       4.100   6.028  18.861  0.00  0.00    +0.000 A 
ATOM     15  C   UNL     1       4.438   4.595  19.036  0.00  0.00    +0.000 A 
ATOM     16  O   UNL     1       5.582   4.288  19.366  0.00  0.00    +0.000 OA
ENDBRANCH   1  13
BRANCH   6  17
ATOM     17  C   UNL     1       0.371  10.817  21.551  0.00  0.00    +0.000 C 
BRANCH  17  18
ATOM     18  C   UNL     1      -0.348  12.186  21.708  0.00  0.00    +0.000 C 
BRANCH  18  19
ATOM     19  C   UNL     1       0.402  13.362  21.005  0.00  0.00    +0.000 C 
ATOM     20  C   UNL     1       0.546  14.567  21.956  0.00  0.00    +0.000 C 
ATOM     21  C   UNL     1       1.819  12.893  20.617  0.00  0.00    +0.000 C 
ATOM     22  C   UNL     1      -0.326  13.819  19.729  0.00  0.00    +0.000 C 
ENDBRANCH  18  19
BRANCH  18  23
ATOM     23  O   UNL     1      -0.540  12.491  23.093  0.00  0.00    +0.000 OA
ATOM     24  H   UNL     1      -1.351  13.022  23.173  0.00  0.00    +0.000 HD
ENDBRANCH  18  23
ENDBRANCH  17  18
ENDBRANCH   6  17
TORSDOF 5
ENDMDL
MODEL 6
REMARK VINA RESULT:      -6.3      2.835      4.065
REMARK  Name = 
REMARK  9 active torsions:
REMARK  status: ('A' for Active; 'I' for Inactive)
REMARK    1  A    between atoms: C_1  and  N_2
REMARK    2  A    between atoms: C_5  and  C_6
REMARK    3  A    between atoms: N_11  and  C_12
REMARK    4  A    between atoms: C_12  and  C_13
REMARK    5  A    between atoms: C_13  and  O_14
REMARK    6  A    between atoms: C_13  and  C_15
REMARK    7  A    between atoms: C_15  and  C_16
REMARK    8  A    between atoms: C_15  and  C_17
REMARK    9  A    between atoms: C_15  and  C_18
REMARK                            x       y       z     vdW  Elec       q    Type
REMARK                         _______ _______ _______ _____ _____    ______ ____
ROOT
ATOM      1  C   UNL     1       2.563   7.651  18.102  0.00  0.00    +0.000 C 
ATOM      2  O   UNL     1       3.107   8.057  17.070  0.00  0.00    +0.000 OA
ATOM      3  N   UNL     1       1.777   8.493  18.868  0.00  0.00    +0.000 N 
ATOM      4  C   UNL     1       1.448   9.796  18.278  0.00  0.00    +0.000 C 
ATOM      5  C   UNL     1       0.053  10.273  18.724  0.00  0.00    +0.000 C 
ATOM      6  N   UNL     1      -0.130  10.310  20.193  0.00  0.00    +0.000 NA
ATOM      7  C   UNL     1       0.198   8.963  20.733  0.00  0.00    +0.000 C 
ATOM      8  C   UNL     1       1.601   8.443  20.329  0.00  0.00    +0.000 C 
ENDROOT
BRANCH   1  13
ATOM      9  C   UNL     1       3.667   2.126  19.202  0.00  0.00    +0.000 C 
ATOM     10  N   UNL     1       3.349   3.520  18.958  0.00  0.00    +0.000 N 
ATOM     11  C   UNL     1       4.216   4.511  19.370  0.00  0.00    +0.000 A 
ATOM     12  C   UNL     1       3.929   5.800  19.167  0.00  0.00    +0.000 A 
ATOM     13  C   UNL     1       2.723   6.196  18.452  0.00  0.00    +0.000 A 
ATOM     14  C   UNL     1       1.920   5.232  17.971  0.00  0.00    +0.000 A 
ATOM     15  C   UNL     1       2.159   3.806  18.301  0.00  0.00    +0.000 A 
ATOM     16  O   UNL     1       1.321   2.969  17.970  0.00  0.00    +0.000 OA
ENDBRANCH   1  13
BRANCH   6  17
ATOM     17  C   UNL     1       0.707  11.333  20.856  0.00  0.00    +0.000 C 
BRANCH  17  18
ATOM     18  C   UNL     1       0.136  12.777  20.930  0.00  0.00    +0.000 C 
BRANCH  18  19
ATOM     19  C   UNL     1       0.862  13.779  19.977  0.00  0.00    +0.000 C 
ATOM     20  C   UNL     1       2.239  13.232  19.552  0.00  0.00    +0.000 C 
ATOM     21  C   UNL     1       0.012  13.965  18.704  0.00  0.00    +0.000 C 
ATOM     22  C   UNL     1       1.055  15.155  20.639  0.00  0.00    +0.000 C 
ENDBRANCH  18  19
BRANCH  18  23
ATOM     23  O   UNL     1       0.185  13.263  22.275  0.00  0.00    +0.000 OA
ATOM     24  H   UNL     1       1.029  12.978  22.666  0.00  0.00    +0.000 HD
ENDBRANCH  18  23
ENDBRANCH  17  18
ENDBRANCH   6  17
TORSDOF 5
ENDMDL
MODEL 7
REMARK VINA RESULT:      -6.2      2.623      8.102
REMARK  Name = 
REMARK  9 active torsions:
REMARK  status: ('A' for Active; 'I' for Inactive)
REMARK    1  A    between atoms: C_1  and  N_2
REMARK    2  A    between atoms: C_5  and  C_6
REMARK    3  A    between atoms: N_11  and  C_12
REMARK    4  A    between atoms: C_12  and  C_13
REMARK    5  A    between atoms: C_13  and  O_14
REMARK    6  A    between atoms: C_13  and  C_15
REMARK    7  A    between atoms: C_15  and  C_16
REMARK    8  A    between atoms: C_15  and  C_17
REMARK    9  A    between atoms: C_15  and  C_18
REMARK                            x       y       z     vdW  Elec       q    Type
REMARK                         _______ _______ _______ _____ _____    ______ ____
ROOT
ATOM      1  C   UNL     1       1.523   9.139  18.530  0.00  0.00    +0.000 C 
ATOM      2  O   UNL     1       1.443   9.827  17.508  0.00  0.00    +0.000 OA
ATOM      3  N   UNL     1       2.338   8.021  18.569  0.00  0.00    +0.000 N 
ATOM      4  C   UNL     1       3.251   7.837  17.435  0.00  0.00    +0.000 C 
ATOM      5  C   UNL     1       4.562   7.163  17.879  0.00  0.00    +0.000 C 
ATOM      6  N   UNL     1       4.369   5.883  18.598  0.00  0.00    +0.000 NA
ATOM      7  C   UNL     1       3.453   6.131  19.744  0.00  0.00    +0.000 C 
ATOM      8  C   UNL     1       2.109   6.793  19.348  0.00  0.00    +0.000 C 
ENDROOT
BRANCH   1  13
ATOM      9  C   UNL     1      -1.300  11.407  22.984  0.00  0.00    +0.000 C 
ATOM     10  N   UNL     1      -0.605  10.787  21.872  0.00  0.00    +0.000 N 
ATOM     11  C   UNL     1      -1.003  11.044  20.576  0.00  0.00    +0.000 A 
ATOM     12  C   UNL     1      -0.383  10.468  19.542  0.00  0.00    +0.000 A 
ATOM     13  C   UNL     1       0.768   9.600  19.748  0.00  0.00    +0.000 A 
ATOM     14  C   UNL     1       1.215   9.416  21.002  0.00  0.00    +0.000 A 
ATOM     15  C   UNL     1       0.459   9.943  22.164  0.00  0.00    +0.000 A 
ATOM     16  O   UNL     1       0.815   9.630  23.299  0.00  0.00    +0.000 OA
ENDBRANCH   1  13
BRANCH   6  17
ATOM     17  C   UNL     1       3.817   4.814  17.738  0.00  0.00    +0.000 C 
BRANCH  17  18
ATOM     18  C   UNL     1       4.328   3.368  17.988  0.00  0.00    +0.000 C 
BRANCH  18  19
ATOM     19  C   UNL     1       3.295   2.468  18.739  0.00  0.00    +0.000 C 
ATOM     20  C   UNL     1       1.863   2.743  18.239  0.00  0.00    +0.000 C 
ATOM     21  C   UNL     1       3.621   0.988  18.456  0.00  0.00    +0.000 C 
ATOM     22  C   UNL     1       3.345   2.695  20.260  0.00  0.00    +0.000 C 
ENDBRANCH  18  19
BRANCH  18  23
ATOM     23  O   UNL     1       5.564   3.394  18.709  0.00  0.00    +0.000 OA
ATOM     24  H   UNL     1       6.159   2.737  18.308  0.00  0.00    +0.000 HD
ENDBRANCH  18  23
ENDBRANCH  17  18
ENDBRANCH   6  17
TORSDOF 5
ENDMDL
MODEL 8
REMARK VINA RESULT:      -6.2      1.252      1.800
REMARK  Name = 
REMARK  9 active torsions:
REMARK  status: ('A' for Active; 'I' for Inactive)
REMARK    1  A    between atoms: C_1  and  N_2
REMARK    2  A    between atoms: C_5  and  C_6
REMARK    3  A    between atoms: N_11  and  C_12
REMARK    4  A    between atoms: C_12  and  C_13
REMARK    5  A    between atoms: C_13  and  O_14
REMARK    6  A    between atoms: C_13  and  C_15
REMARK    7  A    between atoms: C_15  and  C_16
REMARK    8  A    between atoms: C_15  and  C_17
REMARK    9  A    between atoms: C_15  and  C_18
REMARK                            x       y       z     vdW  Elec       q    Type
REMARK                         _______ _______ _______ _____ _____    ______ ____
ROOT
ATOM      1  C   UNL     1       2.361   6.987  19.475  0.00  0.00    +0.000 C 
ATOM      2  O   UNL     1       2.263   6.436  20.576  0.00  0.00    +0.000 OA
ATOM      3  N   UNL     1       1.673   8.157  19.203  0.00  0.00    +0.000 N 
ATOM      4  C   UNL     1       1.019   8.810  20.344  0.00  0.00    +0.000 C 
ATOM      5  C   UNL     1       1.013  10.341  20.179  0.00  0.00    +0.000 C 
ATOM      6  N   UNL     1       0.418  10.809  18.906  0.00  0.00    +0.000 NA
ATOM      7  C   UNL     1       1.129  10.131  17.789  0.00  0.00    +0.000 C 
ATOM      8  C   UNL     1       1.149   8.585  17.896  0.00  0.00    +0.000 C 
ENDROOT
BRANCH   1  13
ATOM      9  C   UNL     1       5.740   5.013  15.276  0.00  0.00    +0.000 C 
ATOM     10  N   UNL     1       4.920   5.492  16.372  0.00  0.00    +0.000 N 
ATOM     11  C   UNL     1       4.819   6.845  16.623  0.00  0.00    +0.000 A 
ATOM     12  C   UNL     1       4.080   7.300  17.639  0.00  0.00    +0.000 A 
ATOM     13  C   UNL     1       3.311   6.387  18.473  0.00  0.00    +0.000 A 
ATOM     14  C   UNL     1       3.334   5.076  18.178  0.00  0.00    +0.000 A 
ATOM     15  C   UNL     1       4.250   4.546  17.138  0.00  0.00    +0.000 A 
ATOM     16  O   UNL     1       4.353   3.329  17.000  0.00  0.00    +0.000 OA
ENDBRANCH   1  13
BRANCH   6  17
ATOM     17  C   UNL     1      -1.033  10.542  18.812  0.00  0.00    +0.000 C 
BRANCH  17  18
ATOM     18  C   UNL     1      -1.908  11.618  18.112  0.00  0.00    +0.000 C 
BRANCH  18  19
ATOM     19  C   UNL     1      -3.080  11.013  17.274  0.00  0.00    +0.000 C 
ATOM     20  C   UNL     1      -2.759  11.061  15.768  0.00  0.00    +0.000 C 
ATOM     21  C   UNL     1      -3.270   9.535  17.673  0.00  0.00    +0.000 C 
ATOM     22  C   UNL     1      -4.402  11.759  17.526  0.00  0.00    +0.000 C 
ENDBRANCH  18  19
BRANCH  18  23
ATOM     23  O   UNL     1      -1.099  12.455  17.281  0.00  0.00    +0.000 OA
ATOM     24  H   UNL     1      -1.297  12.238  16.353  0.00  0.00    +0.000 HD
ENDBRANCH  18  23
ENDBRANCH  17  18
ENDBRANCH   6  17
TORSDOF 5
ENDMDL
MODEL 9
REMARK VINA RESULT:      -6.2      1.062      1.546
REMARK  Name = 
REMARK  9 active torsions:
REMARK  status: ('A' for Active; 'I' for Inactive)
REMARK    1  A    between atoms: C_1  and  N_2
REMARK    2  A    between atoms: C_5  and  C_6
REMARK    3  A    between atoms: N_11  and  C_12
REMARK    4  A    between atoms: C_12  and  C_13
REMARK    5  A    between atoms: C_13  and  O_14
REMARK    6  A    between atoms: C_13  and  C_15
REMARK    7  A    between atoms: C_15  and  C_16
REMARK    8  A    between atoms: C_15  and  C_17
REMARK    9  A    between atoms: C_15  and  C_18
REMARK                            x       y       z     vdW  Elec       q    Type
REMARK                         _______ _______ _______ _____ _____    ______ ____
ROOT
ATOM      1  C   UNL     1       3.048   6.021  19.009  0.00  0.00    +0.000 C 
ATOM      2  O   UNL     1       2.868   5.121  19.836  0.00  0.00    +0.000 OA
ATOM      3  N   UNL     1       2.382   7.229  19.120  0.00  0.00    +0.000 N 
ATOM      4  C   UNL     1       1.646   7.458  20.369  0.00  0.00    +0.000 C 
ATOM      5  C   UNL     1       1.652   8.949  20.754  0.00  0.00    +0.000 C 
ATOM      6  N   UNL     1       1.154   9.849  19.689  0.00  0.00    +0.000 NA
ATOM      7  C   UNL     1       1.945   9.587  18.457  0.00  0.00    +0.000 C 
ATOM      8  C   UNL     1       1.955   8.102  18.014  0.00  0.00    +0.000 C 
ENDROOT
BRANCH   1  13
ATOM      9  C   UNL     1       7.014   4.627  15.101  0.00  0.00    +0.000 C 
ATOM     10  N   UNL     1       5.998   5.019  16.058  0.00  0.00    +0.000 N 
ATOM     11  C   UNL     1       4.889   4.221  16.259  0.00  0.00    +0.000 A 
ATOM     12  C   UNL     1       3.937   4.577  17.126  0.00  0.00    +0.000 A 
ATOM     13  C   UNL     1       4.068   5.786  17.928  0.00  0.00    +0.000 A 
ATOM     14  C   UNL     1       5.186   6.520  17.801  0.00  0.00    +0.000 A 
ATOM     15  C   UNL     1       6.187   6.207  16.753  0.00  0.00    +0.000 A 
ATOM     16  O   UNL     1       7.121   6.986  16.568  0.00  0.00    +0.000 OA
ENDBRANCH   1  13
BRANCH   6  17
ATOM     17  C   UNL     1      -0.287   9.670  19.407  0.00  0.00    +0.000 C 
BRANCH  17  18
ATOM     18  C   UNL     1      -0.885  10.485  18.227  0.00  0.00    +0.000 C 
BRANCH  18  19
ATOM     19  C   UNL     1      -1.597  11.799  18.682  0.00  0.00    +0.000 C 
ATOM     20  C   UNL     1      -0.834  13.039  18.177  0.00  0.00    +0.000 C 
ATOM     21  C   UNL     1      -3.015  11.836  18.078  0.00  0.00    +0.000 C 
ATOM     22  C   UNL     1      -1.718  11.879  20.214  0.00  0.00    +0.000 C 
ENDBRANCH  18  19
BRANCH  18  23
ATOM     23  O   UNL     1      -1.794   9.677  17.473  0.00  0.00    +0.000 OA
ATOM     24  H   UNL     1      -1.921  10.098  16.606  0.00  0.00    +0.000 HD
ENDBRANCH  18  23
ENDBRANCH  17  18
ENDBRANCH   6  17
TORSDOF 5
ENDMDL
