MODEL 1
REMARK VINA RESULT:      -7.7      0.000      0.000
REMARK  Name = 
REMARK  5 active torsions:
REMARK  status: ('A' for Active; 'I' for Inactive)
REMARK    1  A    between atoms: O_1  and  N_2
REMARK    2  A    between atoms: N_2  and  C_10
REMARK    3  A    between atoms: C_15  and  O_16
REMARK    4  A    between atoms: O_16  and  C_17
REMARK    5  A    between atoms: C_17  and  C_18
REMARK                            x       y       z     vdW  Elec       q    Type
REMARK                         _______ _______ _______ _____ _____    ______ ____
ROOT
ATOM      1  C   UNL     1       4.478   5.369  17.966  0.00  0.00    +0.000 C 
ATOM      2  C   UNL     1       5.670   5.100  18.895  0.00  0.00    +0.000 C 
ATOM      3  C   UNL     1       7.027   5.056  18.198  0.00  0.00    +0.000 C 
ATOM      4  C   UNL     1       6.989   4.456  16.827  0.00  0.00    +0.000 C 
ATOM      5  C   UNL     1       5.856   4.144  16.190  0.00  0.00    +0.000 C 
ATOM      6  C   UNL     1       4.475   4.368  16.768  0.00  0.00    +0.000 C 
ENDROOT
BRANCH   1   7
ATOM      7  N   UNL     1       4.351   6.793  17.548  0.00  0.00    +0.000 N 
ATOM      8  C   UNL     1       3.300   7.487  18.207  0.00  0.00    +0.000 A 
ATOM      9  C   UNL     1       2.601   8.494  17.535  0.00  0.00    +0.000 A 
ATOM     10  C   UNL     1       1.531   9.142  18.156  0.00  0.00    +0.000 A 
ATOM     11  C   UNL     1       1.197   8.793  19.453  0.00  0.00    +0.000 A 
ATOM     12 BR   UNL     1      -0.266   9.597  20.325  0.00  0.00    +0.000 Br
ATOM     13  C   UNL     1       1.954   7.823  20.081  0.00  0.00    +0.000 A 
ATOM     14  N   UNL     1       2.979   7.162  19.484  0.00  0.00    +0.000 NA
BRANCH   7  15
ATOM     15  O   UNL     1       4.572   7.013  16.184  0.00  0.00    +0.000 OA
ATOM     16  H   UNL     1       5.522   7.231  16.156  0.00  0.00    +0.000 HD
ENDBRANCH   7  15
ENDBRANCH   1   7
BRANCH   6  17
ATOM     17  O   UNL     1       4.041   3.053  17.154  0.00  0.00    +0.000 OA
BRANCH  17  18
ATOM     18  C   UNL     1       2.637   2.939  17.353  0.00  0.00    +0.000 C 
BRANCH  18  19
ATOM     19  C   UNL     1       2.351   3.098  18.824  0.00  0.00    +0.000 A 
ATOM     20  C   UNL     1       3.131   2.427  19.775  0.00  0.00    +0.000 A 
ATOM     21  C   UNL     1       2.867   2.577  21.140  0.00  0.00    +0.000 A 
ATOM     22  C   UNL     1       1.821   3.396  21.558  0.00  0.00    +0.000 A 
ATOM     23  C   UNL     1       1.035   4.060  20.618  0.00  0.00    +0.000 A 
ATOM     24  C   UNL     1       1.295   3.911  19.256  0.00  0.00    +0.000 A 
ENDBRANCH  18  19
ENDBRANCH  17  18
ENDBRANCH   6  17
TORSDOF 5
ENDMDL
MODEL 2
REMARK VINA RESULT:      -7.7      0.058      1.009
REMARK  Name = 
REMARK  5 active torsions:
REMARK  status: ('A' for Active; 'I' for Inactive)
REMARK    1  A    between atoms: O_1  and  N_2
REMARK    2  A    between atoms: N_2  and  C_10
REMARK    3  A    between atoms: C_15  and  O_16
REMARK    4  A    between atoms: O_16  and  C_17
REMARK    5  A    between atoms: C_17  and  C_18
REMARK                            x       y       z     vdW  Elec       q    Type
REMARK                         _______ _______ _______ _____ _____    ______ ____
ROOT
ATOM      1  C   UNL     1       4.511   5.362  17.934  0.00  0.00    +0.000 C 
ATOM      2  C   UNL     1       5.736   5.083  18.815  0.00  0.00    +0.000 C 
ATOM      3  C   UNL     1       7.065   5.033  18.066  0.00  0.00    +0.000 C 
ATOM      4  C   UNL     1       6.970   4.435  16.695  0.00  0.00    +0.000 C 
ATOM      5  C   UNL     1       5.811   4.131  16.103  0.00  0.00    +0.000 C 
ATOM      6  C   UNL     1       4.454   4.363  16.735  0.00  0.00    +0.000 C 
ENDROOT
BRANCH   1   7
ATOM      7  N   UNL     1       4.376   6.787  17.522  0.00  0.00    +0.000 N 
ATOM      8  C   UNL     1       3.325   7.473  18.189  0.00  0.00    +0.000 A 
ATOM      9  C   UNL     1       2.619   8.481  17.524  0.00  0.00    +0.000 A 
ATOM     10  C   UNL     1       1.549   9.121  18.153  0.00  0.00    +0.000 A 
ATOM     11  C   UNL     1       1.220   8.764  19.449  0.00  0.00    +0.000 A 
ATOM     12 BR   UNL     1      -0.243   9.558  20.330  0.00  0.00    +0.000 Br
ATOM     13  C   UNL     1       1.984   7.794  20.069  0.00  0.00    +0.000 A 
ATOM     14  N   UNL     1       3.010   7.141  19.466  0.00  0.00    +0.000 NA
BRANCH   7  15
ATOM     15  O   UNL     1       4.592   7.015  16.160  0.00  0.00    +0.000 OA
ATOM     16  H   UNL     1       5.129   7.829  16.163  0.00  0.00    +0.000 HD
ENDBRANCH   7  15
ENDBRANCH   1   7
BRANCH   6  17
ATOM     17  O   UNL     1       4.028   3.050  17.135  0.00  0.00    +0.000 OA
BRANCH  17  18
ATOM     18  C   UNL     1       2.625   2.931  17.341  0.00  0.00    +0.000 C 
BRANCH  18  19
ATOM     19  C   UNL     1       2.345   3.097  18.813  0.00  0.00    +0.000 A 
ATOM     20  C   UNL     1       1.303   3.927  19.247  0.00  0.00    +0.000 A 
ATOM     21  C   UNL     1       1.042   4.079  20.612  0.00  0.00    +0.000 A 
ATOM     22  C   UNL     1       1.824   3.405  21.548  0.00  0.00    +0.000 A 
ATOM     23  C   UNL     1       2.868   2.585  21.124  0.00  0.00    +0.000 A 
ATOM     24  C   UNL     1       3.132   2.433  19.763  0.00  0.00    +0.000 A 
ENDBRANCH  18  19
ENDBRANCH  17  18
ENDBRANCH   6  17
TORSDOF 5
ENDMDL
MODEL 3
REMARK VINA RESULT:      -7.1      2.091      4.759
REMARK  Name = 
REMARK  5 active torsions:
REMARK  status: ('A' for Active; 'I' for Inactive)
REMARK    1  A    between atoms: O_1  and  N_2
REMARK    2  A    between atoms: N_2  and  C_10
REMARK    3  A    between atoms: C_15  and  O_16
REMARK    4  A    between atoms: O_16  and  C_17
REMARK    5  A    between atoms: C_17  and  C_18
REMARK                            x       y       z     vdW  Elec       q    Type
REMARK                         _______ _______ _______ _____ _____    ______ ____
ROOT
ATOM      1  C   UNL     1       2.817   6.309  19.150  0.00  0.00    +0.000 C 
ATOM      2  C   UNL     1       2.182   5.772  17.860  0.00  0.00    +0.000 C 
ATOM      3  C   UNL     1       1.772   4.303  17.911  0.00  0.00    +0.000 C 
ATOM      4  C   UNL     1       2.698   3.439  18.711  0.00  0.00    +0.000 C 
ATOM      5  C   UNL     1       3.694   3.923  19.460  0.00  0.00    +0.000 C 
ATOM      6  C   UNL     1       4.003   5.399  19.601  0.00  0.00    +0.000 C 
ENDROOT
BRANCH   1   7
ATOM      7  N   UNL     1       1.835   6.581  20.236  0.00  0.00    +0.000 N 
ATOM      8  C   UNL     1       1.488   7.954  20.355  0.00  0.00    +0.000 A 
ATOM      9  C   UNL     1       1.189   8.491  21.612  0.00  0.00    +0.000 A 
ATOM     10  C   UNL     1       0.901   9.851  21.745  0.00  0.00    +0.000 A 
ATOM     11  C   UNL     1       0.887  10.648  20.613  0.00  0.00    +0.000 A 
ATOM     12 BR   UNL     1       0.555  12.498  20.736  0.00  0.00    +0.000 Br
ATOM     13  C   UNL     1       1.146  10.051  19.394  0.00  0.00    +0.000 A 
ATOM     14  N   UNL     1       1.455   8.737  19.248  0.00  0.00    +0.000 NA
BRANCH   7  15
ATOM     15  O   UNL     1       2.029   5.818  21.392  0.00  0.00    +0.000 OA
ATOM     16  H   UNL     1       1.423   5.066  21.253  0.00  0.00    +0.000 HD
ENDBRANCH   7  15
ENDBRANCH   1   7
BRANCH   6  17
ATOM     17  O   UNL     1       5.177   5.587  18.794  0.00  0.00    +0.000 OA
BRANCH  17  18
ATOM     18  C   UNL     1       5.802   4.378  18.382  0.00  0.00    +0.000 C 
BRANCH  18  19
ATOM     19  C   UNL     1       6.046   4.450  16.897  0.00  0.00    +0.000 A 
ATOM     20  C   UNL     1       5.016   4.153  15.994  0.00  0.00    +0.000 A 
ATOM     21  C   UNL     1       5.242   4.223  14.616  0.00  0.00    +0.000 A 
ATOM     22  C   UNL     1       6.498   4.585  14.136  0.00  0.00    +0.000 A 
ATOM     23  C   UNL     1       7.530   4.873  15.027  0.00  0.00    +0.000 A 
ATOM     24  C   UNL     1       7.308   4.803  16.402  0.00  0.00    +0.000 A 
ENDBRANCH  18  19
ENDBRANCH  17  18
ENDBRANCH   6  17
TORSDOF 5
ENDMDL
MODEL 4
REMARK VINA RESULT:      -7.0      1.881      4.451
REMARK  Name = 
REMARK  5 active torsions:
REMARK  status: ('A' for Active; 'I' for Inactive)
REMARK    1  A    between atoms: O_1  and  N_2
REMARK    2  A    between atoms: N_2  and  C_10
REMARK    3  A    between atoms: C_15  and  O_16
REMARK    4  A    between atoms: O_16  and  C_17
REMARK    5  A    between atoms: C_17  and  C_18
REMARK                            x       y       z     vdW  Elec       q    Type
REMARK                         _______ _______ _______ _____ _____    ______ ____
ROOT
ATOM      1  C   UNL     1       3.332   4.868  19.088  0.00  0.00    +0.000 C 
ATOM      2  C   UNL     1       2.812   4.162  17.829  0.00  0.00    +0.000 C 
ATOM      3  C   UNL     1       2.227   2.773  18.069  0.00  0.00    +0.000 C 
ATOM      4  C   UNL     1       2.932   1.991  19.134  0.00  0.00    +0.000 C 
ATOM      5  C   UNL     1       3.873   2.511  19.929  0.00  0.00    +0.000 C 
ATOM      6  C   UNL     1       4.334   3.952  19.860  0.00  0.00    +0.000 C 
ENDROOT
BRANCH   1   7
ATOM      7  N   UNL     1       2.257   5.428  19.952  0.00  0.00    +0.000 N 
ATOM      8  C   UNL     1       1.968   6.794  19.685  0.00  0.00    +0.000 A 
ATOM      9  C   UNL     1       1.566   7.638  20.725  0.00  0.00    +0.000 A 
ATOM     10  C   UNL     1       1.334   8.993  20.481  0.00  0.00    +0.000 A 
ATOM     11  C   UNL     1       1.478   9.478  19.192  0.00  0.00    +0.000 A 
ATOM     12 BR   UNL     1       1.227  11.305  18.812  0.00  0.00    +0.000 Br
ATOM     13  C   UNL     1       1.832   8.585  18.199  0.00  0.00    +0.000 A 
ATOM     14  N   UNL     1       2.089   7.271  18.421  0.00  0.00    +0.000 NA
BRANCH   7  15
ATOM     15  O   UNL     1       2.290   4.978  21.276  0.00  0.00    +0.000 OA
ATOM     16  H   UNL     1       2.446   5.801  21.776  0.00  0.00    +0.000 HD
ENDBRANCH   7  15
ENDBRANCH   1   7
BRANCH   6  17
ATOM     17  O   UNL     1       5.616   3.877  19.216  0.00  0.00    +0.000 OA
BRANCH  17  18
ATOM     18  C   UNL     1       6.106   5.127  18.746  0.00  0.00    +0.000 C 
BRANCH  18  19
ATOM     19  C   UNL     1       5.979   5.154  17.245  0.00  0.00    +0.000 A 
ATOM     20  C   UNL     1       6.331   4.031  16.483  0.00  0.00    +0.000 A 
ATOM     21  C   UNL     1       6.210   4.056  15.091  0.00  0.00    +0.000 A 
ATOM     22  C   UNL     1       5.741   5.202  14.454  0.00  0.00    +0.000 A 
ATOM     23  C   UNL     1       5.397   6.326  15.204  0.00  0.00    +0.000 A 
ATOM     24  C   UNL     1       5.518   6.305  16.593  0.00  0.00    +0.000 A 
ENDBRANCH  18  19
ENDBRANCH  17  18
ENDBRANCH   6  17
TORSDOF 5
ENDMDL
MODEL 5
REMARK VINA RESULT:      -7.0      2.105      4.669
REMARK  Name = 
REMARK  5 active torsions:
REMARK  status: ('A' for Active; 'I' for Inactive)
REMARK    1  A    between atoms: O_1  and  N_2
REMARK    2  A    between atoms: N_2  and  C_10
REMARK    3  A    between atoms: C_15  and  O_16
REMARK    4  A    between atoms: O_16  and  C_17
REMARK    5  A    between atoms: C_17  and  C_18
REMARK                            x       y       z     vdW  Elec       q    Type
REMARK                         _______ _______ _______ _____ _____    ______ ____
ROOT
ATOM      1  C   UNL     1       2.871   6.394  19.148  0.00  0.00    +0.000 C 
ATOM      2  C   UNL     1       2.282   5.978  17.793  0.00  0.00    +0.000 C 
ATOM      3  C   UNL     1       1.718   4.561  17.748  0.00  0.00    +0.000 C 
ATOM      4  C   UNL     1       2.486   3.573  18.570  0.00  0.00    +0.000 C 
ATOM      5  C   UNL     1       3.469   3.917  19.409  0.00  0.00    +0.000 C 
ATOM      6  C   UNL     1       3.918   5.345  19.639  0.00  0.00    +0.000 C 
ENDROOT
BRANCH   1   7
ATOM      7  N   UNL     1       1.845   6.729  20.173  0.00  0.00    +0.000 N 
ATOM      8  C   UNL     1       1.493   8.106  20.195  0.00  0.00    +0.000 A 
ATOM      9  C   UNL     1       1.142   8.717  21.404  0.00  0.00    +0.000 A 
ATOM     10  C   UNL     1       0.850  10.082  21.443  0.00  0.00    +0.000 A 
ATOM     11  C   UNL     1       0.883  10.809  20.266  0.00  0.00    +0.000 A 
ATOM     12 BR   UNL     1       0.546  12.662  20.264  0.00  0.00    +0.000 Br
ATOM     13  C   UNL     1       1.192  10.140  19.097  0.00  0.00    +0.000 A 
ATOM     14  N   UNL     1       1.507   8.821  19.043  0.00  0.00    +0.000 NA
BRANCH   7  15
ATOM     15  O   UNL     1       1.989   6.036  21.380  0.00  0.00    +0.000 OA
ATOM     16  H   UNL     1       2.624   6.592  21.869  0.00  0.00    +0.000 HD
ENDBRANCH   7  15
ENDBRANCH   1   7
BRANCH   6  17
ATOM     17  O   UNL     1       5.163   5.437  18.925  0.00  0.00    +0.000 OA
BRANCH  17  18
ATOM     18  C   UNL     1       5.630   4.198  18.407  0.00  0.00    +0.000 C 
BRANCH  18  19
ATOM     19  C   UNL     1       5.963   4.387  16.949  0.00  0.00    +0.000 A 
ATOM     20  C   UNL     1       7.234   4.834  16.564  0.00  0.00    +0.000 A 
ATOM     21  C   UNL     1       7.543   5.006  15.212  0.00  0.00    +0.000 A 
ATOM     22  C   UNL     1       6.582   4.737  14.240  0.00  0.00    +0.000 A 
ATOM     23  C   UNL     1       5.313   4.301  14.616  0.00  0.00    +0.000 A 
ATOM     24  C   UNL     1       5.001   4.129  15.964  0.00  0.00    +0.000 A 
ENDBRANCH  18  19
ENDBRANCH  17  18
ENDBRANCH   6  17
TORSDOF 5
ENDMDL
MODEL 6
REMARK VINA RESULT:      -6.8      1.844      4.627
REMARK  Name = 
REMARK  5 active torsions:
REMARK  status: ('A' for Active; 'I' for Inactive)
REMARK    1  A    between atoms: O_1  and  N_2
REMARK    2  A    between atoms: N_2  and  C_10
REMARK    3  A    between atoms: C_15  and  O_16
REMARK    4  A    between atoms: O_16  and  C_17
REMARK    5  A    between atoms: C_17  and  C_18
REMARK                            x       y       z     vdW  Elec       q    Type
REMARK                         _______ _______ _______ _____ _____    ______ ____
ROOT
ATOM      1  C   UNL     1       3.174   5.003  18.988  0.00  0.00    +0.000 C 
ATOM      2  C   UNL     1       2.567   4.397  17.715  0.00  0.00    +0.000 C 
ATOM      3  C   UNL     1       1.876   3.051  17.913  0.00  0.00    +0.000 C 
ATOM      4  C   UNL     1       2.539   2.169  18.926  0.00  0.00    +0.000 C 
ATOM      5  C   UNL     1       3.538   2.575  19.716  0.00  0.00    +0.000 C 
ATOM      6  C   UNL     1       4.114   3.976  19.693  0.00  0.00    +0.000 C 
ENDROOT
BRANCH   1   7
ATOM      7  N   UNL     1       2.169   5.611  19.903  0.00  0.00    +0.000 N 
ATOM      8  C   UNL     1       1.918   6.985  19.639  0.00  0.00    +0.000 A 
ATOM      9  C   UNL     1       1.606   7.852  20.691  0.00  0.00    +0.000 A 
ATOM     10  C   UNL     1       1.412   9.213  20.446  0.00  0.00    +0.000 A 
ATOM     11  C   UNL     1       1.504   9.681  19.147  0.00  0.00    +0.000 A 
ATOM     12 BR   UNL     1       1.302  11.514  18.763  0.00  0.00    +0.000 Br
ATOM     13  C   UNL     1       1.770   8.769  18.145  0.00  0.00    +0.000 A 
ATOM     14  N   UNL     1       1.989   7.447  18.366  0.00  0.00    +0.000 NA
BRANCH   7  15
ATOM     15  O   UNL     1       2.257   5.170  21.228  0.00  0.00    +0.000 OA
ATOM     16  H   UNL     1       2.638   5.944  21.684  0.00  0.00    +0.000 HD
ENDBRANCH   7  15
ENDBRANCH   1   7
BRANCH   6  17
ATOM     17  O   UNL     1       5.371   3.825  19.012  0.00  0.00    +0.000 OA
BRANCH  17  18
ATOM     18  C   UNL     1       5.889   5.034  18.473  0.00  0.00    +0.000 C 
BRANCH  18  19
ATOM     19  C   UNL     1       6.160   4.823  17.005  0.00  0.00    +0.000 A 
ATOM     20  C   UNL     1       7.045   5.665  16.318  0.00  0.00    +0.000 A 
ATOM     21  C   UNL     1       7.297   5.466  14.958  0.00  0.00    +0.000 A 
ATOM     22  C   UNL     1       6.664   4.428  14.278  0.00  0.00    +0.000 A 
ATOM     23  C   UNL     1       5.775   3.593  14.952  0.00  0.00    +0.000 A 
ATOM     24  C   UNL     1       5.520   3.789  16.309  0.00  0.00    +0.000 A 
ENDBRANCH  18  19
ENDBRANCH  17  18
ENDBRANCH   6  17
TORSDOF 5
ENDMDL
MODEL 7
REMARK VINA RESULT:      -6.7      3.396      5.981
REMARK  Name = 
REMARK  5 active torsions:
REMARK  status: ('A' for Active; 'I' for Inactive)
REMARK    1  A    between atoms: O_1  and  N_2
REMARK    2  A    between atoms: N_2  and  C_10
REMARK    3  A    between atoms: C_15  and  O_16
REMARK    4  A    between atoms: O_16  and  C_17
REMARK    5  A    between atoms: C_17  and  C_18
REMARK                            x       y       z     vdW  Elec       q    Type
REMARK                         _______ _______ _______ _____ _____    ______ ____
ROOT
ATOM      1  C   UNL     1       5.039   6.338  16.738  0.00  0.00    +0.000 C 
ATOM      2  C   UNL     1       5.471   5.843  15.351  0.00  0.00    +0.000 C 
ATOM      3  C   UNL     1       6.360   4.602  15.363  0.00  0.00    +0.000 C 
ATOM      4  C   UNL     1       7.317   4.549  16.514  0.00  0.00    +0.000 C 
ATOM      5  C   UNL     1       7.287   5.408  17.538  0.00  0.00    +0.000 C 
ATOM      6  C   UNL     1       6.279   6.532  17.666  0.00  0.00    +0.000 C 
ENDROOT
BRANCH   1   7
ATOM      7  N   UNL     1       3.958   5.523  17.358  0.00  0.00    +0.000 N 
ATOM      8  C   UNL     1       3.169   6.245  18.294  0.00  0.00    +0.000 A 
ATOM      9  C   UNL     1       2.634   5.590  19.408  0.00  0.00    +0.000 A 
ATOM     10  C   UNL     1       1.904   6.304  20.360  0.00  0.00    +0.000 A 
ATOM     11  C   UNL     1       1.695   7.659  20.169  0.00  0.00    +0.000 A 
ATOM     12 BR   UNL     1       0.761   8.683  21.444  0.00  0.00    +0.000 Br
ATOM     13  C   UNL     1       2.210   8.240  19.027  0.00  0.00    +0.000 A 
ATOM     14  N   UNL     1       2.945   7.569  18.103  0.00  0.00    +0.000 NA
BRANCH   7  15
ATOM     15  O   UNL     1       4.323   4.203  17.640  0.00  0.00    +0.000 OA
ATOM     16  H   UNL     1       3.867   3.702  16.939  0.00  0.00    +0.000 HD
ENDBRANCH   7  15
ENDBRANCH   1   7
BRANCH   6  17
ATOM     17  O   UNL     1       7.031   7.712  17.338  0.00  0.00    +0.000 OA
BRANCH  17  18
ATOM     18  C   UNL     1       8.219   7.877  18.101  0.00  0.00    +0.000 C 
BRANCH  18  19
ATOM     19  C   UNL     1       8.480   9.353  18.261  0.00  0.00    +0.000 A 
ATOM     20  C   UNL     1       7.892  10.276  17.386  0.00  0.00    +0.000 A 
ATOM     21  C   UNL     1       8.133  11.645  17.536  0.00  0.00    +0.000 A 
ATOM     22  C   UNL     1       8.964  12.096  18.558  0.00  0.00    +0.000 A 
ATOM     23  C   UNL     1       9.560  11.184  19.427  0.00  0.00    +0.000 A 
ATOM     24  C   UNL     1       9.323   9.817  19.279  0.00  0.00    +0.000 A 
ENDBRANCH  18  19
ENDBRANCH  17  18
ENDBRANCH   6  17
TORSDOF 5
ENDMDL
MODEL 8
REMARK VINA RESULT:      -6.6      2.005      4.584
REMARK  Name = 
REMARK  5 active torsions:
REMARK  status: ('A' for Active; 'I' for Inactive)
REMARK    1  A    between atoms: O_1  and  N_2
REMARK    2  A    between atoms: N_2  and  C_10
REMARK    3  A    between atoms: C_15  and  O_16
REMARK    4  A    between atoms: O_16  and  C_17
REMARK    5  A    between atoms: C_17  and  C_18
REMARK                            x       y       z     vdW  Elec       q    Type
REMARK                         _______ _______ _______ _____ _____    ______ ____
ROOT
ATOM      1  C   UNL     1       3.391   4.995  19.003  0.00  0.00    +0.000 C 
ATOM      2  C   UNL     1       2.861   4.386  17.697  0.00  0.00    +0.000 C 
ATOM      3  C   UNL     1       2.230   3.004  17.846  0.00  0.00    +0.000 C 
ATOM      4  C   UNL     1       2.899   2.135  18.867  0.00  0.00    +0.000 C 
ATOM      5  C   UNL     1       3.847   2.574  19.701  0.00  0.00    +0.000 C 
ATOM      6  C   UNL     1       4.354   4.001  19.725  0.00  0.00    +0.000 C 
ENDROOT
BRANCH   1   7
ATOM      7  N   UNL     1       2.324   5.535  19.891  0.00  0.00    +0.000 N 
ATOM      8  C   UNL     1       2.006   6.897  19.632  0.00  0.00    +0.000 A 
ATOM      9  C   UNL     1       1.612   7.732  20.682  0.00  0.00    +0.000 A 
ATOM     10  C   UNL     1       1.351   9.083  20.446  0.00  0.00    +0.000 A 
ATOM     11  C   UNL     1       1.460   9.572  19.155  0.00  0.00    +0.000 A 
ATOM     12 BR   UNL     1       1.169  11.395  18.783  0.00  0.00    +0.000 Br
ATOM     13  C   UNL     1       1.809   8.688  18.153  0.00  0.00    +0.000 A 
ATOM     14  N   UNL     1       2.093   7.378  18.367  0.00  0.00    +0.000 NA
BRANCH   7  15
ATOM     15  O   UNL     1       2.393   5.084  21.213  0.00  0.00    +0.000 OA
ATOM     16  H   UNL     1       1.663   4.439  21.255  0.00  0.00    +0.000 HD
ENDBRANCH   7  15
ENDBRANCH   1   7
BRANCH   6  17
ATOM     17  O   UNL     1       5.640   3.925  19.089  0.00  0.00    +0.000 OA
BRANCH  17  18
ATOM     18  C   UNL     1       5.701   4.561  17.819  0.00  0.00    +0.000 C 
BRANCH  18  19
ATOM     19  C   UNL     1       6.565   5.789  17.942  0.00  0.00    +0.000 A 
ATOM     20  C   UNL     1       7.612   5.829  18.874  0.00  0.00    +0.000 A 
ATOM     21  C   UNL     1       8.414   6.968  18.986  0.00  0.00    +0.000 A 
ATOM     22  C   UNL     1       8.172   8.072  18.172  0.00  0.00    +0.000 A 
ATOM     23  C   UNL     1       7.127   8.043  17.251  0.00  0.00    +0.000 A 
ATOM     24  C   UNL     1       6.324   6.909  17.136  0.00  0.00    +0.000 A 
ENDBRANCH  18  19
ENDBRANCH  17  18
ENDBRANCH   6  17
TORSDOF 5
ENDMDL
MODEL 9
REMARK VINA RESULT:      -6.6      3.499      5.953
REMARK  Name = 
REMARK  5 active torsions:
REMARK  status: ('A' for Active; 'I' for Inactive)
REMARK    1  A    between atoms: O_1  and  N_2
REMARK    2  A    between atoms: N_2  and  C_10
REMARK    3  A    between atoms: C_15  and  O_16
REMARK    4  A    between atoms: O_16  and  C_17
REMARK    5  A    between atoms: C_17  and  C_18
REMARK                            x       y       z     vdW  Elec       q    Type
REMARK                         _______ _______ _______ _____ _____    ______ ____
ROOT
ATOM      1  C   UNL     1       5.484   6.612  17.346  0.00  0.00    +0.000 C 
ATOM      2  C   UNL     1       5.562   6.165  15.879  0.00  0.00    +0.000 C 
ATOM      3  C   UNL     1       6.116   4.759  15.667  0.00  0.00    +0.000 C 
ATOM      4  C   UNL     1       7.199   4.379  16.629  0.00  0.00    +0.000 C 
ATOM      5  C   UNL     1       7.538   5.121  17.688  0.00  0.00    +0.000 C 
ATOM      6  C   UNL     1       6.864   6.428  18.052  0.00  0.00    +0.000 C 
ENDROOT
BRANCH   1   7
ATOM      7  N   UNL     1       4.349   6.009  18.099  0.00  0.00    +0.000 N 
ATOM      8  C   UNL     1       3.342   6.947  18.455  0.00  0.00    +0.000 A 
ATOM      9  C   UNL     1       2.629   6.787  19.647  0.00  0.00    +0.000 A 
ATOM     10  C   UNL     1       1.678   7.734  20.030  0.00  0.00    +0.000 A 
ATOM     11  C   UNL     1       1.432   8.813  19.199  0.00  0.00    +0.000 A 
ATOM     12 BR   UNL     1       0.196  10.148  19.687  0.00  0.00    +0.000 Br
ATOM     13  C   UNL     1       2.136   8.893  18.013  0.00  0.00    +0.000 A 
ATOM     14  N   UNL     1       3.084   7.997  17.636  0.00  0.00    +0.000 NA
BRANCH   7  15
ATOM     15  O   UNL     1       4.726   5.024  19.017  0.00  0.00    +0.000 OA
ATOM     16  H   UNL     1       5.341   4.473  18.497  0.00  0.00    +0.000 HD
ENDBRANCH   7  15
ENDBRANCH   1   7
BRANCH   6  17
ATOM     17  O   UNL     1       7.816   7.431  17.664  0.00  0.00    +0.000 OA
BRANCH  17  18
ATOM     18  C   UNL     1       7.252   8.720  17.453  0.00  0.00    +0.000 C 
BRANCH  18  19
ATOM     19  C   UNL     1       8.185   9.749  18.036  0.00  0.00    +0.000 A 
ATOM     20  C   UNL     1       9.005   9.426  19.126  0.00  0.00    +0.000 A 
ATOM     21  C   UNL     1       9.872  10.381  19.665  0.00  0.00    +0.000 A 
ATOM     22  C   UNL     1       9.921  11.662  19.119  0.00  0.00    +0.000 A 
ATOM     23  C   UNL     1       9.102  11.993  18.042  0.00  0.00    +0.000 A 
ATOM     24  C   UNL     1       8.235  11.043  17.502  0.00  0.00    +0.000 A 
ENDBRANCH  18  19
ENDBRANCH  17  18
ENDBRANCH   6  17
TORSDOF 5
ENDMDL
