MODEL 1
REMARK VINA RESULT:      -7.5      0.000      0.000
REMARK  Name = 
REMARK  8 active torsions:
REMARK  status: ('A' for Active; 'I' for Inactive)
REMARK    1  A    between atoms: C_1  and  C_2
REMARK    2  A    between atoms: C_2  and  C_3
REMARK    3  A    between atoms: C_3  and  C_4
REMARK    4  A    between atoms: C_4  and  N_5
REMARK    5  A    between atoms: N_8  and  C_9
REMARK    6  A    between atoms: C_9  and  C_10
REMARK    7  A    between atoms: C_10  and  C_11
REMARK    8  A    between atoms: C_23  and  C_24
REMARK                            x       y       z     vdW  Elec       q    Type
REMARK                         _______ _______ _______ _____ _____    ______ ____
ROOT
ATOM      1  N   UNL     1      -1.800  12.305  19.427  0.00  0.00    +0.000 N 
ATOM      2  C   UNL     1      -0.424  12.363  19.667  0.00  0.00    +0.000 C 
ATOM      3  O   UNL     1       0.377  12.509  18.748  0.00  0.00    +0.000 OA
ATOM      4  N   UNL     1       0.041  12.035  20.948  0.00  0.00    +0.000 N 
ATOM      5  S   UNL     1      -0.770  12.595  22.288  0.00  0.00    +0.000 S 
ATOM      6  O   UNL     1      -0.685  11.613  23.347  0.00  0.00    +0.000 OA
ATOM      7  O   UNL     1      -0.396  13.975  22.503  0.00  0.00    +0.000 OA
ATOM      8  C   UNL     1      -2.448  12.610  21.786  0.00  0.00    +0.000 A 
ATOM      9  C   UNL     1      -3.409  12.782  22.803  0.00  0.00    +0.000 A 
ATOM     10  C   UNL     1      -4.769  12.816  22.496  0.00  0.00    +0.000 A 
ATOM     11  C   UNL     1      -5.138  12.663  21.157  0.00  0.00    +0.000 A 
ATOM     12  C   UNL     1      -4.167  12.477  20.155  0.00  0.00    +0.000 A 
ATOM     13  C   UNL     1      -2.791  12.439  20.447  0.00  0.00    +0.000 A 
ENDROOT
BRANCH  10  14
ATOM     14  C   UNL     1      -5.817  13.023  23.563  0.00  0.00    +0.000 C 
ATOM     15  F   UNL     1      -5.906  14.311  23.993  0.00  0.00    +0.000 F 
ATOM     16  F   UNL     1      -7.062  12.682  23.136  0.00  0.00    +0.000 F 
ATOM     17  F   UNL     1      -5.580  12.270  24.672  0.00  0.00    +0.000 F 
ENDBRANCH  10  14
BRANCH   1  18
ATOM     18  C   UNL     1      -2.141  11.908  18.052  0.00  0.00    +0.000 C 
BRANCH  18  19
ATOM     19  C   UNL     1      -2.010  10.380  17.882  0.00  0.00    +0.000 C 
BRANCH  19  21
ATOM     20  C   UNL     1      -2.880  10.081  15.550  0.00  0.00    +0.000 C 
ATOM     21  C   UNL     1      -3.120   9.783  17.024  0.00  0.00    +0.000 C 
ENDBRANCH  19  21
ENDBRANCH  18  19
ENDBRANCH   1  18
BRANCH   4  22
ATOM     22  C   UNL     1       0.962  10.878  21.147  0.00  0.00    +0.000 C 
BRANCH  22  23
ATOM     23  C   UNL     1       0.339   9.536  20.750  0.00  0.00    +0.000 C 
BRANCH  23  24
ATOM     24  C   UNL     1       1.239   8.744  19.828  0.00  0.00    +0.000 A 
ATOM     25  C   UNL     1       1.803   7.533  20.267  0.00  0.00    +0.000 A 
ATOM     26  C   UNL     1       2.629   6.793  19.420  0.00  0.00    +0.000 A 
ATOM     27  C   UNL     1       2.895   7.262  18.141  0.00  0.00    +0.000 A 
ATOM     28  F   UNL     1       3.685   6.548  17.326  0.00  0.00    +0.000 F 
ATOM     29  C   UNL     1       2.354   8.461  17.692  0.00  0.00    +0.000 A 
ATOM     30  C   UNL     1       1.527   9.206  18.537  0.00  0.00    +0.000 A 
ENDBRANCH  23  24
ENDBRANCH  22  23
ENDBRANCH   4  22
TORSDOF 7
ENDMDL
MODEL 2
REMARK VINA RESULT:      -7.5      0.468      1.233
REMARK  Name = 
REMARK  8 active torsions:
REMARK  status: ('A' for Active; 'I' for Inactive)
REMARK    1  A    between atoms: C_1  and  C_2
REMARK    2  A    between atoms: C_2  and  C_3
REMARK    3  A    between atoms: C_3  and  C_4
REMARK    4  A    between atoms: C_4  and  N_5
REMARK    5  A    between atoms: N_8  and  C_9
REMARK    6  A    between atoms: C_9  and  C_10
REMARK    7  A    between atoms: C_10  and  C_11
REMARK    8  A    between atoms: C_23  and  C_24
REMARK                            x       y       z     vdW  Elec       q    Type
REMARK                         _______ _______ _______ _____ _____    ______ ____
ROOT
ATOM      1  N   UNL     1      -1.454  12.282  19.427  0.00  0.00    +0.000 N 
ATOM      2  C   UNL     1      -0.096  12.215  19.752  0.00  0.00    +0.000 C 
ATOM      3  O   UNL     1       0.772  12.364  18.896  0.00  0.00    +0.000 OA
ATOM      4  N   UNL     1       0.259  11.761  21.029  0.00  0.00    +0.000 N 
ATOM      5  S   UNL     1      -0.594  12.285  22.357  0.00  0.00    +0.000 S 
ATOM      6  O   UNL     1      -0.650  11.226  23.341  0.00  0.00    +0.000 OA
ATOM      7  O   UNL     1      -0.134  13.613  22.700  0.00  0.00    +0.000 OA
ATOM      8  C   UNL     1      -2.231  12.467  21.759  0.00  0.00    +0.000 A 
ATOM      9  C   UNL     1      -3.240  12.641  22.727  0.00  0.00    +0.000 A 
ATOM     10  C   UNL     1      -4.571  12.802  22.343  0.00  0.00    +0.000 A 
ATOM     11  C   UNL     1      -4.863  12.775  20.977  0.00  0.00    +0.000 A 
ATOM     12  C   UNL     1      -3.844  12.586  20.023  0.00  0.00    +0.000 A 
ATOM     13  C   UNL     1      -2.497  12.419  20.393  0.00  0.00    +0.000 A 
ENDROOT
BRANCH  10  14
ATOM     14  C   UNL     1      -5.669  13.013  23.359  0.00  0.00    +0.000 C 
ATOM     15  F   UNL     1      -6.851  12.440  23.006  0.00  0.00    +0.000 F 
ATOM     16  F   UNL     1      -5.350  12.499  24.577  0.00  0.00    +0.000 F 
ATOM     17  F   UNL     1      -5.935  14.332  23.564  0.00  0.00    +0.000 F 
ENDBRANCH  10  14
BRANCH   1  18
ATOM     18  C   UNL     1      -1.732  12.012  18.007  0.00  0.00    +0.000 C 
BRANCH  18  19
ATOM     19  C   UNL     1      -1.728  10.494  17.734  0.00  0.00    +0.000 C 
BRANCH  19  21
ATOM     20  C   UNL     1      -3.960  10.869  16.656  0.00  0.00    +0.000 C 
ATOM     21  C   UNL     1      -3.126   9.927  17.515  0.00  0.00    +0.000 C 
ENDBRANCH  19  21
ENDBRANCH  18  19
ENDBRANCH   1  18
BRANCH   4  22
ATOM     22  C   UNL     1       1.078  10.525  21.194  0.00  0.00    +0.000 C 
BRANCH  22  23
ATOM     23  C   UNL     1       0.411   9.277  20.606  0.00  0.00    +0.000 C 
BRANCH  23  24
ATOM     24  C   UNL     1       1.360   8.487  19.733  0.00  0.00    +0.000 A 
ATOM     25  C   UNL     1       1.701   8.963  18.455  0.00  0.00    +0.000 A 
ATOM     26  C   UNL     1       2.581   8.244  17.646  0.00  0.00    +0.000 A 
ATOM     27  C   UNL     1       3.117   7.051  18.109  0.00  0.00    +0.000 A 
ATOM     28  F   UNL     1       3.966   6.361  17.333  0.00  0.00    +0.000 F 
ATOM     29  C   UNL     1       2.786   6.558  19.366  0.00  0.00    +0.000 A 
ATOM     30  C   UNL     1       1.904   7.274  20.179  0.00  0.00    +0.000 A 
ENDBRANCH  23  24
ENDBRANCH  22  23
ENDBRANCH   4  22
TORSDOF 7
ENDMDL
MODEL 3
REMARK VINA RESULT:      -7.4      6.171     11.722
REMARK  Name = 
REMARK  8 active torsions:
REMARK  status: ('A' for Active; 'I' for Inactive)
REMARK    1  A    between atoms: C_1  and  C_2
REMARK    2  A    between atoms: C_2  and  C_3
REMARK    3  A    between atoms: C_3  and  C_4
REMARK    4  A    between atoms: C_4  and  N_5
REMARK    5  A    between atoms: N_8  and  C_9
REMARK    6  A    between atoms: C_9  and  C_10
REMARK    7  A    between atoms: C_10  and  C_11
REMARK    8  A    between atoms: C_23  and  C_24
REMARK                            x       y       z     vdW  Elec       q    Type
REMARK                         _______ _______ _______ _____ _____    ______ ____
ROOT
ATOM      1  N   UNL     1       4.831   3.493  17.383  0.00  0.00    +0.000 N 
ATOM      2  C   UNL     1       4.932   4.093  18.642  0.00  0.00    +0.000 C 
ATOM      3  O   UNL     1       4.535   3.522  19.654  0.00  0.00    +0.000 OA
ATOM      4  N   UNL     1       5.296   5.445  18.705  0.00  0.00    +0.000 N 
ATOM      5  S   UNL     1       6.515   6.017  17.727  0.00  0.00    +0.000 S 
ATOM      6  O   UNL     1       6.226   7.383  17.349  0.00  0.00    +0.000 OA
ATOM      7  O   UNL     1       7.783   5.646  18.316  0.00  0.00    +0.000 OA
ATOM      8  C   UNL     1       6.356   5.072  16.261  0.00  0.00    +0.000 A 
ATOM      9  C   UNL     1       7.084   5.519  15.141  0.00  0.00    +0.000 A 
ATOM     10  C   UNL     1       7.024   4.825  13.933  0.00  0.00    +0.000 A 
ATOM     11  C   UNL     1       6.215   3.687  13.875  0.00  0.00    +0.000 A 
ATOM     12  C   UNL     1       5.483   3.262  14.999  0.00  0.00    +0.000 A 
ATOM     13  C   UNL     1       5.529   3.951  16.225  0.00  0.00    +0.000 A 
ENDROOT
BRANCH  10  14
ATOM     14  C   UNL     1       7.813   5.270  12.724  0.00  0.00    +0.000 C 
ATOM     15  F   UNL     1       9.141   5.430  12.972  0.00  0.00    +0.000 F 
ATOM     16  F   UNL     1       7.727   4.382  11.697  0.00  0.00    +0.000 F 
ATOM     17  F   UNL     1       7.374   6.461  12.231  0.00  0.00    +0.000 F 
ENDBRANCH  10  14
BRANCH   1  18
ATOM     18  C   UNL     1       3.794   2.451  17.311  0.00  0.00    +0.000 C 
BRANCH  18  19
ATOM     19  C   UNL     1       2.388   3.085  17.350  0.00  0.00    +0.000 C 
BRANCH  19  21
ATOM     20  C   UNL     1       1.041   3.448  19.433  0.00  0.00    +0.000 C 
ATOM     21  C   UNL     1       1.473   2.434  18.381  0.00  0.00    +0.000 C 
ENDBRANCH  19  21
ENDBRANCH  18  19
ENDBRANCH   1  18
BRANCH   4  22
ATOM     22  C   UNL     1       4.367   6.454  19.290  0.00  0.00    +0.000 C 
BRANCH  22  23
ATOM     23  C   UNL     1       2.994   6.476  18.609  0.00  0.00    +0.000 C 
BRANCH  23  24
ATOM     24  C   UNL     1       2.211   7.722  18.955  0.00  0.00    +0.000 A 
ATOM     25  C   UNL     1       1.989   8.707  17.975  0.00  0.00    +0.000 A 
ATOM     26  C   UNL     1       1.261   9.857  18.283  0.00  0.00    +0.000 A 
ATOM     27  C   UNL     1       0.758  10.025  19.566  0.00  0.00    +0.000 A 
ATOM     28  F   UNL     1       0.055  11.129  19.861  0.00  0.00    +0.000 F 
ATOM     29  C   UNL     1       0.973   9.068  20.551  0.00  0.00    +0.000 A 
ATOM     30  C   UNL     1       1.703   7.916  20.247  0.00  0.00    +0.000 A 
ENDBRANCH  23  24
ENDBRANCH  22  23
ENDBRANCH   4  22
TORSDOF 7
ENDMDL
MODEL 4
REMARK VINA RESULT:      -7.2      6.579     11.714
REMARK  Name = 
REMARK  8 active torsions:
REMARK  status: ('A' for Active; 'I' for Inactive)
REMARK    1  A    between atoms: C_1  and  C_2
REMARK    2  A    between atoms: C_2  and  C_3
REMARK    3  A    between atoms: C_3  and  C_4
REMARK    4  A    between atoms: C_4  and  N_5
REMARK    5  A    between atoms: N_8  and  C_9
REMARK    6  A    between atoms: C_9  and  C_10
REMARK    7  A    between atoms: C_10  and  C_11
REMARK    8  A    between atoms: C_23  and  C_24
REMARK                            x       y       z     vdW  Elec       q    Type
REMARK                         _______ _______ _______ _____ _____    ______ ____
ROOT
ATOM      1  N   UNL     1       4.624   3.380  17.282  0.00  0.00    +0.000 N 
ATOM      2  C   UNL     1       4.854   3.789  18.600  0.00  0.00    +0.000 C 
ATOM      3  O   UNL     1       4.385   3.169  19.550  0.00  0.00    +0.000 OA
ATOM      4  N   UNL     1       5.447   5.041  18.812  0.00  0.00    +0.000 N 
ATOM      5  S   UNL     1       6.726   5.519  17.861  0.00  0.00    +0.000 S 
ATOM      6  O   UNL     1       6.670   6.951  17.666  0.00  0.00    +0.000 OA
ATOM      7  O   UNL     1       7.923   4.867  18.346  0.00  0.00    +0.000 OA
ATOM      8  C   UNL     1       6.375   4.810  16.299  0.00  0.00    +0.000 A 
ATOM      9  C   UNL     1       7.145   5.267  15.212  0.00  0.00    +0.000 A 
ATOM     10  C   UNL     1       6.942   4.753  13.931  0.00  0.00    +0.000 A 
ATOM     11  C   UNL     1       5.947   3.785  13.769  0.00  0.00    +0.000 A 
ATOM     12  C   UNL     1       5.176   3.350  14.863  0.00  0.00    +0.000 A 
ATOM     13  C   UNL     1       5.367   3.859  16.160  0.00  0.00    +0.000 A 
ENDROOT
BRANCH  10  14
ATOM     14  C   UNL     1       7.770   5.209  12.753  0.00  0.00    +0.000 C 
ATOM     15  F   UNL     1       9.085   5.386  13.052  0.00  0.00    +0.000 F 
ATOM     16  F   UNL     1       7.734   4.322  11.723  0.00  0.00    +0.000 F 
ATOM     17  F   UNL     1       7.335   6.395  12.245  0.00  0.00    +0.000 F 
ENDBRANCH  10  14
BRANCH   1  18
ATOM     18  C   UNL     1       3.421   2.547  17.127  0.00  0.00    +0.000 C 
BRANCH  18  19
ATOM     19  C   UNL     1       2.156   3.350  17.494  0.00  0.00    +0.000 C 
BRANCH  19  21
ATOM     20  C   UNL     1       0.914   3.280  19.671  0.00  0.00    +0.000 C 
ATOM     21  C   UNL     1       1.180   2.557  18.357  0.00  0.00    +0.000 C 
ENDBRANCH  19  21
ENDBRANCH  18  19
ENDBRANCH   1  18
BRANCH   4  22
ATOM     22  C   UNL     1       4.718   6.109  19.556  0.00  0.00    +0.000 C 
BRANCH  22  23
ATOM     23  C   UNL     1       3.196   5.943  19.512  0.00  0.00    +0.000 C 
BRANCH  23  24
ATOM     24  C   UNL     1       2.489   7.258  19.270  0.00  0.00    +0.000 A 
ATOM     25  C   UNL     1       1.742   7.854  20.301  0.00  0.00    +0.000 A 
ATOM     26  C   UNL     1       1.094   9.072  20.088  0.00  0.00    +0.000 A 
ATOM     27  C   UNL     1       1.187   9.690  18.849  0.00  0.00    +0.000 A 
ATOM     28  F   UNL     1       0.567  10.861  18.646  0.00  0.00    +0.000 F 
ATOM     29  C   UNL     1       1.914   9.112  17.814  0.00  0.00    +0.000 A 
ATOM     30  C   UNL     1       2.564   7.893  18.023  0.00  0.00    +0.000 A 
ENDBRANCH  23  24
ENDBRANCH  22  23
ENDBRANCH   4  22
TORSDOF 7
ENDMDL
MODEL 5
REMARK VINA RESULT:      -6.9      1.257      1.806
REMARK  Name = 
REMARK  8 active torsions:
REMARK  status: ('A' for Active; 'I' for Inactive)
REMARK    1  A    between atoms: C_1  and  C_2
REMARK    2  A    between atoms: C_2  and  C_3
REMARK    3  A    between atoms: C_3  and  C_4
REMARK    4  A    between atoms: C_4  and  N_5
REMARK    5  A    between atoms: N_8  and  C_9
REMARK    6  A    between atoms: C_9  and  C_10
REMARK    7  A    between atoms: C_10  and  C_11
REMARK    8  A    between atoms: C_23  and  C_24
REMARK                            x       y       z     vdW  Elec       q    Type
REMARK                         _______ _______ _______ _____ _____    ______ ____
ROOT
ATOM      1  N   UNL     1      -1.728  11.613  19.188  0.00  0.00    +0.000 N 
ATOM      2  C   UNL     1      -0.516  10.979  19.475  0.00  0.00    +0.000 C 
ATOM      3  O   UNL     1       0.281  10.694  18.585  0.00  0.00    +0.000 OA
ATOM      4  N   UNL     1      -0.319  10.478  20.769  0.00  0.00    +0.000 N 
ATOM      5  S   UNL     1      -0.785  11.385  22.084  0.00  0.00    +0.000 S 
ATOM      6  O   UNL     1      -1.236  10.504  23.139  0.00  0.00    +0.000 OA
ATOM      7  O   UNL     1       0.222  12.396  22.320  0.00  0.00    +0.000 OA
ATOM      8  C   UNL     1      -2.214  12.229  21.525  0.00  0.00    +0.000 A 
ATOM      9  C   UNL     1      -2.992  12.871  22.509  0.00  0.00    +0.000 A 
ATOM     10  C   UNL     1      -4.143  13.575  22.156  0.00  0.00    +0.000 A 
ATOM     11  C   UNL     1      -4.495  13.611  20.804  0.00  0.00    +0.000 A 
ATOM     12  C   UNL     1      -3.715  12.952  19.835  0.00  0.00    +0.000 A 
ATOM     13  C   UNL     1      -2.553  12.236  20.174  0.00  0.00    +0.000 A 
ENDROOT
BRANCH  10  14
ATOM     14  C   UNL     1      -4.982  14.291  23.188  0.00  0.00    +0.000 C 
ATOM     15  F   UNL     1      -6.219  13.749  23.350  0.00  0.00    +0.000 F 
ATOM     16  F   UNL     1      -4.403  14.282  24.419  0.00  0.00    +0.000 F 
ATOM     17  F   UNL     1      -5.181  15.600  22.874  0.00  0.00    +0.000 F 
ENDBRANCH  10  14
BRANCH   1  18
ATOM     18  C   UNL     1      -2.177  11.422  17.799  0.00  0.00    +0.000 C 
BRANCH  18  19
ATOM     19  C   UNL     1      -2.871  10.054  17.639  0.00  0.00    +0.000 C 
BRANCH  19  21
ATOM     20  C   UNL     1      -3.060  10.689  15.221  0.00  0.00    +0.000 C 
ATOM     21  C   UNL     1      -2.849   9.544  16.202  0.00  0.00    +0.000 C 
ENDBRANCH  19  21
ENDBRANCH  18  19
ENDBRANCH   1  18
BRANCH   4  22
ATOM     22  C   UNL     1      -0.105   9.018  20.993  0.00  0.00    +0.000 C 
BRANCH  22  23
ATOM     23  C   UNL     1       1.370   8.647  21.180  0.00  0.00    +0.000 C 
BRANCH  23  24
ATOM     24  C   UNL     1       1.803   7.554  20.230  0.00  0.00    +0.000 A 
ATOM     25  C   UNL     1       2.270   7.883  18.945  0.00  0.00    +0.000 A 
ATOM     26  C   UNL     1       2.679   6.881  18.065  0.00  0.00    +0.000 A 
ATOM     27  C   UNL     1       2.618   5.553  18.463  0.00  0.00    +0.000 A 
ATOM     28  F   UNL     1       3.014   4.591  17.618  0.00  0.00    +0.000 F 
ATOM     29  C   UNL     1       2.151   5.205  19.726  0.00  0.00    +0.000 A 
ATOM     30  C   UNL     1       1.740   6.206  20.610  0.00  0.00    +0.000 A 
ENDBRANCH  23  24
ENDBRANCH  22  23
ENDBRANCH   4  22
TORSDOF 7
ENDMDL
MODEL 6
REMARK VINA RESULT:      -6.8      2.429      3.098
REMARK  Name = 
REMARK  8 active torsions:
REMARK  status: ('A' for Active; 'I' for Inactive)
REMARK    1  A    between atoms: C_1  and  C_2
REMARK    2  A    between atoms: C_2  and  C_3
REMARK    3  A    between atoms: C_3  and  C_4
REMARK    4  A    between atoms: C_4  and  N_5
REMARK    5  A    between atoms: N_8  and  C_9
REMARK    6  A    between atoms: C_9  and  C_10
REMARK    7  A    between atoms: C_10  and  C_11
REMARK    8  A    between atoms: C_23  and  C_24
REMARK                            x       y       z     vdW  Elec       q    Type
REMARK                         _______ _______ _______ _____ _____    ______ ____
ROOT
ATOM      1  N   UNL     1      -0.170  10.625  19.588  0.00  0.00    +0.000 N 
ATOM      2  C   UNL     1       0.762   9.606  19.812  0.00  0.00    +0.000 C 
ATOM      3  O   UNL     1       1.612   9.324  18.972  0.00  0.00    +0.000 OA
ATOM      4  N   UNL     1       0.574   8.767  20.919  0.00  0.00    +0.000 N 
ATOM      5  S   UNL     1       0.116   9.419  22.379  0.00  0.00    +0.000 S 
ATOM      6  O   UNL     1      -0.738   8.483  23.077  0.00  0.00    +0.000 OA
ATOM      7  O   UNL     1       1.285   9.991  23.009  0.00  0.00    +0.000 OA
ATOM      8  C   UNL     1      -0.914  10.764  21.934  0.00  0.00    +0.000 A 
ATOM      9  C   UNL     1      -1.673  11.346  22.969  0.00  0.00    +0.000 A 
ATOM     10  C   UNL     1      -2.515  12.427  22.709  0.00  0.00    +0.000 A 
ATOM     11  C   UNL     1      -2.583  12.898  21.395  0.00  0.00    +0.000 A 
ATOM     12  C   UNL     1      -1.829  12.296  20.370  0.00  0.00    +0.000 A 
ATOM     13  C   UNL     1      -0.977  11.203  20.614  0.00  0.00    +0.000 A 
ENDROOT
BRANCH  10  14
ATOM     14  C   UNL     1      -3.321  13.084  23.804  0.00  0.00    +0.000 C 
ATOM     15  F   UNL     1      -2.593  13.938  24.574  0.00  0.00    +0.000 F 
ATOM     16  F   UNL     1      -4.359  13.813  23.313  0.00  0.00    +0.000 F 
ATOM     17  F   UNL     1      -3.868  12.177  24.658  0.00  0.00    +0.000 F 
ENDBRANCH  10  14
BRANCH   1  18
ATOM     18  C   UNL     1      -0.380  10.925  18.163  0.00  0.00    +0.000 C 
BRANCH  18  19
ATOM     19  C   UNL     1      -1.538  10.077  17.597  0.00  0.00    +0.000 C 
BRANCH  19  21
ATOM     20  C   UNL     1      -2.774  10.402  15.440  0.00  0.00    +0.000 C 
ATOM     21  C   UNL     1      -2.580  10.913  16.862  0.00  0.00    +0.000 C 
ENDBRANCH  19  21
ENDBRANCH  18  19
ENDBRANCH   1  18
BRANCH   4  22
ATOM     22  C   UNL     1       0.358   7.303  20.733  0.00  0.00    +0.000 C 
BRANCH  22  23
ATOM     23  C   UNL     1       1.615   6.469  21.001  0.00  0.00    +0.000 C 
BRANCH  23  24
ATOM     24  C   UNL     1       1.707   5.272  20.081  0.00  0.00    +0.000 A 
ATOM     25  C   UNL     1       1.184   4.032  20.488  0.00  0.00    +0.000 A 
ATOM     26  C   UNL     1       1.257   2.924  19.643  0.00  0.00    +0.000 A 
ATOM     27  C   UNL     1       1.855   3.052  18.397  0.00  0.00    +0.000 A 
ATOM     28  F   UNL     1       1.922   1.988  17.584  0.00  0.00    +0.000 F 
ATOM     29  C   UNL     1       2.386   4.267  17.979  0.00  0.00    +0.000 A 
ATOM     30  C   UNL     1       2.315   5.379  18.823  0.00  0.00    +0.000 A 
ENDBRANCH  23  24
ENDBRANCH  22  23
ENDBRANCH   4  22
TORSDOF 7
ENDMDL
MODEL 7
REMARK VINA RESULT:      -6.8      2.358      3.117
REMARK  Name = 
REMARK  8 active torsions:
REMARK  status: ('A' for Active; 'I' for Inactive)
REMARK    1  A    between atoms: C_1  and  C_2
REMARK    2  A    between atoms: C_2  and  C_3
REMARK    3  A    between atoms: C_3  and  C_4
REMARK    4  A    between atoms: C_4  and  N_5
REMARK    5  A    between atoms: N_8  and  C_9
REMARK    6  A    between atoms: C_9  and  C_10
REMARK    7  A    between atoms: C_10  and  C_11
REMARK    8  A    between atoms: C_23  and  C_24
REMARK                            x       y       z     vdW  Elec       q    Type
REMARK                         _______ _______ _______ _____ _____    ______ ____
ROOT
ATOM      1  N   UNL     1      -0.522  10.674  19.251  0.00  0.00    +0.000 N 
ATOM      2  C   UNL     1       0.519   9.753  19.400  0.00  0.00    +0.000 C 
ATOM      3  O   UNL     1       1.223   9.427  18.448  0.00  0.00    +0.000 OA
ATOM      4  N   UNL     1       0.608   9.041  20.604  0.00  0.00    +0.000 N 
ATOM      5  S   UNL     1       0.369   9.833  22.048  0.00  0.00    +0.000 S 
ATOM      6  O   UNL     1      -0.261   8.933  22.990  0.00  0.00    +0.000 OA
ATOM      7  O   UNL     1       1.579  10.551  22.380  0.00  0.00    +0.000 OA
ATOM      8  C   UNL     1      -0.837  11.045  21.668  0.00  0.00    +0.000 A 
ATOM      9  C   UNL     1      -1.443  11.696  22.760  0.00  0.00    +0.000 A 
ATOM     10  C   UNL     1      -2.408  12.681  22.553  0.00  0.00    +0.000 A 
ATOM     11  C   UNL     1      -2.754  12.987  21.234  0.00  0.00    +0.000 A 
ATOM     12  C   UNL     1      -2.150  12.316  20.154  0.00  0.00    +0.000 A 
ATOM     13  C   UNL     1      -1.177  11.318  20.345  0.00  0.00    +0.000 A 
ENDROOT
BRANCH  10  14
ATOM     14  C   UNL     1      -3.055  13.411  23.706  0.00  0.00    +0.000 C 
ATOM     15  F   UNL     1      -4.002  14.308  23.316  0.00  0.00    +0.000 F 
ATOM     16  F   UNL     1      -3.674  12.564  24.571  0.00  0.00    +0.000 F 
ATOM     17  F   UNL     1      -2.153  14.113  24.445  0.00  0.00    +0.000 F 
ENDBRANCH  10  14
BRANCH   1  18
ATOM     18  C   UNL     1      -1.013  10.788  17.868  0.00  0.00    +0.000 C 
BRANCH  18  19
ATOM     19  C   UNL     1      -2.188   9.818  17.631  0.00  0.00    +0.000 C 
BRANCH  19  21
ATOM     20  C   UNL     1      -2.930  10.132  15.257  0.00  0.00    +0.000 C 
ATOM     21  C   UNL     1      -3.262  10.400  16.718  0.00  0.00    +0.000 C 
ENDBRANCH  19  21
ENDBRANCH  18  19
ENDBRANCH   1  18
BRANCH   4  22
ATOM     22  C   UNL     1       0.488   7.554  20.618  0.00  0.00    +0.000 C 
BRANCH  22  23
ATOM     23  C   UNL     1       1.844   6.842  20.659  0.00  0.00    +0.000 C 
BRANCH  23  24
ATOM     24  C   UNL     1       1.810   5.518  19.927  0.00  0.00    +0.000 A 
ATOM     25  C   UNL     1       2.335   5.421  18.626  0.00  0.00    +0.000 A 
ATOM     26  C   UNL     1       2.314   4.202  17.947  0.00  0.00    +0.000 A 
ATOM     27  C   UNL     1       1.768   3.085  18.562  0.00  0.00    +0.000 A 
ATOM     28  F   UNL     1       1.752   1.913  17.910  0.00  0.00    +0.000 F 
ATOM     29  C   UNL     1       1.236   3.162  19.845  0.00  0.00    +0.000 A 
ATOM     30  C   UNL     1       1.254   4.381  20.528  0.00  0.00    +0.000 A 
ENDBRANCH  23  24
ENDBRANCH  22  23
ENDBRANCH   4  22
TORSDOF 7
ENDMDL
MODEL 8
REMARK VINA RESULT:      -6.8      1.725      2.139
REMARK  Name = 
REMARK  8 active torsions:
REMARK  status: ('A' for Active; 'I' for Inactive)
REMARK    1  A    between atoms: C_1  and  C_2
REMARK    2  A    between atoms: C_2  and  C_3
REMARK    3  A    between atoms: C_3  and  C_4
REMARK    4  A    between atoms: C_4  and  N_5
REMARK    5  A    between atoms: N_8  and  C_9
REMARK    6  A    between atoms: C_9  and  C_10
REMARK    7  A    between atoms: C_10  and  C_11
REMARK    8  A    between atoms: C_23  and  C_24
REMARK                            x       y       z     vdW  Elec       q    Type
REMARK                         _______ _______ _______ _____ _____    ______ ____
ROOT
ATOM      1  N   UNL     1      -1.846  11.021  19.225  0.00  0.00    +0.000 N 
ATOM      2  C   UNL     1      -0.617  10.368  19.359  0.00  0.00    +0.000 C 
ATOM      3  O   UNL     1      -0.087   9.806  18.404  0.00  0.00    +0.000 OA
ATOM      4  N   UNL     1      -0.102  10.179  20.649  0.00  0.00    +0.000 N 
ATOM      5  S   UNL     1      -0.187  11.415  21.759  0.00  0.00    +0.000 S 
ATOM      6  O   UNL     1      -0.370  10.860  23.083  0.00  0.00    +0.000 OA
ATOM      7  O   UNL     1       0.871  12.358  21.473  0.00  0.00    +0.000 OA
ATOM      8  C   UNL     1      -1.691  12.225  21.371  0.00  0.00    +0.000 A 
ATOM      9  C   UNL     1      -2.169  13.153  22.317  0.00  0.00    +0.000 A 
ATOM     10  C   UNL     1      -3.354  13.852  22.088  0.00  0.00    +0.000 A 
ATOM     11  C   UNL     1      -4.046  13.592  20.902  0.00  0.00    +0.000 A 
ATOM     12  C   UNL     1      -3.561  12.651  19.974  0.00  0.00    +0.000 A 
ATOM     13  C   UNL     1      -2.369  11.936  20.189  0.00  0.00    +0.000 A 
ENDROOT
BRANCH  10  14
ATOM     14  C   UNL     1      -3.877  14.869  23.075  0.00  0.00    +0.000 C 
ATOM     15  F   UNL     1      -3.051  15.937  23.242  0.00  0.00    +0.000 F 
ATOM     16  F   UNL     1      -5.081  15.379  22.701  0.00  0.00    +0.000 F 
ATOM     17  F   UNL     1      -4.062  14.338  24.315  0.00  0.00    +0.000 F 
ENDBRANCH  10  14
BRANCH   1  18
ATOM     18  C   UNL     1      -2.645  10.542  18.086  0.00  0.00    +0.000 C 
BRANCH  18  19
ATOM     19  C   UNL     1      -2.381  11.409  16.838  0.00  0.00    +0.000 C 
BRANCH  19  21
ATOM     20  C   UNL     1      -2.920   9.999  14.837  0.00  0.00    +0.000 C 
ATOM     21  C   UNL     1      -3.381  11.154  15.716  0.00  0.00    +0.000 C 
ENDBRANCH  19  21
ENDBRANCH  18  19
ENDBRANCH   1  18
BRANCH   4  22
ATOM     22  C   UNL     1       0.125   8.804  21.181  0.00  0.00    +0.000 C 
BRANCH  22  23
ATOM     23  C   UNL     1       1.604   8.402  21.199  0.00  0.00    +0.000 C 
BRANCH  23  24
ATOM     24  C   UNL     1       1.895   7.273  20.236  0.00  0.00    +0.000 A 
ATOM     25  C   UNL     1       2.405   7.555  18.956  0.00  0.00    +0.000 A 
ATOM     26  C   UNL     1       2.683   6.518  18.064  0.00  0.00    +0.000 A 
ATOM     27  C   UNL     1       2.451   5.205  18.447  0.00  0.00    +0.000 A 
ATOM     28  F   UNL     1       2.722   4.209  17.590  0.00  0.00    +0.000 F 
ATOM     29  C   UNL     1       1.939   4.906  19.704  0.00  0.00    +0.000 A 
ATOM     30  C   UNL     1       1.658   5.940  20.600  0.00  0.00    +0.000 A 
ENDBRANCH  23  24
ENDBRANCH  22  23
ENDBRANCH   4  22
TORSDOF 7
ENDMDL
MODEL 9
REMARK VINA RESULT:      -6.8      1.728      2.182
REMARK  Name = 
REMARK  8 active torsions:
REMARK  status: ('A' for Active; 'I' for Inactive)
REMARK    1  A    between atoms: C_1  and  C_2
REMARK    2  A    between atoms: C_2  and  C_3
REMARK    3  A    between atoms: C_3  and  C_4
REMARK    4  A    between atoms: C_4  and  N_5
REMARK    5  A    between atoms: N_8  and  C_9
REMARK    6  A    between atoms: C_9  and  C_10
REMARK    7  A    between atoms: C_10  and  C_11
REMARK    8  A    between atoms: C_23  and  C_24
REMARK                            x       y       z     vdW  Elec       q    Type
REMARK                         _______ _______ _______ _____ _____    ______ ____
ROOT
ATOM      1  N   UNL     1      -1.798  10.940  19.150  0.00  0.00    +0.000 N 
ATOM      2  C   UNL     1      -0.573  10.282  19.295  0.00  0.00    +0.000 C 
ATOM      3  O   UNL     1      -0.054   9.688  18.354  0.00  0.00    +0.000 OA
ATOM      4  N   UNL     1      -0.051  10.126  20.587  0.00  0.00    +0.000 N 
ATOM      5  S   UNL     1      -0.120  11.395  21.662  0.00  0.00    +0.000 S 
ATOM      6  O   UNL     1      -0.298  10.879  23.002  0.00  0.00    +0.000 OA
ATOM      7  O   UNL     1       0.944  12.321  21.342  0.00  0.00    +0.000 OA
ATOM      8  C   UNL     1      -1.619  12.205  21.259  0.00  0.00    +0.000 A 
ATOM      9  C   UNL     1      -2.085  13.164  22.181  0.00  0.00    +0.000 A 
ATOM     10  C   UNL     1      -3.266  13.865  21.939  0.00  0.00    +0.000 A 
ATOM     11  C   UNL     1      -3.967  13.576  20.766  0.00  0.00    +0.000 A 
ATOM     12  C   UNL     1      -3.495  12.605  19.862  0.00  0.00    +0.000 A 
ATOM     13  C   UNL     1      -2.308  11.887  20.091  0.00  0.00    +0.000 A 
ENDROOT
BRANCH  10  14
ATOM     14  C   UNL     1      -3.775  14.914  22.900  0.00  0.00    +0.000 C 
ATOM     15  F   UNL     1      -4.583  14.412  23.872  0.00  0.00    +0.000 F 
ATOM     16  F   UNL     1      -2.764  15.556  23.545  0.00  0.00    +0.000 F 
ATOM     17  F   UNL     1      -4.497  15.882  22.271  0.00  0.00    +0.000 F 
ENDBRANCH  10  14
BRANCH   1  18
ATOM     18  C   UNL     1      -2.608  10.435  18.031  0.00  0.00    +0.000 C 
BRANCH  18  19
ATOM     19  C   UNL     1      -2.362  11.277  16.762  0.00  0.00    +0.000 C 
BRANCH  19  21
ATOM     20  C   UNL     1      -2.955  10.130  14.614  0.00  0.00    +0.000 C 
ATOM     21  C   UNL     1      -3.439  11.079  15.701  0.00  0.00    +0.000 C 
ENDBRANCH  19  21
ENDBRANCH  18  19
ENDBRANCH   1  18
BRANCH   4  22
ATOM     22  C   UNL     1       0.169   8.766  21.157  0.00  0.00    +0.000 C 
BRANCH  22  23
ATOM     23  C   UNL     1       1.644   8.349  21.169  0.00  0.00    +0.000 C 
BRANCH  23  24
ATOM     24  C   UNL     1       1.921   7.219  20.203  0.00  0.00    +0.000 A 
ATOM     25  C   UNL     1       1.665   5.890  20.584  0.00  0.00    +0.000 A 
ATOM     26  C   UNL     1       1.910   4.842  19.696  0.00  0.00    +0.000 A 
ATOM     27  C   UNL     1       2.413   5.119  18.432  0.00  0.00    +0.000 A 
ATOM     28  F   UNL     1       2.646   4.112  17.578  0.00  0.00    +0.000 F 
ATOM     29  C   UNL     1       2.681   6.426  18.039  0.00  0.00    +0.000 A 
ATOM     30  C   UNL     1       2.437   7.478  18.926  0.00  0.00    +0.000 A 
ENDBRANCH  23  24
ENDBRANCH  22  23
ENDBRANCH   4  22
TORSDOF 7
ENDMDL
