MODEL 1
REMARK VINA RESULT:      -7.1      0.000      0.000
REMARK  Name = 
REMARK  6 active torsions:
REMARK  status: ('A' for Active; 'I' for Inactive)
REMARK    1  A    between atoms: C_2  and  C_3
REMARK    2  A    between atoms: C_3  and  C_4
REMARK    3  A    between atoms: C_4  and  C_5
REMARK    4  A    between atoms: C_5  and  C_6
REMARK    5  A    between atoms: N_12  and  C_13
REMARK    6  A    between atoms: C_13  and  C_14
REMARK                            x       y       z     vdW  Elec       q    Type
REMARK                         _______ _______ _______ _____ _____    ______ ____
ROOT
ATOM      1  O   UNL     1       6.947   4.413  18.005  0.00  0.00    +0.000 OA
ATOM      2  C   UNL     1       5.876   4.887  17.642  0.00  0.00    +0.000 C 
ATOM      3  N   UNL     1       5.193   4.462  16.526  0.00  0.00    +0.000 N 
ATOM      4  H   UNL     1       4.323   4.908  16.268  0.00  0.00    +0.000 HD
ENDROOT
BRANCH   2   5
ATOM      5  C   UNL     1       5.206   6.030  18.382  0.00  0.00    +0.000 C 
BRANCH   5   6
ATOM      6  C   UNL     1       3.923   6.476  17.679  0.00  0.00    +0.000 C 
BRANCH   6   7
ATOM      7  C   UNL     1       2.760   6.640  18.661  0.00  0.00    +0.000 C 
BRANCH   7   8
ATOM      8  C   UNL     1       2.108   5.326  19.007  0.00  0.00    +0.000 A 
ATOM      9  C   UNL     1       1.819   5.013  20.342  0.00  0.00    +0.000 A 
ATOM     10  C   UNL     1       1.212   3.799  20.668  0.00  0.00    +0.000 A 
ATOM     11  C   UNL     1       0.894   2.886  19.664  0.00  0.00    +0.000 A 
ATOM     12  C   UNL     1       1.185   3.186  18.334  0.00  0.00    +0.000 A 
ATOM     13  C   UNL     1       1.791   4.400  18.006  0.00  0.00    +0.000 A 
ENDBRANCH   7   8
ENDBRANCH   6   7
ENDBRANCH   5   6
ENDBRANCH   2   5
BRANCH   3  14
ATOM     14  C   UNL     1       5.701   3.421  15.658  0.00  0.00    +0.000 C 
BRANCH  14  15
ATOM     15  C   UNL     1       6.387   4.005  14.457  0.00  0.00    +0.000 A 
ATOM     16  C   UNL     1       6.104   3.556  13.163  0.00  0.00    +0.000 A 
ATOM     17  C   UNL     1       6.763   4.118  12.072  0.00  0.00    +0.000 A 
ATOM     18  C   UNL     1       7.683   5.123  12.312  0.00  0.00    +0.000 A 
ATOM     19  N   UNL     1       7.976   5.595  13.543  0.00  0.00    +0.000 NA
ATOM     20  C   UNL     1       7.320   5.030  14.583  0.00  0.00    +0.000 A 
ENDBRANCH  14  15
ENDBRANCH   3  14
TORSDOF 6
ENDMDL
MODEL 2
REMARK VINA RESULT:      -7.0      1.734      3.330
REMARK  Name = 
REMARK  6 active torsions:
REMARK  status: ('A' for Active; 'I' for Inactive)
REMARK    1  A    between atoms: C_2  and  C_3
REMARK    2  A    between atoms: C_3  and  C_4
REMARK    3  A    between atoms: C_4  and  C_5
REMARK    4  A    between atoms: C_5  and  C_6
REMARK    5  A    between atoms: N_12  and  C_13
REMARK    6  A    between atoms: C_13  and  C_14
REMARK                            x       y       z     vdW  Elec       q    Type
REMARK                         _______ _______ _______ _____ _____    ______ ____
ROOT
ATOM      1  O   UNL     1       5.187   1.997  20.398  0.00  0.00    +0.000 OA
ATOM      2  C   UNL     1       4.305   2.410  19.651  0.00  0.00    +0.000 C 
ATOM      3  N   UNL     1       4.477   3.458  18.777  0.00  0.00    +0.000 N 
ATOM      4  H   UNL     1       3.705   3.766  18.202  0.00  0.00    +0.000 HD
ENDROOT
BRANCH   2   5
ATOM      5  C   UNL     1       2.908   1.818  19.644  0.00  0.00    +0.000 C 
BRANCH   5   6
ATOM      6  C   UNL     1       2.200   2.072  18.313  0.00  0.00    +0.000 C 
BRANCH   6   7
ATOM      7  C   UNL     1       1.035   3.055  18.463  0.00  0.00    +0.000 C 
BRANCH   7   8
ATOM      8  C   UNL     1       1.491   4.429  18.882  0.00  0.00    +0.000 A 
ATOM      9  C   UNL     1       2.044   5.305  17.939  0.00  0.00    +0.000 A 
ATOM     10  C   UNL     1       2.464   6.581  18.321  0.00  0.00    +0.000 A 
ATOM     11  C   UNL     1       2.341   6.987  19.649  0.00  0.00    +0.000 A 
ATOM     12  C   UNL     1       1.799   6.119  20.595  0.00  0.00    +0.000 A 
ATOM     13  C   UNL     1       1.377   4.844  20.215  0.00  0.00    +0.000 A 
ENDBRANCH   7   8
ENDBRANCH   6   7
ENDBRANCH   5   6
ENDBRANCH   2   5
BRANCH   3  14
ATOM     14  C   UNL     1       5.722   4.189  18.680  0.00  0.00    +0.000 C 
BRANCH  14  15
ATOM     15  C   UNL     1       6.070   4.479  17.248  0.00  0.00    +0.000 A 
ATOM     16  C   UNL     1       5.320   3.950  16.193  0.00  0.00    +0.000 A 
ATOM     17  C   UNL     1       5.673   4.236  14.877  0.00  0.00    +0.000 A 
ATOM     18  C   UNL     1       6.767   5.055  14.658  0.00  0.00    +0.000 A 
ATOM     19  N   UNL     1       7.509   5.597  15.647  0.00  0.00    +0.000 NA
ATOM     20  C   UNL     1       7.141   5.301  16.916  0.00  0.00    +0.000 A 
ENDBRANCH  14  15
ENDBRANCH   3  14
TORSDOF 6
ENDMDL
MODEL 3
REMARK VINA RESULT:      -7.0      1.784      3.303
REMARK  Name = 
REMARK  6 active torsions:
REMARK  status: ('A' for Active; 'I' for Inactive)
REMARK    1  A    between atoms: C_2  and  C_3
REMARK    2  A    between atoms: C_3  and  C_4
REMARK    3  A    between atoms: C_4  and  C_5
REMARK    4  A    between atoms: C_5  and  C_6
REMARK    5  A    between atoms: N_12  and  C_13
REMARK    6  A    between atoms: C_13  and  C_14
REMARK                            x       y       z     vdW  Elec       q    Type
REMARK                         _______ _______ _______ _____ _____    ______ ____
ROOT
ATOM      1  O   UNL     1       5.134   2.087  20.572  0.00  0.00    +0.000 OA
ATOM      2  C   UNL     1       4.242   2.482  19.828  0.00  0.00    +0.000 C 
ATOM      3  N   UNL     1       4.411   3.484  18.902  0.00  0.00    +0.000 N 
ATOM      4  H   UNL     1       3.631   3.780  18.331  0.00  0.00    +0.000 HD
ENDROOT
BRANCH   2   5
ATOM      5  C   UNL     1       2.834   1.918  19.882  0.00  0.00    +0.000 C 
BRANCH   5   6
ATOM      6  C   UNL     1       2.020   2.554  21.009  0.00  0.00    +0.000 C 
BRANCH   6   7
ATOM      7  C   UNL     1       0.916   3.470  20.471  0.00  0.00    +0.000 C 
BRANCH   7   8
ATOM      8  C   UNL     1       1.467   4.690  19.778  0.00  0.00    +0.000 A 
ATOM      9  C   UNL     1       1.862   5.806  20.526  0.00  0.00    +0.000 A 
ATOM     10  C   UNL     1       2.376   6.938  19.890  0.00  0.00    +0.000 A 
ATOM     11  C   UNL     1       2.492   6.965  18.502  0.00  0.00    +0.000 A 
ATOM     12  C   UNL     1       2.094   5.862  17.748  0.00  0.00    +0.000 A 
ATOM     13  C   UNL     1       1.581   4.729  18.383  0.00  0.00    +0.000 A 
ENDBRANCH   7   8
ENDBRANCH   6   7
ENDBRANCH   5   6
ENDBRANCH   2   5
BRANCH   3  14
ATOM     14  C   UNL     1       5.667   4.186  18.741  0.00  0.00    +0.000 C 
BRANCH  14  15
ATOM     15  C   UNL     1       5.996   4.381  17.288  0.00  0.00    +0.000 A 
ATOM     16  C   UNL     1       5.024   4.238  16.294  0.00  0.00    +0.000 A 
ATOM     17  C   UNL     1       5.365   4.422  14.956  0.00  0.00    +0.000 A 
ATOM     18  C   UNL     1       6.674   4.755  14.656  0.00  0.00    +0.000 A 
ATOM     19  N   UNL     1       7.639   4.916  15.586  0.00  0.00    +0.000 NA
ATOM     20  C   UNL     1       7.278   4.730  16.877  0.00  0.00    +0.000 A 
ENDBRANCH  14  15
ENDBRANCH   3  14
TORSDOF 6
ENDMDL
MODEL 4
REMARK VINA RESULT:      -7.0      4.895      6.336
REMARK  Name = 
REMARK  6 active torsions:
REMARK  status: ('A' for Active; 'I' for Inactive)
REMARK    1  A    between atoms: C_2  and  C_3
REMARK    2  A    between atoms: C_3  and  C_4
REMARK    3  A    between atoms: C_4  and  C_5
REMARK    4  A    between atoms: C_5  and  C_6
REMARK    5  A    between atoms: N_12  and  C_13
REMARK    6  A    between atoms: C_13  and  C_14
REMARK                            x       y       z     vdW  Elec       q    Type
REMARK                         _______ _______ _______ _____ _____    ______ ____
ROOT
ATOM      1  O   UNL     1       7.090   7.517  16.867  0.00  0.00    +0.000 OA
ATOM      2  C   UNL     1       7.727   7.428  17.911  0.00  0.00    +0.000 C 
ATOM      3  N   UNL     1       8.403   8.480  18.483  0.00  0.00    +0.000 N 
ATOM      4  H   UNL     1       8.928   8.338  19.335  0.00  0.00    +0.000 HD
ENDROOT
BRANCH   2   5
ATOM      5  C   UNL     1       7.861   6.119  18.668  0.00  0.00    +0.000 C 
BRANCH   5   6
ATOM      6  C   UNL     1       6.494   5.554  19.055  0.00  0.00    +0.000 C 
BRANCH   6   7
ATOM      7  C   UNL     1       6.018   4.483  18.069  0.00  0.00    +0.000 C 
BRANCH   7   8
ATOM      8  C   UNL     1       4.517   4.450  17.935  0.00  0.00    +0.000 A 
ATOM      9  C   UNL     1       3.749   5.549  18.342  0.00  0.00    +0.000 A 
ATOM     10  C   UNL     1       2.359   5.525  18.217  0.00  0.00    +0.000 A 
ATOM     11  C   UNL     1       1.725   4.401  17.691  0.00  0.00    +0.000 A 
ATOM     12  C   UNL     1       2.480   3.300  17.290  0.00  0.00    +0.000 A 
ATOM     13  C   UNL     1       3.871   3.322  17.413  0.00  0.00    +0.000 A 
ENDBRANCH   7   8
ENDBRANCH   6   7
ENDBRANCH   5   6
ENDBRANCH   2   5
BRANCH   3  14
ATOM     14  C   UNL     1       8.443   9.795  17.879  0.00  0.00    +0.000 C 
BRANCH  14  15
ATOM     15  C   UNL     1       9.418  10.688  18.590  0.00  0.00    +0.000 A 
ATOM     16  C   UNL     1       9.439  10.782  19.986  0.00  0.00    +0.000 A 
ATOM     17  C   UNL     1      10.354  11.624  20.612  0.00  0.00    +0.000 A 
ATOM     18  C   UNL     1      11.230  12.343  19.818  0.00  0.00    +0.000 A 
ATOM     19  N   UNL     1      11.252  12.272  18.470  0.00  0.00    +0.000 NA
ATOM     20  C   UNL     1      10.351  11.445  17.890  0.00  0.00    +0.000 A 
ENDBRANCH  14  15
ENDBRANCH   3  14
TORSDOF 6
ENDMDL
MODEL 5
REMARK VINA RESULT:      -6.9      2.007      7.067
REMARK  Name = 
REMARK  6 active torsions:
REMARK  status: ('A' for Active; 'I' for Inactive)
REMARK    1  A    between atoms: C_2  and  C_3
REMARK    2  A    between atoms: C_3  and  C_4
REMARK    3  A    between atoms: C_4  and  C_5
REMARK    4  A    between atoms: C_5  and  C_6
REMARK    5  A    between atoms: N_12  and  C_13
REMARK    6  A    between atoms: C_13  and  C_14
REMARK                            x       y       z     vdW  Elec       q    Type
REMARK                         _______ _______ _______ _____ _____    ______ ____
ROOT
ATOM      1  O   UNL     1       6.038   4.423  19.330  0.00  0.00    +0.000 OA
ATOM      2  C   UNL     1       5.353   4.836  18.400  0.00  0.00    +0.000 C 
ATOM      3  N   UNL     1       4.328   4.118  17.831  0.00  0.00    +0.000 N 
ATOM      4  H   UNL     1       3.812   4.505  17.053  0.00  0.00    +0.000 HD
ENDROOT
BRANCH   2   5
ATOM      5  C   UNL     1       5.596   6.188  17.756  0.00  0.00    +0.000 C 
BRANCH   5   6
ATOM      6  C   UNL     1       5.558   6.095  16.230  0.00  0.00    +0.000 C 
BRANCH   6   7
ATOM      7  C   UNL     1       6.860   5.526  15.659  0.00  0.00    +0.000 C 
BRANCH   7   8
ATOM      8  C   UNL     1       6.653   4.826  14.340  0.00  0.00    +0.000 A 
ATOM      9  C   UNL     1       7.593   4.972  13.311  0.00  0.00    +0.000 A 
ATOM     10  C   UNL     1       7.408   4.324  12.088  0.00  0.00    +0.000 A 
ATOM     11  C   UNL     1       6.281   3.531  11.882  0.00  0.00    +0.000 A 
ATOM     12  C   UNL     1       5.337   3.386  12.898  0.00  0.00    +0.000 A 
ATOM     13  C   UNL     1       5.520   4.033  14.121  0.00  0.00    +0.000 A 
ENDBRANCH   7   8
ENDBRANCH   6   7
ENDBRANCH   5   6
ENDBRANCH   2   5
BRANCH   3  14
ATOM     14  C   UNL     1       3.982   2.782  18.270  0.00  0.00    +0.000 C 
BRANCH  14  15
ATOM     15  C   UNL     1       3.056   2.824  19.452  0.00  0.00    +0.000 A 
ATOM     16  C   UNL     1       1.715   3.197  19.317  0.00  0.00    +0.000 A 
ATOM     17  C   UNL     1       0.886   3.229  20.435  0.00  0.00    +0.000 A 
ATOM     18  C   UNL     1       1.427   2.875  21.659  0.00  0.00    +0.000 A 
ATOM     19  N   UNL     1       2.711   2.496  21.830  0.00  0.00    +0.000 NA
ATOM     20  C   UNL     1       3.492   2.475  20.725  0.00  0.00    +0.000 A 
ENDBRANCH  14  15
ENDBRANCH   3  14
TORSDOF 6
ENDMDL
MODEL 6
REMARK VINA RESULT:      -6.9      2.434      4.434
REMARK  Name = 
REMARK  6 active torsions:
REMARK  status: ('A' for Active; 'I' for Inactive)
REMARK    1  A    between atoms: C_2  and  C_3
REMARK    2  A    between atoms: C_3  and  C_4
REMARK    3  A    between atoms: C_4  and  C_5
REMARK    4  A    between atoms: C_5  and  C_6
REMARK    5  A    between atoms: N_12  and  C_13
REMARK    6  A    between atoms: C_13  and  C_14
REMARK                            x       y       z     vdW  Elec       q    Type
REMARK                         _______ _______ _______ _____ _____    ______ ____
ROOT
ATOM      1  O   UNL     1       1.178   4.229  17.433  0.00  0.00    +0.000 OA
ATOM      2  C   UNL     1       1.868   3.811  18.357  0.00  0.00    +0.000 C 
ATOM      3  N   UNL     1       3.195   3.476  18.225  0.00  0.00    +0.000 N 
ATOM      4  H   UNL     1       3.706   3.117  19.020  0.00  0.00    +0.000 HD
ENDROOT
BRANCH   2   5
ATOM      5  C   UNL     1       1.308   3.588  19.749  0.00  0.00    +0.000 C 
BRANCH   5   6
ATOM      6  C   UNL     1       1.306   4.880  20.566  0.00  0.00    +0.000 C 
BRANCH   6   7
ATOM      7  C   UNL     1       2.548   5.733  20.290  0.00  0.00    +0.000 C 
BRANCH   7   8
ATOM      8  C   UNL     1       2.209   7.061  19.665  0.00  0.00    +0.000 A 
ATOM      9  C   UNL     1       2.637   7.357  18.364  0.00  0.00    +0.000 A 
ATOM     10  C   UNL     1       2.322   8.585  17.779  0.00  0.00    +0.000 A 
ATOM     11  C   UNL     1       1.583   9.528  18.490  0.00  0.00    +0.000 A 
ATOM     12  C   UNL     1       1.159   9.245  19.788  0.00  0.00    +0.000 A 
ATOM     13  C   UNL     1       1.472   8.018  20.375  0.00  0.00    +0.000 A 
ENDBRANCH   7   8
ENDBRANCH   6   7
ENDBRANCH   5   6
ENDBRANCH   2   5
BRANCH   3  14
ATOM     14  C   UNL     1       3.894   3.565  16.960  0.00  0.00    +0.000 C 
BRANCH  14  15
ATOM     15  C   UNL     1       5.041   4.530  17.042  0.00  0.00    +0.000 A 
ATOM     16  C   UNL     1       5.615   4.881  18.268  0.00  0.00    +0.000 A 
ATOM     17  C   UNL     1       6.675   5.783  18.307  0.00  0.00    +0.000 A 
ATOM     18  C   UNL     1       7.135   6.302  17.110  0.00  0.00    +0.000 A 
ATOM     19  N   UNL     1       6.619   5.981  15.905  0.00  0.00    +0.000 NA
ATOM     20  C   UNL     1       5.590   5.101  15.898  0.00  0.00    +0.000 A 
ENDBRANCH  14  15
ENDBRANCH   3  14
TORSDOF 6
ENDMDL
MODEL 7
REMARK VINA RESULT:      -6.8      5.163      7.921
REMARK  Name = 
REMARK  6 active torsions:
REMARK  status: ('A' for Active; 'I' for Inactive)
REMARK    1  A    between atoms: C_2  and  C_3
REMARK    2  A    between atoms: C_3  and  C_4
REMARK    3  A    between atoms: C_4  and  C_5
REMARK    4  A    between atoms: C_5  and  C_6
REMARK    5  A    between atoms: N_12  and  C_13
REMARK    6  A    between atoms: C_13  and  C_14
REMARK                            x       y       z     vdW  Elec       q    Type
REMARK                         _______ _______ _______ _____ _____    ______ ____
ROOT
ATOM      1  O   UNL     1       1.470   8.644  19.776  0.00  0.00    +0.000 OA
ATOM      2  C   UNL     1       1.597   8.979  18.603  0.00  0.00    +0.000 C 
ATOM      3  N   UNL     1       0.905  10.020  18.030  0.00  0.00    +0.000 N 
ATOM      4  H   UNL     1       1.038  10.236  17.051  0.00  0.00    +0.000 HD
ENDROOT
BRANCH   2   5
ATOM      5  C   UNL     1       2.520   8.246  17.647  0.00  0.00    +0.000 C 
BRANCH   5   6
ATOM      6  C   UNL     1       3.066   6.962  18.272  0.00  0.00    +0.000 C 
BRANCH   6   7
ATOM      7  C   UNL     1       2.282   5.727  17.819  0.00  0.00    +0.000 C 
BRANCH   7   8
ATOM      8  C   UNL     1       1.982   4.786  18.958  0.00  0.00    +0.000 A 
ATOM      9  C   UNL     1       1.300   3.586  18.718  0.00  0.00    +0.000 A 
ATOM     10  C   UNL     1       1.023   2.708  19.768  0.00  0.00    +0.000 A 
ATOM     11  C   UNL     1       1.419   3.026  21.065  0.00  0.00    +0.000 A 
ATOM     12  C   UNL     1       2.092   4.221  21.315  0.00  0.00    +0.000 A 
ATOM     13  C   UNL     1       2.371   5.100  20.266  0.00  0.00    +0.000 A 
ENDBRANCH   7   8
ENDBRANCH   6   7
ENDBRANCH   5   6
ENDBRANCH   2   5
BRANCH   3  14
ATOM     14  C   UNL     1      -0.066  10.803  18.765  0.00  0.00    +0.000 C 
BRANCH  14  15
ATOM     15  C   UNL     1      -1.411  10.762  18.098  0.00  0.00    +0.000 A 
ATOM     16  C   UNL     1      -1.683   9.871  17.055  0.00  0.00    +0.000 A 
ATOM     17  C   UNL     1      -2.940   9.864  16.457  0.00  0.00    +0.000 A 
ATOM     18  C   UNL     1      -3.894  10.747  16.930  0.00  0.00    +0.000 A 
ATOM     19  N   UNL     1      -3.678  11.613  17.943  0.00  0.00    +0.000 NA
ATOM     20  C   UNL     1      -2.446  11.597  18.505  0.00  0.00    +0.000 A 
ENDBRANCH  14  15
ENDBRANCH   3  14
TORSDOF 6
ENDMDL
MODEL 8
REMARK VINA RESULT:      -6.8      2.827      5.871
REMARK  Name = 
REMARK  6 active torsions:
REMARK  status: ('A' for Active; 'I' for Inactive)
REMARK    1  A    between atoms: C_2  and  C_3
REMARK    2  A    between atoms: C_3  and  C_4
REMARK    3  A    between atoms: C_4  and  C_5
REMARK    4  A    between atoms: C_5  and  C_6
REMARK    5  A    between atoms: N_12  and  C_13
REMARK    6  A    between atoms: C_13  and  C_14
REMARK                            x       y       z     vdW  Elec       q    Type
REMARK                         _______ _______ _______ _____ _____    ______ ____
ROOT
ATOM      1  O   UNL     1       5.853   4.222  18.822  0.00  0.00    +0.000 OA
ATOM      2  C   UNL     1       5.151   4.344  17.823  0.00  0.00    +0.000 C 
ATOM      3  N   UNL     1       4.172   3.447  17.467  0.00  0.00    +0.000 N 
ATOM      4  H   UNL     1       3.640   3.591  16.619  0.00  0.00    +0.000 HD
ENDROOT
BRANCH   2   5
ATOM      5  C   UNL     1       5.322   5.495  16.850  0.00  0.00    +0.000 C 
BRANCH   5   6
ATOM      6  C   UNL     1       4.260   6.573  17.067  0.00  0.00    +0.000 C 
BRANCH   6   7
ATOM      7  C   UNL     1       3.526   6.394  18.399  0.00  0.00    +0.000 C 
BRANCH   7   8
ATOM      8  C   UNL     1       2.604   7.545  18.708  0.00  0.00    +0.000 A 
ATOM      9  C   UNL     1       1.992   7.639  19.965  0.00  0.00    +0.000 A 
ATOM     10  C   UNL     1       1.139   8.704  20.258  0.00  0.00    +0.000 A 
ATOM     11  C   UNL     1       0.886   9.680  19.296  0.00  0.00    +0.000 A 
ATOM     12  C   UNL     1       1.484   9.591  18.040  0.00  0.00    +0.000 A 
ATOM     13  C   UNL     1       2.338   8.526  17.745  0.00  0.00    +0.000 A 
ENDBRANCH   7   8
ENDBRANCH   6   7
ENDBRANCH   5   6
ENDBRANCH   2   5
BRANCH   3  14
ATOM     14  C   UNL     1       3.898   2.252  18.237  0.00  0.00    +0.000 C 
BRANCH  14  15
ATOM     15  C   UNL     1       3.039   2.563  19.430  0.00  0.00    +0.000 A 
ATOM     16  C   UNL     1       1.762   3.114  19.288  0.00  0.00    +0.000 A 
ATOM     17  C   UNL     1       0.995   3.393  20.416  0.00  0.00    +0.000 A 
ATOM     18  C   UNL     1       1.531   3.102  21.658  0.00  0.00    +0.000 A 
ATOM     19  N   UNL     1       2.753   2.557  21.839  0.00  0.00    +0.000 NA
ATOM     20  C   UNL     1       3.475   2.297  20.724  0.00  0.00    +0.000 A 
ENDBRANCH  14  15
ENDBRANCH   3  14
TORSDOF 6
ENDMDL
MODEL 9
REMARK VINA RESULT:      -6.8      5.228      8.069
REMARK  Name = 
REMARK  6 active torsions:
REMARK  status: ('A' for Active; 'I' for Inactive)
REMARK    1  A    between atoms: C_2  and  C_3
REMARK    2  A    between atoms: C_3  and  C_4
REMARK    3  A    between atoms: C_4  and  C_5
REMARK    4  A    between atoms: C_5  and  C_6
REMARK    5  A    between atoms: N_12  and  C_13
REMARK    6  A    between atoms: C_13  and  C_14
REMARK                            x       y       z     vdW  Elec       q    Type
REMARK                         _______ _______ _______ _____ _____    ______ ____
ROOT
ATOM      1  O   UNL     1       7.704   6.625  16.277  0.00  0.00    +0.000 OA
ATOM      2  C   UNL     1       7.338   6.900  17.414  0.00  0.00    +0.000 C 
ATOM      3  N   UNL     1       6.085   6.609  17.902  0.00  0.00    +0.000 N 
ATOM      4  H   UNL     1       5.835   6.881  18.843  0.00  0.00    +0.000 HD
ENDROOT
BRANCH   2   5
ATOM      5  C   UNL     1       8.232   7.630  18.398  0.00  0.00    +0.000 C 
BRANCH   5   6
ATOM      6  C   UNL     1       8.359   9.112  18.046  0.00  0.00    +0.000 C 
BRANCH   6   7
ATOM      7  C   UNL     1       9.008   9.916  19.177  0.00  0.00    +0.000 C 
BRANCH   7   8
ATOM      8  C   UNL     1       9.539  11.246  18.708  0.00  0.00    +0.000 A 
ATOM      9  C   UNL     1       9.067  12.434  19.279  0.00  0.00    +0.000 A 
ATOM     10  C   UNL     1       9.558  13.669  18.851  0.00  0.00    +0.000 A 
ATOM     11  C   UNL     1      10.519  13.726  17.844  0.00  0.00    +0.000 A 
ATOM     12  C   UNL     1      10.990  12.549  17.264  0.00  0.00    +0.000 A 
ATOM     13  C   UNL     1      10.501  11.313  17.692  0.00  0.00    +0.000 A 
ENDBRANCH   7   8
ENDBRANCH   6   7
ENDBRANCH   5   6
ENDBRANCH   2   5
BRANCH   3  14
ATOM     14  C   UNL     1       5.069   5.968  17.094  0.00  0.00    +0.000 C 
BRANCH  14  15
ATOM     15  C   UNL     1       4.608   4.685  17.724  0.00  0.00    +0.000 A 
ATOM     16  C   UNL     1       3.620   3.893  17.130  0.00  0.00    +0.000 A 
ATOM     17  C   UNL     1       3.213   2.711  17.744  0.00  0.00    +0.000 A 
ATOM     18  C   UNL     1       3.819   2.352  18.935  0.00  0.00    +0.000 A 
ATOM     19  N   UNL     1       4.785   3.080  19.534  0.00  0.00    +0.000 NA
ATOM     20  C   UNL     1       5.160   4.223  18.914  0.00  0.00    +0.000 A 
ENDBRANCH  14  15
ENDBRANCH   3  14
TORSDOF 6
ENDMDL
