MODEL 1
REMARK VINA RESULT:      -8.8      0.000      0.000
REMARK  Name = 
REMARK  5 active torsions:
REMARK  status: ('A' for Active; 'I' for Inactive)
REMARK    1  A    between atoms: C_1  and  S_2
REMARK    2  A    between atoms: S_2  and  C_5
REMARK    3  A    between atoms: C_9  and  C_10
REMARK    4  A    between atoms: N_12  and  C_13
REMARK    5  A    between atoms: C_18  and  C_19
REMARK                            x       y       z     vdW  Elec       q    Type
REMARK                         _______ _______ _______ _____ _____    ______ ____
ROOT
ATOM      1  C   UNL     1       1.146   9.506  18.176  0.00  0.00    +0.000 A 
ATOM      2  C   UNL     1      -0.205   9.679  17.884  0.00  0.00    +0.000 A 
ATOM      3  C   UNL     1      -0.873  10.838  18.264  0.00  0.00    +0.000 A 
ATOM      4  C   UNL     1      -0.194  11.862  18.925  0.00  0.00    +0.000 A 
ATOM      5 CL   UNL     1      -1.133  13.275  19.275  0.00  0.00    +0.000 Cl
ATOM      6  C   UNL     1       1.172  11.725  19.246  0.00  0.00    +0.000 A 
ATOM      7  C   UNL     1       1.808  10.506  18.907  0.00  0.00    +0.000 A 
ENDROOT
BRANCH   6   8
ATOM      8  C   UNL     1       1.915  12.810  19.920  0.00  0.00    +0.000 A 
ATOM      9  N   UNL     1       2.027  12.946  21.231  0.00  0.00    +0.000 NA
ATOM     10  N   UNL     1       2.719  14.091  21.518  0.00  0.00    +0.000 NA
ATOM     11  C   UNL     1       3.062  14.647  20.381  0.00  0.00    +0.000 A 
ATOM     12  C   UNL     1       3.798  15.823  20.059  0.00  0.00    +0.000 A 
ATOM     13 CL   UNL     1       4.355  16.839  21.333  0.00  0.00    +0.000 Cl
ATOM     14  C   UNL     1       4.046  16.132  18.772  0.00  0.00    +0.000 A 
ATOM     15  C   UNL     1       3.546  15.303  17.689  0.00  0.00    +0.000 A 
ATOM     16  C   UNL     1       2.810  14.220  17.985  0.00  0.00    +0.000 A 
ATOM     17  N   UNL     1       2.586  13.876  19.323  0.00  0.00    +0.000 N 
ENDBRANCH   6   8
BRANCH   1  20
ATOM     18  C   UNL     1       2.406   7.405  18.616  0.00  0.00    +0.000 C 
ATOM     19  O   UNL     1       2.236   7.376  19.835  0.00  0.00    +0.000 OA
ATOM     20  N   UNL     1       1.882   8.369  17.762  0.00  0.00    +0.000 N 
ATOM     21  H   UNL     1       1.912   8.199  16.768  0.00  0.00    +0.000 HD
BRANCH  18  26
ATOM     22  C   UNL     1       5.211   5.318  17.088  0.00  0.00    +0.000 A 
ATOM     23  C   UNL     1       4.567   4.087  16.921  0.00  0.00    +0.000 A 
ATOM     24  C   UNL     1       3.244   3.954  17.322  0.00  0.00    +0.000 A 
ATOM     25  C   UNL     1       2.572   5.051  17.863  0.00  0.00    +0.000 A 
ATOM     26  C   UNL     1       3.211   6.296  18.023  0.00  0.00    +0.000 A 
ATOM     27  C   UNL     1       4.548   6.422  17.638  0.00  0.00    +0.000 A 
BRANCH  22  29
ATOM     28  C   UNL     1       6.817   4.919  14.847  0.00  0.00    +0.000 C 
ATOM     29  S   UNL     1       6.881   5.518  16.513  0.00  0.00    +0.000 S 
ATOM     30  O   UNL     1       7.703   4.609  17.292  0.00  0.00    +0.000 OA
ATOM     31  O   UNL     1       7.165   6.939  16.482  0.00  0.00    +0.000 OA
ENDBRANCH  22  29
ENDBRANCH  18  26
ENDBRANCH   1  20
TORSDOF 4
ENDMDL
MODEL 2
REMARK VINA RESULT:      -8.8      3.294      5.522
REMARK  Name = 
REMARK  5 active torsions:
REMARK  status: ('A' for Active; 'I' for Inactive)
REMARK    1  A    between atoms: C_1  and  S_2
REMARK    2  A    between atoms: S_2  and  C_5
REMARK    3  A    between atoms: C_9  and  C_10
REMARK    4  A    between atoms: N_12  and  C_13
REMARK    5  A    between atoms: C_18  and  C_19
REMARK                            x       y       z     vdW  Elec       q    Type
REMARK                         _______ _______ _______ _____ _____    ______ ____
ROOT
ATOM      1  C   UNL     1       1.493  10.143  18.121  0.00  0.00    +0.000 A 
ATOM      2  C   UNL     1       2.379  11.218  18.113  0.00  0.00    +0.000 A 
ATOM      3  C   UNL     1       1.941  12.504  18.412  0.00  0.00    +0.000 A 
ATOM      4  C   UNL     1       0.607  12.737  18.750  0.00  0.00    +0.000 A 
ATOM      5 CL   UNL     1       0.218  14.373  19.166  0.00  0.00    +0.000 Cl
ATOM      6  C   UNL     1      -0.324  11.679  18.764  0.00  0.00    +0.000 A 
ATOM      7  C   UNL     1       0.137  10.393  18.389  0.00  0.00    +0.000 A 
ENDROOT
BRANCH   6   8
ATOM      8  C   UNL     1      -1.733  11.900  19.147  0.00  0.00    +0.000 A 
ATOM      9  N   UNL     1      -2.135  12.301  20.341  0.00  0.00    +0.000 NA
ATOM     10  N   UNL     1      -3.503  12.337  20.379  0.00  0.00    +0.000 NA
ATOM     11  C   UNL     1      -3.946  11.987  19.195  0.00  0.00    +0.000 A 
ATOM     12  C   UNL     1      -5.253  11.863  18.646  0.00  0.00    +0.000 A 
ATOM     13 CL   UNL     1      -6.618  12.148  19.657  0.00  0.00    +0.000 Cl
ATOM     14  C   UNL     1      -5.412  11.523  17.352  0.00  0.00    +0.000 A 
ATOM     15  C   UNL     1      -4.269  11.242  16.502  0.00  0.00    +0.000 A 
ATOM     16  C   UNL     1      -3.035  11.309  17.028  0.00  0.00    +0.000 A 
ATOM     17  N   UNL     1      -2.867  11.702  18.361  0.00  0.00    +0.000 N 
ENDBRANCH   6   8
BRANCH   1  20
ATOM     18  C   UNL     1       2.174   7.867  18.867  0.00  0.00    +0.000 C 
ATOM     19  O   UNL     1       2.025   8.051  20.075  0.00  0.00    +0.000 OA
ATOM     20  N   UNL     1       1.902   8.808  17.879  0.00  0.00    +0.000 N 
ATOM     21  H   UNL     1       1.867   8.503  16.919  0.00  0.00    +0.000 HD
BRANCH  18  26
ATOM     22  C   UNL     1       2.584   4.104  18.387  0.00  0.00    +0.000 A 
ATOM     23  C   UNL     1       3.698   4.063  17.543  0.00  0.00    +0.000 A 
ATOM     24  C   UNL     1       4.283   5.254  17.133  0.00  0.00    +0.000 A 
ATOM     25  C   UNL     1       3.767   6.470  17.584  0.00  0.00    +0.000 A 
ATOM     26  C   UNL     1       2.652   6.517  18.445  0.00  0.00    +0.000 A 
ATOM     27  C   UNL     1       2.053   5.319  18.839  0.00  0.00    +0.000 A 
BRANCH  22  29
ATOM     28  C   UNL     1       1.656   2.876  20.709  0.00  0.00    +0.000 C 
ATOM     29  S   UNL     1       1.872   2.585  18.975  0.00  0.00    +0.000 S 
ATOM     30  O   UNL     1       2.886   1.558  18.809  0.00  0.00    +0.000 OA
ATOM     31  O   UNL     1       0.566   2.448  18.362  0.00  0.00    +0.000 OA
ENDBRANCH  22  29
ENDBRANCH  18  26
ENDBRANCH   1  20
TORSDOF 4
ENDMDL
MODEL 3
REMARK VINA RESULT:      -8.7      2.613      4.206
REMARK  Name = 
REMARK  5 active torsions:
REMARK  status: ('A' for Active; 'I' for Inactive)
REMARK    1  A    between atoms: C_1  and  S_2
REMARK    2  A    between atoms: S_2  and  C_5
REMARK    3  A    between atoms: C_9  and  C_10
REMARK    4  A    between atoms: N_12  and  C_13
REMARK    5  A    between atoms: C_18  and  C_19
REMARK                            x       y       z     vdW  Elec       q    Type
REMARK                         _______ _______ _______ _____ _____    ______ ____
ROOT
ATOM      1  C   UNL     1       1.837  10.160  18.431  0.00  0.00    +0.000 A 
ATOM      2  C   UNL     1       2.374  11.317  17.874  0.00  0.00    +0.000 A 
ATOM      3  C   UNL     1       2.031  12.572  18.367  0.00  0.00    +0.000 A 
ATOM      4  C   UNL     1       1.158  12.691  19.450  0.00  0.00    +0.000 A 
ATOM      5 CL   UNL     1       0.875  14.308  20.004  0.00  0.00    +0.000 Cl
ATOM      6  C   UNL     1       0.586  11.546  20.039  0.00  0.00    +0.000 A 
ATOM      7  C   UNL     1       0.901  10.287  19.470  0.00  0.00    +0.000 A 
ENDROOT
BRANCH   6   8
ATOM      8  C   UNL     1      -0.317  11.650  21.203  0.00  0.00    +0.000 A 
ATOM      9  N   UNL     1      -0.019  11.248  22.427  0.00  0.00    +0.000 NA
ATOM     10  N   UNL     1      -1.099  11.425  23.248  0.00  0.00    +0.000 NA
ATOM     11  C   UNL     1      -2.058  11.967  22.535  0.00  0.00    +0.000 A 
ATOM     12  C   UNL     1      -3.382  12.388  22.849  0.00  0.00    +0.000 A 
ATOM     13 CL   UNL     1      -3.986  12.136  24.442  0.00  0.00    +0.000 Cl
ATOM     14  C   UNL     1      -4.146  12.971  21.905  0.00  0.00    +0.000 A 
ATOM     15  C   UNL     1      -3.660  13.152  20.549  0.00  0.00    +0.000 A 
ATOM     16  C   UNL     1      -2.431  12.712  20.234  0.00  0.00    +0.000 A 
ATOM     17  N   UNL     1      -1.621  12.143  21.224  0.00  0.00    +0.000 N 
ENDBRANCH   6   8
BRANCH   1  20
ATOM     18  C   UNL     1       2.366   7.762  18.836  0.00  0.00    +0.000 C 
ATOM     19  O   UNL     1       2.153   7.760  20.049  0.00  0.00    +0.000 OA
ATOM     20  N   UNL     1       2.198   8.860  17.999  0.00  0.00    +0.000 N 
ATOM     21  H   UNL     1       2.208   8.711  17.002  0.00  0.00    +0.000 HD
BRANCH  18  26
ATOM     22  C   UNL     1       4.365   5.025  17.083  0.00  0.00    +0.000 A 
ATOM     23  C   UNL     1       3.462   3.958  17.138  0.00  0.00    +0.000 A 
ATOM     24  C   UNL     1       2.232   4.142  17.756  0.00  0.00    +0.000 A 
ATOM     25  C   UNL     1       1.907   5.389  18.292  0.00  0.00    +0.000 A 
ATOM     26  C   UNL     1       2.808   6.471  18.229  0.00  0.00    +0.000 A 
ATOM     27  C   UNL     1       4.052   6.278  17.625  0.00  0.00    +0.000 A 
BRANCH  22  29
ATOM     28  C   UNL     1       7.092   4.694  17.546  0.00  0.00    +0.000 C 
ATOM     29  S   UNL     1       5.912   4.820  16.231  0.00  0.00    +0.000 S 
ATOM     30  O   UNL     1       6.160   6.059  15.514  0.00  0.00    +0.000 OA
ATOM     31  O   UNL     1       5.861   3.552  15.532  0.00  0.00    +0.000 OA
ENDBRANCH  22  29
ENDBRANCH  18  26
ENDBRANCH   1  20
TORSDOF 4
ENDMDL
MODEL 4
REMARK VINA RESULT:      -8.6      3.818      4.866
REMARK  Name = 
REMARK  5 active torsions:
REMARK  status: ('A' for Active; 'I' for Inactive)
REMARK    1  A    between atoms: C_1  and  S_2
REMARK    2  A    between atoms: S_2  and  C_5
REMARK    3  A    between atoms: C_9  and  C_10
REMARK    4  A    between atoms: N_12  and  C_13
REMARK    5  A    between atoms: C_18  and  C_19
REMARK                            x       y       z     vdW  Elec       q    Type
REMARK                         _______ _______ _______ _____ _____    ______ ____
ROOT
ATOM      1  C   UNL     1       1.440   8.624  20.119  0.00  0.00    +0.000 A 
ATOM      2  C   UNL     1       1.661   8.777  21.486  0.00  0.00    +0.000 A 
ATOM      3  C   UNL     1       0.861   9.623  22.247  0.00  0.00    +0.000 A 
ATOM      4  C   UNL     1      -0.196  10.318  21.657  0.00  0.00    +0.000 A 
ATOM      5 CL   UNL     1      -1.150  11.280  22.735  0.00  0.00    +0.000 Cl
ATOM      6  C   UNL     1      -0.450  10.198  20.275  0.00  0.00    +0.000 A 
ATOM      7  C   UNL     1       0.423   9.382  19.515  0.00  0.00    +0.000 A 
ENDROOT
BRANCH   6   8
ATOM      8  C   UNL     1      -1.581  10.902  19.638  0.00  0.00    +0.000 A 
ATOM      9  N   UNL     1      -2.263  11.890  20.193  0.00  0.00    +0.000 NA
ATOM     10  N   UNL     1      -3.285  12.268  19.365  0.00  0.00    +0.000 NA
ATOM     11  C   UNL     1      -3.216  11.530  18.283  0.00  0.00    +0.000 A 
ATOM     12  C   UNL     1      -3.990  11.486  17.088  0.00  0.00    +0.000 A 
ATOM     13 CL   UNL     1      -5.356  12.522  16.935  0.00  0.00    +0.000 Cl
ATOM     14  C   UNL     1      -3.651  10.639  16.097  0.00  0.00    +0.000 A 
ATOM     15  C   UNL     1      -2.525   9.732  16.232  0.00  0.00    +0.000 A 
ATOM     16  C   UNL     1      -1.822   9.735  17.376  0.00  0.00    +0.000 A 
ATOM     17  N   UNL     1      -2.147  10.644  18.390  0.00  0.00    +0.000 N 
ENDBRANCH   6   8
BRANCH   1  20
ATOM     18  C   UNL     1       2.360   6.377  19.572  0.00  0.00    +0.000 C 
ATOM     19  O   UNL     1       1.820   5.762  20.493  0.00  0.00    +0.000 OA
ATOM     20  N   UNL     1       2.191   7.733  19.314  0.00  0.00    +0.000 N 
ATOM     21  H   UNL     1       2.514   8.099  18.432  0.00  0.00    +0.000 HD
BRANCH  18  26
ATOM     22  C   UNL     1       5.343   4.950  17.668  0.00  0.00    +0.000 A 
ATOM     23  C   UNL     1       4.713   3.996  16.862  0.00  0.00    +0.000 A 
ATOM     24  C   UNL     1       3.339   3.823  16.964  0.00  0.00    +0.000 A 
ATOM     25  C   UNL     1       2.605   4.615  17.849  0.00  0.00    +0.000 A 
ATOM     26  C   UNL     1       3.233   5.585  18.655  0.00  0.00    +0.000 A 
ATOM     27  C   UNL     1       4.617   5.744  18.566  0.00  0.00    +0.000 A 
BRANCH  22  29
ATOM     28  C   UNL     1       7.232   6.993  17.546  0.00  0.00    +0.000 C 
ATOM     29  S   UNL     1       7.090   5.228  17.495  0.00  0.00    +0.000 S 
ATOM     30  O   UNL     1       7.453   4.781  16.161  0.00  0.00    +0.000 OA
ATOM     31  O   UNL     1       7.739   4.677  18.667  0.00  0.00    +0.000 OA
ENDBRANCH  22  29
ENDBRANCH  18  26
ENDBRANCH   1  20
TORSDOF 4
ENDMDL
MODEL 5
REMARK VINA RESULT:      -8.6      2.705      4.871
REMARK  Name = 
REMARK  5 active torsions:
REMARK  status: ('A' for Active; 'I' for Inactive)
REMARK    1  A    between atoms: C_1  and  S_2
REMARK    2  A    between atoms: S_2  and  C_5
REMARK    3  A    between atoms: C_9  and  C_10
REMARK    4  A    between atoms: N_12  and  C_13
REMARK    5  A    between atoms: C_18  and  C_19
REMARK                            x       y       z     vdW  Elec       q    Type
REMARK                         _______ _______ _______ _____ _____    ______ ____
ROOT
ATOM      1  C   UNL     1       1.516  10.184  18.053  0.00  0.00    +0.000 A 
ATOM      2  C   UNL     1       2.395  11.263  18.075  0.00  0.00    +0.000 A 
ATOM      3  C   UNL     1       1.949  12.539  18.407  0.00  0.00    +0.000 A 
ATOM      4  C   UNL     1       0.613  12.754  18.748  0.00  0.00    +0.000 A 
ATOM      5 CL   UNL     1       0.212  14.376  19.206  0.00  0.00    +0.000 Cl
ATOM      6  C   UNL     1      -0.312  11.690  18.732  0.00  0.00    +0.000 A 
ATOM      7  C   UNL     1       0.158  10.418  18.324  0.00  0.00    +0.000 A 
ENDROOT
BRANCH   6   8
ATOM      8  C   UNL     1      -1.723  11.893  19.117  0.00  0.00    +0.000 A 
ATOM      9  N   UNL     1      -2.129  12.283  20.314  0.00  0.00    +0.000 NA
ATOM     10  N   UNL     1      -3.497  12.302  20.354  0.00  0.00    +0.000 NA
ATOM     11  C   UNL     1      -3.937  11.952  19.169  0.00  0.00    +0.000 A 
ATOM     12  C   UNL     1      -5.243  11.816  18.620  0.00  0.00    +0.000 A 
ATOM     13 CL   UNL     1      -6.610  12.079  19.634  0.00  0.00    +0.000 Cl
ATOM     14  C   UNL     1      -5.399  11.481  17.325  0.00  0.00    +0.000 A 
ATOM     15  C   UNL     1      -4.254  11.217  16.472  0.00  0.00    +0.000 A 
ATOM     16  C   UNL     1      -3.020  11.297  16.997  0.00  0.00    +0.000 A 
ATOM     17  N   UNL     1      -2.856  11.685  18.331  0.00  0.00    +0.000 N 
ENDBRANCH   6   8
BRANCH   1  20
ATOM     18  C   UNL     1       2.205   7.892  18.739  0.00  0.00    +0.000 C 
ATOM     19  O   UNL     1       2.047   8.041  19.951  0.00  0.00    +0.000 OA
ATOM     20  N   UNL     1       1.934   8.858  17.776  0.00  0.00    +0.000 N 
ATOM     21  H   UNL     1       1.907   8.579  16.808  0.00  0.00    +0.000 HD
BRANCH  18  26
ATOM     22  C   UNL     1       4.386   4.972  17.611  0.00  0.00    +0.000 A 
ATOM     23  C   UNL     1       3.423   3.975  17.427  0.00  0.00    +0.000 A 
ATOM     24  C   UNL     1       2.090   4.263  17.688  0.00  0.00    +0.000 A 
ATOM     25  C   UNL     1       1.728   5.544  18.108  0.00  0.00    +0.000 A 
ATOM     26  C   UNL     1       2.693   6.556  18.283  0.00  0.00    +0.000 A 
ATOM     27  C   UNL     1       4.035   6.259  18.039  0.00  0.00    +0.000 A 
BRANCH  22  29
ATOM     28  C   UNL     1       6.713   6.214  16.714  0.00  0.00    +0.000 C 
ATOM     29  S   UNL     1       6.085   4.634  17.211  0.00  0.00    +0.000 S 
ATOM     30  O   UNL     1       6.075   3.762  16.050  0.00  0.00    +0.000 OA
ATOM     31  O   UNL     1       6.751   4.235  18.435  0.00  0.00    +0.000 OA
ENDBRANCH  22  29
ENDBRANCH  18  26
ENDBRANCH   1  20
TORSDOF 4
ENDMDL
MODEL 6
REMARK VINA RESULT:      -8.6      2.268      2.897
REMARK  Name = 
REMARK  5 active torsions:
REMARK  status: ('A' for Active; 'I' for Inactive)
REMARK    1  A    between atoms: C_1  and  S_2
REMARK    2  A    between atoms: S_2  and  C_5
REMARK    3  A    between atoms: C_9  and  C_10
REMARK    4  A    between atoms: N_12  and  C_13
REMARK    5  A    between atoms: C_18  and  C_19
REMARK                            x       y       z     vdW  Elec       q    Type
REMARK                         _______ _______ _______ _____ _____    ______ ____
ROOT
ATOM      1  C   UNL     1       1.557   8.460  20.074  0.00  0.00    +0.000 A 
ATOM      2  C   UNL     1       1.078   8.134  21.340  0.00  0.00    +0.000 A 
ATOM      3  C   UNL     1       0.306   9.037  22.064  0.00  0.00    +0.000 A 
ATOM      4  C   UNL     1      -0.025  10.279  21.522  0.00  0.00    +0.000 A 
ATOM      5 CL   UNL     1      -1.049  11.273  22.504  0.00  0.00    +0.000 Cl
ATOM      6  C   UNL     1       0.445  10.653  20.246  0.00  0.00    +0.000 A 
ATOM      7  C   UNL     1       1.285   9.740  19.563  0.00  0.00    +0.000 A 
ENDROOT
BRANCH   6   8
ATOM      8  C   UNL     1       0.082  11.951  19.643  0.00  0.00    +0.000 A 
ATOM      9  N   UNL     1      -0.712  12.101  18.596  0.00  0.00    +0.000 NA
ATOM     10  N   UNL     1      -0.782  13.424  18.255  0.00  0.00    +0.000 NA
ATOM     11  C   UNL     1      -0.053  14.097  19.114  0.00  0.00    +0.000 A 
ATOM     12  C   UNL     1       0.230  15.484  19.268  0.00  0.00    +0.000 A 
ATOM     13 CL   UNL     1      -0.407  16.603  18.125  0.00  0.00    +0.000 Cl
ATOM     14  C   UNL     1       0.992  15.906  20.296  0.00  0.00    +0.000 A 
ATOM     15  C   UNL     1       1.568  14.967  21.242  0.00  0.00    +0.000 A 
ATOM     16  C   UNL     1       1.344  13.654  21.073  0.00  0.00    +0.000 A 
ATOM     17  N   UNL     1       0.519  13.217  20.029  0.00  0.00    +0.000 N 
ENDBRANCH   6   8
BRANCH   1  20
ATOM     18  C   UNL     1       2.465   6.202  19.552  0.00  0.00    +0.000 C 
ATOM     19  O   UNL     1       1.929   5.602  20.484  0.00  0.00    +0.000 OA
ATOM     20  N   UNL     1       2.299   7.555  19.276  0.00  0.00    +0.000 N 
ATOM     21  H   UNL     1       2.618   7.908  18.387  0.00  0.00    +0.000 HD
BRANCH  18  26
ATOM     22  C   UNL     1       5.420   4.784  17.598  0.00  0.00    +0.000 A 
ATOM     23  C   UNL     1       4.794   3.767  16.870  0.00  0.00    +0.000 A 
ATOM     24  C   UNL     1       3.432   3.551  17.038  0.00  0.00    +0.000 A 
ATOM     25  C   UNL     1       2.706   4.361  17.912  0.00  0.00    +0.000 A 
ATOM     26  C   UNL     1       3.329   5.395  18.640  0.00  0.00    +0.000 A 
ATOM     27  C   UNL     1       4.702   5.597  18.484  0.00  0.00    +0.000 A 
BRANCH  22  29
ATOM     28  C   UNL     1       7.267   6.868  17.555  0.00  0.00    +0.000 C 
ATOM     29  S   UNL     1       7.146   5.115  17.336  0.00  0.00    +0.000 S 
ATOM     30  O   UNL     1       7.422   4.811  15.943  0.00  0.00    +0.000 OA
ATOM     31  O   UNL     1       7.883   4.463  18.400  0.00  0.00    +0.000 OA
ENDBRANCH  22  29
ENDBRANCH  18  26
ENDBRANCH   1  20
TORSDOF 4
ENDMDL
MODEL 7
REMARK VINA RESULT:      -8.5      2.791      4.452
REMARK  Name = 
REMARK  5 active torsions:
REMARK  status: ('A' for Active; 'I' for Inactive)
REMARK    1  A    between atoms: C_1  and  S_2
REMARK    2  A    between atoms: S_2  and  C_5
REMARK    3  A    between atoms: C_9  and  C_10
REMARK    4  A    between atoms: N_12  and  C_13
REMARK    5  A    between atoms: C_18  and  C_19
REMARK                            x       y       z     vdW  Elec       q    Type
REMARK                         _______ _______ _______ _____ _____    ______ ____
ROOT
ATOM      1  C   UNL     1       1.688  10.320  18.054  0.00  0.00    +0.000 A 
ATOM      2  C   UNL     1       2.537  11.420  17.963  0.00  0.00    +0.000 A 
ATOM      3  C   UNL     1       2.103  12.688  18.338  0.00  0.00    +0.000 A 
ATOM      4  C   UNL     1       0.813  12.875  18.837  0.00  0.00    +0.000 A 
ATOM      5 CL   UNL     1       0.432  14.492  19.329  0.00  0.00    +0.000 Cl
ATOM      6  C   UNL     1      -0.081  11.790  18.939  0.00  0.00    +0.000 A 
ATOM      7  C   UNL     1       0.367  10.525  18.485  0.00  0.00    +0.000 A 
ENDROOT
BRANCH   6   8
ATOM      8  C   UNL     1      -1.440  11.963  19.491  0.00  0.00    +0.000 A 
ATOM      9  N   UNL     1      -2.550  11.969  18.772  0.00  0.00    +0.000 NA
ATOM     10  N   UNL     1      -3.623  12.221  19.584  0.00  0.00    +0.000 NA
ATOM     11  C   UNL     1      -3.177  12.342  20.812  0.00  0.00    +0.000 A 
ATOM     12  C   UNL     1      -3.821  12.583  22.058  0.00  0.00    +0.000 A 
ATOM     13 CL   UNL     1      -5.522  12.848  22.087  0.00  0.00    +0.000 Cl
ATOM     14  C   UNL     1      -3.099  12.608  23.196  0.00  0.00    +0.000 A 
ATOM     15  C   UNL     1      -1.659  12.427  23.178  0.00  0.00    +0.000 A 
ATOM     16  C   UNL     1      -1.040  12.247  22.000  0.00  0.00    +0.000 A 
ATOM     17  N   UNL     1      -1.793  12.180  20.822  0.00  0.00    +0.000 N 
ENDBRANCH   6   8
BRANCH   1  20
ATOM     18  C   UNL     1       2.281   7.981  18.664  0.00  0.00    +0.000 C 
ATOM     19  O   UNL     1       2.034   8.069  19.868  0.00  0.00    +0.000 OA
ATOM     20  N   UNL     1       2.102   9.002  17.738  0.00  0.00    +0.000 N 
ATOM     21  H   UNL     1       2.143   8.776  16.757  0.00  0.00    +0.000 HD
BRANCH  18  26
ATOM     22  C   UNL     1       4.394   5.189  17.148  0.00  0.00    +0.000 A 
ATOM     23  C   UNL     1       3.543   4.091  17.312  0.00  0.00    +0.000 A 
ATOM     24  C   UNL     1       2.310   4.274  17.925  0.00  0.00    +0.000 A 
ATOM     25  C   UNL     1       1.930   5.549  18.347  0.00  0.00    +0.000 A 
ATOM     26  C   UNL     1       2.778   6.661  18.174  0.00  0.00    +0.000 A 
ATOM     27  C   UNL     1       4.026   6.471  17.576  0.00  0.00    +0.000 A 
BRANCH  22  29
ATOM     28  C   UNL     1       7.072   4.570  17.604  0.00  0.00    +0.000 C 
ATOM     29  S   UNL     1       5.943   4.978  16.302  0.00  0.00    +0.000 S 
ATOM     30  O   UNL     1       6.309   6.280  15.772  0.00  0.00    +0.000 OA
ATOM     31  O   UNL     1       5.810   3.829  15.428  0.00  0.00    +0.000 OA
ENDBRANCH  22  29
ENDBRANCH  18  26
ENDBRANCH   1  20
TORSDOF 4
ENDMDL
MODEL 8
REMARK VINA RESULT:      -8.5      3.428      5.384
REMARK  Name = 
REMARK  5 active torsions:
REMARK  status: ('A' for Active; 'I' for Inactive)
REMARK    1  A    between atoms: C_1  and  S_2
REMARK    2  A    between atoms: S_2  and  C_5
REMARK    3  A    between atoms: C_9  and  C_10
REMARK    4  A    between atoms: N_12  and  C_13
REMARK    5  A    between atoms: C_18  and  C_19
REMARK                            x       y       z     vdW  Elec       q    Type
REMARK                         _______ _______ _______ _____ _____    ______ ____
ROOT
ATOM      1  C   UNL     1       1.437  10.113  18.088  0.00  0.00    +0.000 A 
ATOM      2  C   UNL     1       2.289  11.208  18.201  0.00  0.00    +0.000 A 
ATOM      3  C   UNL     1       1.789  12.474  18.490  0.00  0.00    +0.000 A 
ATOM      4  C   UNL     1       0.421  12.664  18.695  0.00  0.00    +0.000 A 
ATOM      5 CL   UNL     1      -0.053  14.276  19.115  0.00  0.00    +0.000 Cl
ATOM      6  C   UNL     1      -0.477  11.584  18.583  0.00  0.00    +0.000 A 
ATOM      7  C   UNL     1       0.055  10.322  18.221  0.00  0.00    +0.000 A 
ENDROOT
BRANCH   6   8
ATOM      8  C   UNL     1      -1.924  11.759  18.825  0.00  0.00    +0.000 A 
ATOM      9  N   UNL     1      -2.864  11.624  17.905  0.00  0.00    +0.000 NA
ATOM     10  N   UNL     1      -4.085  11.923  18.445  0.00  0.00    +0.000 NA
ATOM     11  C   UNL     1      -3.902  12.215  19.711  0.00  0.00    +0.000 A 
ATOM     12  C   UNL     1      -4.791  12.578  20.762  0.00  0.00    +0.000 A 
ATOM     13 CL   UNL     1      -6.468  12.763  20.415  0.00  0.00    +0.000 Cl
ATOM     14  C   UNL     1      -4.318  12.778  22.007  0.00  0.00    +0.000 A 
ATOM     15  C   UNL     1      -2.900  12.664  22.301  0.00  0.00    +0.000 A 
ATOM     16  C   UNL     1      -2.051  12.369  21.304  0.00  0.00    +0.000 A 
ATOM     17  N   UNL     1      -2.546  12.122  20.018  0.00  0.00    +0.000 N 
ENDBRANCH   6   8
BRANCH   1  20
ATOM     18  C   UNL     1       2.166   7.855  18.841  0.00  0.00    +0.000 C 
ATOM     19  O   UNL     1       1.956   8.019  20.043  0.00  0.00    +0.000 OA
ATOM     20  N   UNL     1       1.904   8.797  17.851  0.00  0.00    +0.000 N 
ATOM     21  H   UNL     1       1.924   8.501  16.888  0.00  0.00    +0.000 HD
BRANCH  18  26
ATOM     22  C   UNL     1       2.768   4.114  18.392  0.00  0.00    +0.000 A 
ATOM     23  C   UNL     1       3.878   4.123  17.540  0.00  0.00    +0.000 A 
ATOM     24  C   UNL     1       4.398   5.340  17.116  0.00  0.00    +0.000 A 
ATOM     25  C   UNL     1       3.821   6.530  17.560  0.00  0.00    +0.000 A 
ATOM     26  C   UNL     1       2.711   6.528  18.427  0.00  0.00    +0.000 A 
ATOM     27  C   UNL     1       2.178   5.304  18.837  0.00  0.00    +0.000 A 
BRANCH  22  29
ATOM     28  C   UNL     1       2.276   2.726  20.756  0.00  0.00    +0.000 C 
ATOM     29  S   UNL     1       2.141   2.565  18.997  0.00  0.00    +0.000 S 
ATOM     30  O   UNL     1       3.072   1.539  18.562  0.00  0.00    +0.000 OA
ATOM     31  O   UNL     1       0.737   2.495  18.645  0.00  0.00    +0.000 OA
ENDBRANCH  22  29
ENDBRANCH  18  26
ENDBRANCH   1  20
TORSDOF 4
ENDMDL
MODEL 9
REMARK VINA RESULT:      -8.5      2.840      4.675
REMARK  Name = 
REMARK  5 active torsions:
REMARK  status: ('A' for Active; 'I' for Inactive)
REMARK    1  A    between atoms: C_1  and  S_2
REMARK    2  A    between atoms: S_2  and  C_5
REMARK    3  A    between atoms: C_9  and  C_10
REMARK    4  A    between atoms: N_12  and  C_13
REMARK    5  A    between atoms: C_18  and  C_19
REMARK                            x       y       z     vdW  Elec       q    Type
REMARK                         _______ _______ _______ _____ _____    ______ ____
ROOT
ATOM      1  C   UNL     1       1.507  10.205  18.013  0.00  0.00    +0.000 A 
ATOM      2  C   UNL     1       2.339  11.310  18.172  0.00  0.00    +0.000 A 
ATOM      3  C   UNL     1       1.815  12.554  18.508  0.00  0.00    +0.000 A 
ATOM      4  C   UNL     1       0.443  12.711  18.716  0.00  0.00    +0.000 A 
ATOM      5 CL   UNL     1      -0.061  14.297  19.197  0.00  0.00    +0.000 Cl
ATOM      6  C   UNL     1      -0.435  11.620  18.558  0.00  0.00    +0.000 A 
ATOM      7  C   UNL     1       0.121  10.383  18.149  0.00  0.00    +0.000 A 
ENDROOT
BRANCH   6   8
ATOM      8  C   UNL     1      -1.885  11.760  18.802  0.00  0.00    +0.000 A 
ATOM      9  N   UNL     1      -2.823  11.595  17.884  0.00  0.00    +0.000 NA
ATOM     10  N   UNL     1      -4.051  11.866  18.425  0.00  0.00    +0.000 NA
ATOM     11  C   UNL     1      -3.873  12.169  19.689  0.00  0.00    +0.000 A 
ATOM     12  C   UNL     1      -4.770  12.515  20.739  0.00  0.00    +0.000 A 
ATOM     13 CL   UNL     1      -6.451  12.655  20.394  0.00  0.00    +0.000 Cl
ATOM     14  C   UNL     1      -4.300  12.733  21.982  0.00  0.00    +0.000 A 
ATOM     15  C   UNL     1      -2.879  12.657  22.275  0.00  0.00    +0.000 A 
ATOM     16  C   UNL     1      -2.024  12.380  21.278  0.00  0.00    +0.000 A 
ATOM     17  N   UNL     1      -2.515  12.113  19.995  0.00  0.00    +0.000 N 
ENDBRANCH   6   8
BRANCH   1  20
ATOM     18  C   UNL     1       2.234   7.918  18.675  0.00  0.00    +0.000 C 
ATOM     19  O   UNL     1       1.977   8.017  19.875  0.00  0.00    +0.000 OA
ATOM     20  N   UNL     1       1.999   8.908  17.726  0.00  0.00    +0.000 N 
ATOM     21  H   UNL     1       2.059   8.663  16.750  0.00  0.00    +0.000 HD
BRANCH  18  26
ATOM     22  C   UNL     1       4.588   5.183  17.434  0.00  0.00    +0.000 A 
ATOM     23  C   UNL     1       3.717   4.090  17.371  0.00  0.00    +0.000 A 
ATOM     24  C   UNL     1       2.390   4.258  17.748  0.00  0.00    +0.000 A 
ATOM     25  C   UNL     1       1.941   5.513  18.161  0.00  0.00    +0.000 A 
ATOM     26  C   UNL     1       2.811   6.620  18.215  0.00  0.00    +0.000 A 
ATOM     27  C   UNL     1       4.149   6.445  17.855  0.00  0.00    +0.000 A 
BRANCH  22  29
ATOM     28  C   UNL     1       6.142   3.833  15.557  0.00  0.00    +0.000 C 
ATOM     29  S   UNL     1       6.269   4.996  16.887  0.00  0.00    +0.000 S 
ATOM     30  O   UNL     1       6.994   4.365  17.976  0.00  0.00    +0.000 OA
ATOM     31  O   UNL     1       6.696   6.271  16.348  0.00  0.00    +0.000 OA
ENDBRANCH  22  29
ENDBRANCH  18  26
ENDBRANCH   1  20
TORSDOF 4
ENDMDL
