MODEL 1
REMARK VINA RESULT:      -6.6      0.000      0.000
REMARK  Name = 
REMARK  17 active torsions:
REMARK  status: ('A' for Active; 'I' for Inactive)
REMARK    1  A    between atoms: C_1  and  N_2
REMARK    2  A    between atoms: N_2  and  C_3
REMARK    3  A    between atoms: N_2  and  C_4
REMARK    4  A    between atoms: N_12  and  C_13
REMARK    5  A    between atoms: C_13  and  C_14
REMARK    6  A    between atoms: C_14  and  S_15
REMARK    7  A    between atoms: S_15  and  C_16
REMARK    8  A    between atoms: C_16  and  C_17
REMARK    9  A    between atoms: C_17  and  O_18
REMARK   10  A    between atoms: O_18  and  C_19
REMARK   11  A    between atoms: N_21  and  CA_22
REMARK   12  A    between atoms: CA_22  and  CB_23
REMARK   13  A    between atoms: CA_22  and  C_30
REMARK   14  A    between atoms: CB_23  and  CG_24
REMARK   15  A    between atoms: CG_24  and  CD_25
REMARK   16  A    between atoms: CD_25  and  NE_26
REMARK   17  A    between atoms: C_30  and  OXT_32
REMARK                            x       y       z     vdW  Elec       q    Type
REMARK                         _______ _______ _______ _____ _____    ______ ____
ROOT
ATOM      1  C   UNK A   0       7.669   6.568  18.140  0.00  0.00    +0.000 C 
ATOM      2  O   UNK A   0       7.250   5.812  19.006  0.00  0.00    +0.000 OA
ATOM      3  N   ARG A   1       7.434   6.416  16.812  0.00  0.00    +0.000 N 
ATOM      4  H   ARG A   1       7.878   7.072  16.180  0.00  0.00    +0.000 HD
ENDROOT
BRANCH   1   5
ATOM      5  O   UNK A   0       8.387   7.693  18.357  0.00  0.00    +0.000 OA
BRANCH   5   6
ATOM      6  C   UNK A   0       7.785   8.907  17.863  0.00  0.00    +0.000 C 
BRANCH   6   7
ATOM      7  C   UNK A   0       8.814  10.035  17.865  0.00  0.00    +0.000 C 
BRANCH   7   8
ATOM      8  S   UNK A   0       9.332  10.434  19.567  0.00  0.00    +0.000 S 
BRANCH   8   9
ATOM      9  C   UNK A   0      10.843  11.392  19.192  0.00  0.00    +0.000 C 
BRANCH   9  10
ATOM     10  C   UNK A   0      10.482  12.578  18.303  0.00  0.00    +0.000 C 
BRANCH  10  19
ATOM     11  C   UNK A   0       6.892  15.606  19.620  0.00  0.00    +0.000 A 
ATOM     12  N   UNK A   0       6.078  15.220  18.587  0.00  0.00    +0.000 NA
ATOM     13  C   UNK A   0       6.520  14.311  17.691  0.00  0.00    +0.000 A 
ATOM     14  N   UNK A   0       7.705  13.675  17.655  0.00  0.00    +0.000 NA
ATOM     15  C   UNK A   0       8.477  14.058  18.685  0.00  0.00    +0.000 A 
ATOM     16  C   UNK A   0       8.168  14.982  19.672  0.00  0.00    +0.000 A 
ATOM     17  N   UNK A   0       9.229  15.103  20.559  0.00  0.00    +0.000 NA
ATOM     18  C   UNK A   0      10.132  14.249  20.132  0.00  0.00    +0.000 A 
ATOM     19  N   UNK A   0       9.735  13.615  18.989  0.00  0.00    +0.000 N 
BRANCH  11  21
ATOM     20  C   UNK A   0       6.841  17.922  20.386  0.00  0.00    +0.000 C 
ATOM     21  N   UNK A   0       6.429  16.541  20.539  0.00  0.00    +0.000 N 
ATOM     22  C   UNK A   0       5.912  16.078  21.812  0.00  0.00    +0.000 C 
ENDBRANCH  11  21
ENDBRANCH  10  19
ENDBRANCH   9  10
ENDBRANCH   8   9
ENDBRANCH   7   8
ENDBRANCH   6   7
ENDBRANCH   5   6
ENDBRANCH   1   5
BRANCH   3  23
ATOM     23  CA  ARG A   1       6.466   5.459  16.293  0.00  0.00    +0.000 C 
BRANCH  23  24
ATOM     24  C   ARG A   1       6.953   4.881  14.956  0.00  0.00    +0.000 C 
ATOM     25  O   ARG A   1       6.496   3.871  14.441  0.00  0.00    +0.000 OA
BRANCH  24  26
ATOM     26  OXT ARG A   1       7.978   5.567  14.396  0.00  0.00    +0.000 OA
ATOM     27  HXT ARG A   1       8.627   5.030  13.905  0.00  0.00    +0.000 HD
ENDBRANCH  24  26
ENDBRANCH  23  24
BRANCH  23  28
ATOM     28  CB  ARG A   1       5.081   6.120  16.150  0.00  0.00    +0.000 C 
BRANCH  28  29
ATOM     29  CG  ARG A   1       4.107   5.700  17.258  0.00  0.00    +0.000 C 
BRANCH  29  30
ATOM     30  CD  ARG A   1       4.041   4.184  17.429  0.00  0.00    +0.000 C 
BRANCH  30  31
ATOM     31  NE  ARG A   1       3.407   3.874  18.696  0.00  0.00    +0.000 N 
ATOM     32  CZ  ARG A   1       3.938   3.047  19.621  0.00  0.00    +0.000 C 
ATOM     33  NH1 ARG A   1       5.115   2.543  19.650  0.00  0.00    +0.000 NA
ATOM     34  NH2 ARG A   1       3.070   2.775  20.611  0.00  0.00    +0.000 N 
ATOM     35  HE  ARG A   1       2.396   3.804  18.653  0.00  0.00    +0.000 HD
ATOM     36  HH1 ARG A   1       5.639   2.849  18.831  0.00  0.00    +0.000 HD
ATOM     37 HH21 ARG A   1       2.516   3.565  20.909  0.00  0.00    +0.000 HD
ATOM     38 HH22 ARG A   1       3.567   2.360  21.394  0.00  0.00    +0.000 HD
ENDBRANCH  30  31
ENDBRANCH  29  30
ENDBRANCH  28  29
ENDBRANCH  23  28
ENDBRANCH   3  23
TORSDOF 15
ENDMDL
MODEL 2
REMARK VINA RESULT:      -6.5      7.191      9.097
REMARK  Name = 
REMARK  17 active torsions:
REMARK  status: ('A' for Active; 'I' for Inactive)
REMARK    1  A    between atoms: C_1  and  N_2
REMARK    2  A    between atoms: N_2  and  C_3
REMARK    3  A    between atoms: N_2  and  C_4
REMARK    4  A    between atoms: N_12  and  C_13
REMARK    5  A    between atoms: C_13  and  C_14
REMARK    6  A    between atoms: C_14  and  S_15
REMARK    7  A    between atoms: S_15  and  C_16
REMARK    8  A    between atoms: C_16  and  C_17
REMARK    9  A    between atoms: C_17  and  O_18
REMARK   10  A    between atoms: O_18  and  C_19
REMARK   11  A    between atoms: N_21  and  CA_22
REMARK   12  A    between atoms: CA_22  and  CB_23
REMARK   13  A    between atoms: CA_22  and  C_30
REMARK   14  A    between atoms: CB_23  and  CG_24
REMARK   15  A    between atoms: CG_24  and  CD_25
REMARK   16  A    between atoms: CD_25  and  NE_26
REMARK   17  A    between atoms: C_30  and  OXT_32
REMARK                            x       y       z     vdW  Elec       q    Type
REMARK                         _______ _______ _______ _____ _____    ______ ____
ROOT
ATOM      1  C   UNK A   0       1.893   4.517  20.549  0.00  0.00    +0.000 C 
ATOM      2  O   UNK A   0       1.144   3.591  20.829  0.00  0.00    +0.000 OA
ATOM      3  N   ARG A   1       2.799   4.490  19.538  0.00  0.00    +0.000 N 
ATOM      4  H   ARG A   1       3.407   5.294  19.433  0.00  0.00    +0.000 HD
ENDROOT
BRANCH   1   5
ATOM      5  O   UNK A   0       1.913   5.725  21.156  0.00  0.00    +0.000 OA
BRANCH   5   6
ATOM      6  C   UNK A   0       1.061   6.724  20.560  0.00  0.00    +0.000 C 
BRANCH   6   7
ATOM      7  C   UNK A   0       1.782   8.069  20.528  0.00  0.00    +0.000 C 
BRANCH   7   8
ATOM      8  S   UNK A   0       0.616   9.433  20.851  0.00  0.00    +0.000 S 
BRANCH   8   9
ATOM      9  C   UNK A   0       0.256   9.920  19.126  0.00  0.00    +0.000 C 
BRANCH   9  10
ATOM     10  C   UNK A   0      -0.101  11.404  19.084  0.00  0.00    +0.000 C 
BRANCH  10  19
ATOM     11  C   UNK A   0      -4.651  11.524  17.330  0.00  0.00    +0.000 A 
ATOM     12  N   UNK A   0      -4.282  11.004  16.116  0.00  0.00    +0.000 NA
ATOM     13  C   UNK A   0      -2.983  10.733  15.871  0.00  0.00    +0.000 A 
ATOM     14  N   UNK A   0      -1.924  10.890  16.687  0.00  0.00    +0.000 NA
ATOM     15  C   UNK A   0      -2.312  11.385  17.873  0.00  0.00    +0.000 A 
ATOM     16  C   UNK A   0      -3.599  11.722  18.265  0.00  0.00    +0.000 A 
ATOM     17  N   UNK A   0      -3.589  12.200  19.569  0.00  0.00    +0.000 NA
ATOM     18  C   UNK A   0      -2.336  12.119  19.954  0.00  0.00    +0.000 A 
ATOM     19  N   UNK A   0      -1.523  11.658  18.957  0.00  0.00    +0.000 N 
BRANCH  11  21
ATOM     20  C   UNK A   0      -6.472  13.147  17.338  0.00  0.00    +0.000 C 
ATOM     21  N   UNK A   0      -5.991  11.801  17.574  0.00  0.00    +0.000 N 
ATOM     22  C   UNK A   0      -6.752  10.898  18.416  0.00  0.00    +0.000 C 
ENDBRANCH  11  21
ENDBRANCH  10  19
ENDBRANCH   9  10
ENDBRANCH   8   9
ENDBRANCH   7   8
ENDBRANCH   6   7
ENDBRANCH   5   6
ENDBRANCH   1   5
BRANCH   3  23
ATOM     23  CA  ARG A   1       2.821   3.435  18.535  0.00  0.00    +0.000 C 
BRANCH  23  24
ATOM     24  C   ARG A   1       3.879   2.380  18.893  0.00  0.00    +0.000 C 
ATOM     25  O   ARG A   1       3.779   1.192  18.623  0.00  0.00    +0.000 OA
BRANCH  24  26
ATOM     26  OXT ARG A   1       4.937   2.870  19.582  0.00  0.00    +0.000 OA
ATOM     27  HXT ARG A   1       4.743   3.614  20.182  0.00  0.00    +0.000 HD
ENDBRANCH  24  26
ENDBRANCH  23  24
BRANCH  23  28
ATOM     28  CB  ARG A   1       3.070   4.030  17.136  0.00  0.00    +0.000 C 
BRANCH  28  29
ATOM     29  CG  ARG A   1       4.545   3.969  16.719  0.00  0.00    +0.000 C 
BRANCH  29  30
ATOM     30  CD  ARG A   1       5.190   5.352  16.660  0.00  0.00    +0.000 C 
BRANCH  30  31
ATOM     31  NE  ARG A   1       6.085   5.509  17.790  0.00  0.00    +0.000 N 
ATOM     32  CZ  ARG A   1       7.277   4.886  17.898  0.00  0.00    +0.000 C 
ATOM     33  NH1 ARG A   1       7.905   4.218  17.004  0.00  0.00    +0.000 NA
ATOM     34  NH2 ARG A   1       7.820   5.044  19.119  0.00  0.00    +0.000 N 
ATOM     35  HE  ARG A   1       5.618   5.603  18.686  0.00  0.00    +0.000 HD
ATOM     36  HH1 ARG A   1       7.357   4.197  16.144  0.00  0.00    +0.000 HD
ATOM     37 HH21 ARG A   1       7.702   5.967  19.511  0.00  0.00    +0.000 HD
ATOM     38 HH22 ARG A   1       8.800   4.779  19.091  0.00  0.00    +0.000 HD
ENDBRANCH  30  31
ENDBRANCH  29  30
ENDBRANCH  28  29
ENDBRANCH  23  28
ENDBRANCH   3  23
TORSDOF 15
ENDMDL
MODEL 3
REMARK VINA RESULT:      -6.5      2.539      3.283
REMARK  Name = 
REMARK  17 active torsions:
REMARK  status: ('A' for Active; 'I' for Inactive)
REMARK    1  A    between atoms: C_1  and  N_2
REMARK    2  A    between atoms: N_2  and  C_3
REMARK    3  A    between atoms: N_2  and  C_4
REMARK    4  A    between atoms: N_12  and  C_13
REMARK    5  A    between atoms: C_13  and  C_14
REMARK    6  A    between atoms: C_14  and  S_15
REMARK    7  A    between atoms: S_15  and  C_16
REMARK    8  A    between atoms: C_16  and  C_17
REMARK    9  A    between atoms: C_17  and  O_18
REMARK   10  A    between atoms: O_18  and  C_19
REMARK   11  A    between atoms: N_21  and  CA_22
REMARK   12  A    between atoms: CA_22  and  CB_23
REMARK   13  A    between atoms: CA_22  and  C_30
REMARK   14  A    between atoms: CB_23  and  CG_24
REMARK   15  A    between atoms: CG_24  and  CD_25
REMARK   16  A    between atoms: CD_25  and  NE_26
REMARK   17  A    between atoms: C_30  and  OXT_32
REMARK                            x       y       z     vdW  Elec       q    Type
REMARK                         _______ _______ _______ _____ _____    ______ ____
ROOT
ATOM      1  C   UNK A   0       7.810   7.847  17.965  0.00  0.00    +0.000 C 
ATOM      2  O   UNK A   0       8.394   7.182  18.810  0.00  0.00    +0.000 OA
ATOM      3  N   ARG A   1       6.842   7.364  17.145  0.00  0.00    +0.000 N 
ATOM      4  H   ARG A   1       6.467   7.992  16.443  0.00  0.00    +0.000 HD
ENDROOT
BRANCH   1   5
ATOM      5  O   UNK A   0       7.993   9.167  17.737  0.00  0.00    +0.000 OA
BRANCH   5   6
ATOM      6  C   UNK A   0       8.833   9.842  18.696  0.00  0.00    +0.000 C 
BRANCH   6   7
ATOM      7  C   UNK A   0       9.190  11.235  18.184  0.00  0.00    +0.000 C 
BRANCH   7   8
ATOM      8  S   UNK A   0      10.639  11.897  19.070  0.00  0.00    +0.000 S 
BRANCH   8   9
ATOM      9  C   UNK A   0      10.228  13.678  19.007  0.00  0.00    +0.000 C 
BRANCH   9  10
ATOM     10  C   UNK A   0       8.788  13.880  19.469  0.00  0.00    +0.000 C 
BRANCH  10  19
ATOM     11  C   UNK A   0       8.375  13.914  24.329  0.00  0.00    +0.000 A 
ATOM     12  N   UNK A   0       8.196  12.557  24.403  0.00  0.00    +0.000 NA
ATOM     13  C   UNK A   0       8.159  11.823  23.270  0.00  0.00    +0.000 A 
ATOM     14  N   UNK A   0       8.291  12.238  21.997  0.00  0.00    +0.000 NA
ATOM     15  C   UNK A   0       8.481  13.567  21.951  0.00  0.00    +0.000 A 
ATOM     16  C   UNK A   0       8.531  14.448  23.021  0.00  0.00    +0.000 A 
ATOM     17  N   UNK A   0       8.745  15.741  22.562  0.00  0.00    +0.000 NA
ATOM     18  C   UNK A   0       8.853  15.628  21.258  0.00  0.00    +0.000 A 
ATOM     19  N   UNK A   0       8.675  14.340  20.840  0.00  0.00    +0.000 N 
BRANCH  11  21
ATOM     20  C   UNK A   0       9.102  14.110  26.650  0.00  0.00    +0.000 C 
ATOM     21  N   UNK A   0       8.412  14.661  25.500  0.00  0.00    +0.000 N 
ATOM     22  C   UNK A   0       7.451  15.733  25.679  0.00  0.00    +0.000 C 
ENDBRANCH  11  21
ENDBRANCH  10  19
ENDBRANCH   9  10
ENDBRANCH   8   9
ENDBRANCH   7   8
ENDBRANCH   6   7
ENDBRANCH   5   6
ENDBRANCH   1   5
BRANCH   3  23
ATOM     23  CA  ARG A   1       6.234   6.055  17.338  0.00  0.00    +0.000 C 
BRANCH  23  24
ATOM     24  C   ARG A   1       7.193   4.949  16.875  0.00  0.00    +0.000 C 
ATOM     25  O   ARG A   1       7.473   4.730  15.705  0.00  0.00    +0.000 OA
BRANCH  24  26
ATOM     26  OXT ARG A   1       7.689   4.189  17.882  0.00  0.00    +0.000 OA
ATOM     27  HXT ARG A   1       8.549   4.475  18.242  0.00  0.00    +0.000 HD
ENDBRANCH  24  26
ENDBRANCH  23  24
BRANCH  23  28
ATOM     28  CB  ARG A   1       4.884   5.976  16.599  0.00  0.00    +0.000 C 
BRANCH  28  29
ATOM     29  CG  ARG A   1       3.799   5.269  17.422  0.00  0.00    +0.000 C 
BRANCH  29  30
ATOM     30  CD  ARG A   1       3.722   3.774  17.120  0.00  0.00    +0.000 C 
BRANCH  30  31
ATOM     31  NE  ARG A   1       4.532   3.051  18.082  0.00  0.00    +0.000 N 
ATOM     32  CZ  ARG A   1       4.041   2.489  19.206  0.00  0.00    +0.000 C 
ATOM     33  NH1 ARG A   1       2.816   2.329  19.542  0.00  0.00    +0.000 NA
ATOM     34  NH2 ARG A   1       5.020   2.053  20.020  0.00  0.00    +0.000 N 
ATOM     35  HE  ARG A   1       5.462   3.432  18.217  0.00  0.00    +0.000 HD
ATOM     36  HH1 ARG A   1       2.209   2.713  18.818  0.00  0.00    +0.000 HD
ATOM     37 HH21 ARG A   1       5.796   1.618  19.542  0.00  0.00    +0.000 HD
ATOM     38 HH22 ARG A   1       4.626   1.433  20.722  0.00  0.00    +0.000 HD
ENDBRANCH  30  31
ENDBRANCH  29  30
ENDBRANCH  28  29
ENDBRANCH  23  28
ENDBRANCH   3  23
TORSDOF 15
ENDMDL
MODEL 4
REMARK VINA RESULT:      -6.4      6.555      8.241
REMARK  Name = 
REMARK  17 active torsions:
REMARK  status: ('A' for Active; 'I' for Inactive)
REMARK    1  A    between atoms: C_1  and  N_2
REMARK    2  A    between atoms: N_2  and  C_3
REMARK    3  A    between atoms: N_2  and  C_4
REMARK    4  A    between atoms: N_12  and  C_13
REMARK    5  A    between atoms: C_13  and  C_14
REMARK    6  A    between atoms: C_14  and  S_15
REMARK    7  A    between atoms: S_15  and  C_16
REMARK    8  A    between atoms: C_16  and  C_17
REMARK    9  A    between atoms: C_17  and  O_18
REMARK   10  A    between atoms: O_18  and  C_19
REMARK   11  A    between atoms: N_21  and  CA_22
REMARK   12  A    between atoms: CA_22  and  CB_23
REMARK   13  A    between atoms: CA_22  and  C_30
REMARK   14  A    between atoms: CB_23  and  CG_24
REMARK   15  A    between atoms: CG_24  and  CD_25
REMARK   16  A    between atoms: CD_25  and  NE_26
REMARK   17  A    between atoms: C_30  and  OXT_32
REMARK                            x       y       z     vdW  Elec       q    Type
REMARK                         _______ _______ _______ _____ _____    ______ ____
ROOT
ATOM      1  C   UNK A   0       4.320   6.293  18.522  0.00  0.00    +0.000 C 
ATOM      2  O   UNK A   0       4.198   5.615  19.534  0.00  0.00    +0.000 OA
ATOM      3  N   ARG A   1       5.122   5.969  17.476  0.00  0.00    +0.000 N 
ATOM      4  H   ARG A   1       5.188   6.634  16.715  0.00  0.00    +0.000 HD
ENDROOT
BRANCH   1   5
ATOM      5  O   UNK A   0       3.651   7.437  18.257  0.00  0.00    +0.000 OA
BRANCH   5   6
ATOM      6  C   UNK A   0       2.224   7.372  18.452  0.00  0.00    +0.000 C 
BRANCH   6   7
ATOM      7  C   UNK A   0       1.707   8.715  18.962  0.00  0.00    +0.000 C 
BRANCH   7   8
ATOM      8  S   UNK A   0       1.220   8.595  20.714  0.00  0.00    +0.000 S 
BRANCH   8   9
ATOM      9  C   UNK A   0       0.640  10.310  20.971  0.00  0.00    +0.000 C 
BRANCH   9  10
ATOM     10  C   UNK A   0       0.401  10.971  19.615  0.00  0.00    +0.000 C 
BRANCH  10  19
ATOM     11  C   UNK A   0      -4.079  11.067  17.690  0.00  0.00    +0.000 A 
ATOM     12  N   UNK A   0      -3.739  10.236  16.655  0.00  0.00    +0.000 NA
ATOM     13  C   UNK A   0      -2.468   9.797  16.538  0.00  0.00    +0.000 A 
ATOM     14  N   UNK A   0      -1.415  10.053  17.336  0.00  0.00    +0.000 NA
ATOM     15  C   UNK A   0      -1.776  10.855  18.351  0.00  0.00    +0.000 A 
ATOM     16  C   UNK A   0      -3.032  11.392  18.595  0.00  0.00    +0.000 A 
ATOM     17  N   UNK A   0      -3.001  12.172  19.743  0.00  0.00    +0.000 NA
ATOM     18  C   UNK A   0      -1.770  12.074  20.190  0.00  0.00    +0.000 A 
ATOM     19  N   UNK A   0      -0.987  11.313  19.370  0.00  0.00    +0.000 N 
BRANCH  11  21
ATOM     20  C   UNK A   0      -5.810  12.636  16.987  0.00  0.00    +0.000 C 
ATOM     21  N   UNK A   0      -5.391  11.514  17.802  0.00  0.00    +0.000 N 
ATOM     22  C   UNK A   0      -6.160  11.146  18.975  0.00  0.00    +0.000 C 
ENDBRANCH  11  21
ENDBRANCH  10  19
ENDBRANCH   9  10
ENDBRANCH   8   9
ENDBRANCH   7   8
ENDBRANCH   6   7
ENDBRANCH   5   6
ENDBRANCH   1   5
BRANCH   3  23
ATOM     23  CA  ARG A   1       5.754   4.664  17.349  0.00  0.00    +0.000 C 
BRANCH  23  24
ATOM     24  C   ARG A   1       7.227   4.821  16.945  0.00  0.00    +0.000 C 
ATOM     25  O   ARG A   1       8.144   4.176  17.433  0.00  0.00    +0.000 OA
BRANCH  24  26
ATOM     26  OXT ARG A   1       7.446   5.779  16.013  0.00  0.00    +0.000 OA
ATOM     27  HXT ARG A   1       8.227   5.644  15.444  0.00  0.00    +0.000 HD
ENDBRANCH  24  26
ENDBRANCH  23  24
BRANCH  23  28
ATOM     28  CB  ARG A   1       4.983   3.790  16.341  0.00  0.00    +0.000 C 
BRANCH  28  29
ATOM     29  CG  ARG A   1       3.528   3.545  16.759  0.00  0.00    +0.000 C 
BRANCH  29  30
ATOM     30  CD  ARG A   1       3.423   2.735  18.050  0.00  0.00    +0.000 C 
BRANCH  30  31
ATOM     31  NE  ARG A   1       2.193   3.085  18.733  0.00  0.00    +0.000 N 
ATOM     32  CZ  ARG A   1       2.041   3.047  20.074  0.00  0.00    +0.000 C 
ATOM     33  NH1 ARG A   1       2.942   2.883  20.969  0.00  0.00    +0.000 NA
ATOM     34  NH2 ARG A   1       0.759   3.225  20.440  0.00  0.00    +0.000 N 
ATOM     35  HE  ARG A   1       1.348   2.812  18.243  0.00  0.00    +0.000 HD
ATOM     36  HH1 ARG A   1       3.850   2.764  20.523  0.00  0.00    +0.000 HD
ATOM     37 HH21 ARG A   1       0.265   3.922  19.902  0.00  0.00    +0.000 HD
ATOM     38 HH22 ARG A   1       0.715   3.431  21.435  0.00  0.00    +0.000 HD
ENDBRANCH  30  31
ENDBRANCH  29  30
ENDBRANCH  28  29
ENDBRANCH  23  28
ENDBRANCH   3  23
TORSDOF 15
ENDMDL
MODEL 5
REMARK VINA RESULT:      -6.4      5.552      7.636
REMARK  Name = 
REMARK  17 active torsions:
REMARK  status: ('A' for Active; 'I' for Inactive)
REMARK    1  A    between atoms: C_1  and  N_2
REMARK    2  A    between atoms: N_2  and  C_3
REMARK    3  A    between atoms: N_2  and  C_4
REMARK    4  A    between atoms: N_12  and  C_13
REMARK    5  A    between atoms: C_13  and  C_14
REMARK    6  A    between atoms: C_14  and  S_15
REMARK    7  A    between atoms: S_15  and  C_16
REMARK    8  A    between atoms: C_16  and  C_17
REMARK    9  A    between atoms: C_17  and  O_18
REMARK   10  A    between atoms: O_18  and  C_19
REMARK   11  A    between atoms: N_21  and  CA_22
REMARK   12  A    between atoms: CA_22  and  CB_23
REMARK   13  A    between atoms: CA_22  and  C_30
REMARK   14  A    between atoms: CB_23  and  CG_24
REMARK   15  A    between atoms: CG_24  and  CD_25
REMARK   16  A    between atoms: CD_25  and  NE_26
REMARK   17  A    between atoms: C_30  and  OXT_32
REMARK                            x       y       z     vdW  Elec       q    Type
REMARK                         _______ _______ _______ _____ _____    ______ ____
ROOT
ATOM      1  C   UNK A   0       5.099   4.287  18.184  0.00  0.00    +0.000 C 
ATOM      2  O   UNK A   0       5.065   5.408  18.675  0.00  0.00    +0.000 OA
ATOM      3  N   ARG A   1       6.063   3.855  17.332  0.00  0.00    +0.000 N 
ATOM      4  H   ARG A   1       5.959   2.925  16.942  0.00  0.00    +0.000 HD
ENDROOT
BRANCH   1   5
ATOM      5  O   UNK A   0       4.223   3.290  18.439  0.00  0.00    +0.000 OA
BRANCH   5   6
ATOM      6  C   UNK A   0       4.388   2.643  19.717  0.00  0.00    +0.000 C 
BRANCH   6   7
ATOM      7  C   UNK A   0       3.354   3.176  20.706  0.00  0.00    +0.000 C 
BRANCH   7   8
ATOM      8  S   UNK A   0       1.667   2.980  20.045  0.00  0.00    +0.000 S 
BRANCH   8   9
ATOM      9  C   UNK A   0       1.062   4.689  20.286  0.00  0.00    +0.000 C 
BRANCH   9  10
ATOM     10  C   UNK A   0       2.250   5.647  20.305  0.00  0.00    +0.000 C 
BRANCH  10  19
ATOM     11  C   UNK A   0       1.103  10.345  19.670  0.00  0.00    +0.000 A 
ATOM     12  N   UNK A   0       0.777  10.527  20.989  0.00  0.00    +0.000 NA
ATOM     13  C   UNK A   0       0.839   9.484  21.844  0.00  0.00    +0.000 A 
ATOM     14  N   UNK A   0       1.206   8.213  21.593  0.00  0.00    +0.000 NA
ATOM     15  C   UNK A   0       1.536   8.065  20.300  0.00  0.00    +0.000 A 
ATOM     16  C   UNK A   0       1.511   9.034  19.307  0.00  0.00    +0.000 A 
ATOM     17  N   UNK A   0       1.923   8.487  18.099  0.00  0.00    +0.000 NA
ATOM     18  C   UNK A   0       2.218   7.236  18.372  0.00  0.00    +0.000 A 
ATOM     19  N   UNK A   0       1.975   6.927  19.680  0.00  0.00    +0.000 N 
BRANCH  11  21
ATOM     20  C   UNK A   0       2.275  12.012  18.327  0.00  0.00    +0.000 C 
ATOM     21  N   UNK A   0       1.036  11.425  18.798  0.00  0.00    +0.000 N 
ATOM     22  C   UNK A   0      -0.201  12.178  18.707  0.00  0.00    +0.000 C 
ENDBRANCH  11  21
ENDBRANCH  10  19
ENDBRANCH   9  10
ENDBRANCH   8   9
ENDBRANCH   7   8
ENDBRANCH   6   7
ENDBRANCH   5   6
ENDBRANCH   1   5
BRANCH   3  23
ATOM     23  CA  ARG A   1       7.286   4.606  17.087  0.00  0.00    +0.000 C 
BRANCH  23  24
ATOM     24  C   ARG A   1       7.667   5.424  18.329  0.00  0.00    +0.000 C 
ATOM     25  O   ARG A   1       8.100   4.936  19.363  0.00  0.00    +0.000 OA
BRANCH  24  26
ATOM     26  OXT ARG A   1       7.446   6.754  18.205  0.00  0.00    +0.000 OA
ATOM     27  HXT ARG A   1       6.528   7.046  18.359  0.00  0.00    +0.000 HD
ENDBRANCH  24  26
ENDBRANCH  23  24
BRANCH  23  28
ATOM     28  CB  ARG A   1       7.123   5.506  15.847  0.00  0.00    +0.000 C 
BRANCH  28  29
ATOM     29  CG  ARG A   1       5.953   5.077  14.952  0.00  0.00    +0.000 C 
BRANCH  29  30
ATOM     30  CD  ARG A   1       6.393   4.138  13.831  0.00  0.00    +0.000 C 
BRANCH  30  31
ATOM     31  NE  ARG A   1       5.259   3.856  12.973  0.00  0.00    +0.000 N 
ATOM     32  CZ  ARG A   1       5.270   2.929  11.991  0.00  0.00    +0.000 C 
ATOM     33  NH1 ARG A   1       6.161   2.041  11.751  0.00  0.00    +0.000 NA
ATOM     34  NH2 ARG A   1       4.171   3.000  11.220  0.00  0.00    +0.000 N 
ATOM     35  HE  ARG A   1       4.707   4.670  12.726  0.00  0.00    +0.000 HD
ATOM     36  HH1 ARG A   1       6.921   2.127  12.425  0.00  0.00    +0.000 HD
ATOM     37 HH21 ARG A   1       3.316   3.178  11.728  0.00  0.00    +0.000 HD
ATOM     38 HH22 ARG A   1       4.095   2.155  10.659  0.00  0.00    +0.000 HD
ENDBRANCH  30  31
ENDBRANCH  29  30
ENDBRANCH  28  29
ENDBRANCH  23  28
ENDBRANCH   3  23
TORSDOF 15
ENDMDL
MODEL 6
REMARK VINA RESULT:      -6.4      5.862      6.759
REMARK  Name = 
REMARK  17 active torsions:
REMARK  status: ('A' for Active; 'I' for Inactive)
REMARK    1  A    between atoms: C_1  and  N_2
REMARK    2  A    between atoms: N_2  and  C_3
REMARK    3  A    between atoms: N_2  and  C_4
REMARK    4  A    between atoms: N_12  and  C_13
REMARK    5  A    between atoms: C_13  and  C_14
REMARK    6  A    between atoms: C_14  and  S_15
REMARK    7  A    between atoms: S_15  and  C_16
REMARK    8  A    between atoms: C_16  and  C_17
REMARK    9  A    between atoms: C_17  and  O_18
REMARK   10  A    between atoms: O_18  and  C_19
REMARK   11  A    between atoms: N_21  and  CA_22
REMARK   12  A    between atoms: CA_22  and  CB_23
REMARK   13  A    between atoms: CA_22  and  C_30
REMARK   14  A    between atoms: CB_23  and  CG_24
REMARK   15  A    between atoms: CG_24  and  CD_25
REMARK   16  A    between atoms: CD_25  and  NE_26
REMARK   17  A    between atoms: C_30  and  OXT_32
REMARK                            x       y       z     vdW  Elec       q    Type
REMARK                         _______ _______ _______ _____ _____    ______ ____
ROOT
ATOM      1  C   UNK A   0       5.716   4.979  19.235  0.00  0.00    +0.000 C 
ATOM      2  O   UNK A   0       4.930   5.552  19.976  0.00  0.00    +0.000 OA
ATOM      3  N   ARG A   1       5.518   3.738  18.721  0.00  0.00    +0.000 N 
ATOM      4  H   ARG A   1       6.265   3.338  18.164  0.00  0.00    +0.000 HD
ENDROOT
BRANCH   1   5
ATOM      5  O   UNK A   0       6.877   5.492  18.770  0.00  0.00    +0.000 OA
BRANCH   5   6
ATOM      6  C   UNK A   0       6.983   5.563  17.333  0.00  0.00    +0.000 C 
BRANCH   6   7
ATOM      7  C   UNK A   0       6.374   6.870  16.831  0.00  0.00    +0.000 C 
BRANCH   7   8
ATOM      8  S   UNK A   0       4.588   6.673  16.521  0.00  0.00    +0.000 S 
BRANCH   8   9
ATOM      9  C   UNK A   0       3.949   7.893  17.724  0.00  0.00    +0.000 C 
BRANCH   9  10
ATOM     10  C   UNK A   0       2.555   7.471  18.179  0.00  0.00    +0.000 C 
BRANCH  10  19
ATOM     11  C   UNK A   0       0.152  10.694  20.941  0.00  0.00    +0.000 A 
ATOM     12  N   UNK A   0       0.469  10.051  22.109  0.00  0.00    +0.000 NA
ATOM     13  C   UNK A   0       1.185   8.907  22.070  0.00  0.00    +0.000 A 
ATOM     14  N   UNK A   0       1.679   8.261  20.997  0.00  0.00    +0.000 NA
ATOM     15  C   UNK A   0       1.369   8.919  19.868  0.00  0.00    +0.000 A 
ATOM     16  C   UNK A   0       0.637  10.091  19.749  0.00  0.00    +0.000 A 
ATOM     17  N   UNK A   0       0.533  10.453  18.412  0.00  0.00    +0.000 NA
ATOM     18  C   UNK A   0       1.215   9.541  17.757  0.00  0.00    +0.000 A 
ATOM     19  N   UNK A   0       1.715   8.580  18.589  0.00  0.00    +0.000 N 
BRANCH  11  21
ATOM     20  C   UNK A   0      -0.382  12.767  22.111  0.00  0.00    +0.000 C 
ATOM     21  N   UNK A   0      -0.585  11.871  20.991  0.00  0.00    +0.000 N 
ATOM     22  C   UNK A   0      -1.788  11.980  20.187  0.00  0.00    +0.000 C 
ENDBRANCH  11  21
ENDBRANCH  10  19
ENDBRANCH   9  10
ENDBRANCH   8   9
ENDBRANCH   7   8
ENDBRANCH   6   7
ENDBRANCH   5   6
ENDBRANCH   1   5
BRANCH   3  23
ATOM     23  CA  ARG A   1       4.241   3.046  18.817  0.00  0.00    +0.000 C 
BRANCH  23  24
ATOM     24  C   ARG A   1       4.459   1.574  19.197  0.00  0.00    +0.000 C 
ATOM     25  O   ARG A   1       3.941   0.632  18.615  0.00  0.00    +0.000 OA
BRANCH  24  26
ATOM     26  OXT ARG A   1       5.256   1.394  20.278  0.00  0.00    +0.000 OA
ATOM     27  HXT ARG A   1       5.059   1.960  21.047  0.00  0.00    +0.000 HD
ENDBRANCH  24  26
ENDBRANCH  23  24
BRANCH  23  28
ATOM     28  CB  ARG A   1       3.459   3.177  17.495  0.00  0.00    +0.000 C 
BRANCH  28  29
ATOM     29  CG  ARG A   1       1.946   3.010  17.682  0.00  0.00    +0.000 C 
BRANCH  29  30
ATOM     30  CD  ARG A   1       1.371   4.011  18.682  0.00  0.00    +0.000 C 
BRANCH  30  31
ATOM     31  NE  ARG A   1       1.115   3.334  19.939  0.00  0.00    +0.000 N 
ATOM     32  CZ  ARG A   1       1.678   3.690  21.113  0.00  0.00    +0.000 C 
ATOM     33  NH1 ARG A   1       2.365   4.738  21.377  0.00  0.00    +0.000 NA
ATOM     34  NH2 ARG A   1       1.433   2.789  22.083  0.00  0.00    +0.000 N 
ATOM     35  HE  ARG A   1       0.996   2.330  19.859  0.00  0.00    +0.000 HD
ATOM     36  HH1 ARG A   1       2.455   5.309  20.537  0.00  0.00    +0.000 HD
ATOM     37 HH21 ARG A   1       0.497   2.412  22.073  0.00  0.00    +0.000 HD
ATOM     38 HH22 ARG A   1       1.656   3.196  22.987  0.00  0.00    +0.000 HD
ENDBRANCH  30  31
ENDBRANCH  29  30
ENDBRANCH  28  29
ENDBRANCH  23  28
ENDBRANCH   3  23
TORSDOF 15
ENDMDL
MODEL 7
REMARK VINA RESULT:      -6.4      7.110      8.741
REMARK  Name = 
REMARK  17 active torsions:
REMARK  status: ('A' for Active; 'I' for Inactive)
REMARK    1  A    between atoms: C_1  and  N_2
REMARK    2  A    between atoms: N_2  and  C_3
REMARK    3  A    between atoms: N_2  and  C_4
REMARK    4  A    between atoms: N_12  and  C_13
REMARK    5  A    between atoms: C_13  and  C_14
REMARK    6  A    between atoms: C_14  and  S_15
REMARK    7  A    between atoms: S_15  and  C_16
REMARK    8  A    between atoms: C_16  and  C_17
REMARK    9  A    between atoms: C_17  and  O_18
REMARK   10  A    between atoms: O_18  and  C_19
REMARK   11  A    between atoms: N_21  and  CA_22
REMARK   12  A    between atoms: CA_22  and  CB_23
REMARK   13  A    between atoms: CA_22  and  C_30
REMARK   14  A    between atoms: CB_23  and  CG_24
REMARK   15  A    between atoms: CG_24  and  CD_25
REMARK   16  A    between atoms: CD_25  and  NE_26
REMARK   17  A    between atoms: C_30  and  OXT_32
REMARK                            x       y       z     vdW  Elec       q    Type
REMARK                         _______ _______ _______ _____ _____    ______ ____
ROOT
ATOM      1  C   UNK A   0       1.810   4.622  20.159  0.00  0.00    +0.000 C 
ATOM      2  O   UNK A   0       0.709   4.091  20.224  0.00  0.00    +0.000 OA
ATOM      3  N   ARG A   1       2.923   4.020  19.668  0.00  0.00    +0.000 N 
ATOM      4  H   ARG A   1       3.794   4.536  19.715  0.00  0.00    +0.000 HD
ENDROOT
BRANCH   1   5
ATOM      5  O   UNK A   0       2.092   5.895  20.516  0.00  0.00    +0.000 OA
BRANCH   5   6
ATOM      6  C   UNK A   0       2.808   6.663  19.528  0.00  0.00    +0.000 C 
BRANCH   6   7
ATOM      7  C   UNK A   0       1.995   7.896  19.139  0.00  0.00    +0.000 C 
BRANCH   7   8
ATOM      8  S   UNK A   0       1.182   8.620  20.601  0.00  0.00    +0.000 S 
BRANCH   8   9
ATOM      9  C   UNK A   0       1.014  10.344  20.014  0.00  0.00    +0.000 C 
BRANCH   9  10
ATOM     10  C   UNK A   0       0.417  11.200  21.128  0.00  0.00    +0.000 C 
BRANCH  10  19
ATOM     11  C   UNK A   0      -4.158  12.788  21.710  0.00  0.00    +0.000 A 
ATOM     12  N   UNK A   0      -4.136  12.600  23.067  0.00  0.00    +0.000 NA
ATOM     13  C   UNK A   0      -3.037  12.079  23.653  0.00  0.00    +0.000 A 
ATOM     14  N   UNK A   0      -1.879  11.702  23.080  0.00  0.00    +0.000 NA
ATOM     15  C   UNK A   0      -1.919  11.910  21.754  0.00  0.00    +0.000 A 
ATOM     16  C   UNK A   0      -2.974  12.424  21.013  0.00  0.00    +0.000 A 
ATOM     17  N   UNK A   0      -2.627  12.485  19.670  0.00  0.00    +0.000 NA
ATOM     18  C   UNK A   0      -1.387  12.052  19.617  0.00  0.00    +0.000 A 
ATOM     19  N   UNK A   0      -0.926  11.669  20.845  0.00  0.00    +0.000 N 
BRANCH  11  21
ATOM     20  C   UNK A   0      -5.707  14.661  21.495  0.00  0.00    +0.000 C 
ATOM     21  N   UNK A   0      -5.294  13.325  21.115  0.00  0.00    +0.000 N 
ATOM     22  C   UNK A   0      -6.240  12.430  20.475  0.00  0.00    +0.000 C 
ENDBRANCH  11  21
ENDBRANCH  10  19
ENDBRANCH   9  10
ENDBRANCH   8   9
ENDBRANCH   7   8
ENDBRANCH   6   7
ENDBRANCH   5   6
ENDBRANCH   1   5
BRANCH   3  23
ATOM     23  CA  ARG A   1       2.876   2.751  18.955  0.00  0.00    +0.000 C 
BRANCH  23  24
ATOM     24  C   ARG A   1       4.069   1.871  19.354  0.00  0.00    +0.000 C 
ATOM     25  O   ARG A   1       4.821   2.118  20.286  0.00  0.00    +0.000 OA
BRANCH  24  26
ATOM     26  OXT ARG A   1       4.255   0.794  18.553  0.00  0.00    +0.000 OA
ATOM     27  HXT ARG A   1       3.546   0.622  17.905  0.00  0.00    +0.000 HD
ENDBRANCH  24  26
ENDBRANCH  23  24
BRANCH  23  28
ATOM     28  CB  ARG A   1       2.836   2.991  17.433  0.00  0.00    +0.000 C 
BRANCH  28  29
ATOM     29  CG  ARG A   1       3.687   4.192  17.000  0.00  0.00    +0.000 C 
BRANCH  29  30
ATOM     30  CD  ARG A   1       5.099   3.784  16.587  0.00  0.00    +0.000 C 
BRANCH  30  31
ATOM     31  NE  ARG A   1       6.014   4.870  16.883  0.00  0.00    +0.000 N 
ATOM     32  CZ  ARG A   1       6.393   5.215  18.131  0.00  0.00    +0.000 C 
ATOM     33  NH1 ARG A   1       6.181   4.585  19.226  0.00  0.00    +0.000 NA
ATOM     34  NH2 ARG A   1       7.085   6.369  18.147  0.00  0.00    +0.000 N 
ATOM     35  HE  ARG A   1       5.922   5.674  16.272  0.00  0.00    +0.000 HD
ATOM     36  HH1 ARG A   1       5.647   3.738  19.036  0.00  0.00    +0.000 HD
ATOM     37 HH21 ARG A   1       7.736   6.474  17.381  0.00  0.00    +0.000 HD
ATOM     38 HH22 ARG A   1       7.553   6.471  19.043  0.00  0.00    +0.000 HD
ENDBRANCH  30  31
ENDBRANCH  29  30
ENDBRANCH  28  29
ENDBRANCH  23  28
ENDBRANCH   3  23
TORSDOF 15
ENDMDL
MODEL 8
REMARK VINA RESULT:      -6.4      6.479     10.352
REMARK  Name = 
REMARK  17 active torsions:
REMARK  status: ('A' for Active; 'I' for Inactive)
REMARK    1  A    between atoms: C_1  and  N_2
REMARK    2  A    between atoms: N_2  and  C_3
REMARK    3  A    between atoms: N_2  and  C_4
REMARK    4  A    between atoms: N_12  and  C_13
REMARK    5  A    between atoms: C_13  and  C_14
REMARK    6  A    between atoms: C_14  and  S_15
REMARK    7  A    between atoms: S_15  and  C_16
REMARK    8  A    between atoms: C_16  and  C_17
REMARK    9  A    between atoms: C_17  and  O_18
REMARK   10  A    between atoms: O_18  and  C_19
REMARK   11  A    between atoms: N_21  and  CA_22
REMARK   12  A    between atoms: CA_22  and  CB_23
REMARK   13  A    between atoms: CA_22  and  C_30
REMARK   14  A    between atoms: CB_23  and  CG_24
REMARK   15  A    between atoms: CG_24  and  CD_25
REMARK   16  A    between atoms: CD_25  and  NE_26
REMARK   17  A    between atoms: C_30  and  OXT_32
REMARK                            x       y       z     vdW  Elec       q    Type
REMARK                         _______ _______ _______ _____ _____    ______ ____
ROOT
ATOM      1  C   UNK A   0       2.173   7.577  19.511  0.00  0.00    +0.000 C 
ATOM      2  O   UNK A   0       2.354   7.898  18.344  0.00  0.00    +0.000 OA
ATOM      3  N   ARG A   1       1.621   8.385  20.451  0.00  0.00    +0.000 N 
ATOM      4  H   ARG A   1       1.572   8.033  21.400  0.00  0.00    +0.000 HD
ENDROOT
BRANCH   1   5
ATOM      5  O   UNK A   0       2.446   6.365  20.045  0.00  0.00    +0.000 OA
BRANCH   5   6
ATOM      6  C   UNK A   0       1.375   5.781  20.815  0.00  0.00    +0.000 C 
BRANCH   6   7
ATOM      7  C   UNK A   0       1.104   4.358  20.334  0.00  0.00    +0.000 C 
BRANCH   7   8
ATOM      8  S   UNK A   0       1.691   3.141  21.557  0.00  0.00    +0.000 S 
BRANCH   8   9
ATOM      9  C   UNK A   0       2.533   1.977  20.426  0.00  0.00    +0.000 C 
BRANCH   9  10
ATOM     10  C   UNK A   0       3.998   2.382  20.284  0.00  0.00    +0.000 C 
BRANCH  10  19
ATOM     11  C   UNK A   0       6.106   5.317  17.008  0.00  0.00    +0.000 A 
ATOM     12  N   UNK A   0       6.952   5.873  17.931  0.00  0.00    +0.000 NA
ATOM     13  C   UNK A   0       6.874   5.495  19.225  0.00  0.00    +0.000 A 
ATOM     14  N   UNK A   0       6.050   4.590  19.786  0.00  0.00    +0.000 NA
ATOM     15  C   UNK A   0       5.243   4.049  18.860  0.00  0.00    +0.000 A 
ATOM     16  C   UNK A   0       5.199   4.342  17.505  0.00  0.00    +0.000 A 
ATOM     17  N   UNK A   0       4.227   3.570  16.882  0.00  0.00    +0.000 NA
ATOM     18  C   UNK A   0       3.730   2.812  17.834  0.00  0.00    +0.000 A 
ATOM     19  N   UNK A   0       4.292   3.084  19.049  0.00  0.00    +0.000 N 
BRANCH  11  21
ATOM     20  C   UNK A   0       5.183   6.611  15.156  0.00  0.00    +0.000 C 
ATOM     21  N   UNK A   0       6.194   5.713  15.678  0.00  0.00    +0.000 N 
ATOM     22  C   UNK A   0       7.008   4.932  14.766  0.00  0.00    +0.000 C 
ENDBRANCH  11  21
ENDBRANCH  10  19
ENDBRANCH   9  10
ENDBRANCH   8   9
ENDBRANCH   7   8
ENDBRANCH   6   7
ENDBRANCH   5   6
ENDBRANCH   1   5
BRANCH   3  23
ATOM     23  CA  ARG A   1       0.975   9.647  20.116  0.00  0.00    +0.000 C 
BRANCH  23  24
ATOM     24  C   ARG A   1       0.954  10.575  21.339  0.00  0.00    +0.000 C 
ATOM     25  O   ARG A   1       1.048  11.793  21.276  0.00  0.00    +0.000 OA
BRANCH  24  26
ATOM     26  OXT ARG A   1       0.861   9.927  22.525  0.00  0.00    +0.000 OA
ATOM     27  HXT ARG A   1       1.349  10.332  23.267  0.00  0.00    +0.000 HD
ENDBRANCH  24  26
ENDBRANCH  23  24
BRANCH  23  28
ATOM     28  CB  ARG A   1      -0.445   9.396  19.575  0.00  0.00    +0.000 C 
BRANCH  28  29
ATOM     29  CG  ARG A   1      -0.893  10.463  18.568  0.00  0.00    +0.000 C 
BRANCH  29  30
ATOM     30  CD  ARG A   1      -2.292  10.191  18.017  0.00  0.00    +0.000 C 
BRANCH  30  31
ATOM     31  NE  ARG A   1      -2.209   9.992  16.583  0.00  0.00    +0.000 N 
ATOM     32  CZ  ARG A   1      -3.009  10.611  15.690  0.00  0.00    +0.000 C 
ATOM     33  NH1 ARG A   1      -3.828  11.574  15.894  0.00  0.00    +0.000 NA
ATOM     34  NH2 ARG A   1      -2.863  10.109  14.450  0.00  0.00    +0.000 N 
ATOM     35  HE  ARG A   1      -1.982   9.043  16.304  0.00  0.00    +0.000 HD
ATOM     36  HH1 ARG A   1      -3.815  11.831  16.881  0.00  0.00    +0.000 HD
ATOM     37 HH21 ARG A   1      -1.909   9.892  14.199  0.00  0.00    +0.000 HD
ATOM     38 HH22 ARG A   1      -3.285  10.742  13.776  0.00  0.00    +0.000 HD
ENDBRANCH  30  31
ENDBRANCH  29  30
ENDBRANCH  28  29
ENDBRANCH  23  28
ENDBRANCH   3  23
TORSDOF 15
ENDMDL
MODEL 9
REMARK VINA RESULT:      -6.3      7.179      9.101
REMARK  Name = 
REMARK  17 active torsions:
REMARK  status: ('A' for Active; 'I' for Inactive)
REMARK    1  A    between atoms: C_1  and  N_2
REMARK    2  A    between atoms: N_2  and  C_3
REMARK    3  A    between atoms: N_2  and  C_4
REMARK    4  A    between atoms: N_12  and  C_13
REMARK    5  A    between atoms: C_13  and  C_14
REMARK    6  A    between atoms: C_14  and  S_15
REMARK    7  A    between atoms: S_15  and  C_16
REMARK    8  A    between atoms: C_16  and  C_17
REMARK    9  A    between atoms: C_17  and  O_18
REMARK   10  A    between atoms: O_18  and  C_19
REMARK   11  A    between atoms: N_21  and  CA_22
REMARK   12  A    between atoms: CA_22  and  CB_23
REMARK   13  A    between atoms: CA_22  and  C_30
REMARK   14  A    between atoms: CB_23  and  CG_24
REMARK   15  A    between atoms: CG_24  and  CD_25
REMARK   16  A    between atoms: CD_25  and  NE_26
REMARK   17  A    between atoms: C_30  and  OXT_32
REMARK                            x       y       z     vdW  Elec       q    Type
REMARK                         _______ _______ _______ _____ _____    ______ ____
ROOT
ATOM      1  C   UNK A   0       2.613   5.735  19.304  0.00  0.00    +0.000 C 
ATOM      2  O   UNK A   0       1.590   5.075  19.180  0.00  0.00    +0.000 OA
ATOM      3  N   ARG A   1       3.770   5.484  18.641  0.00  0.00    +0.000 N 
ATOM      4  H   ARG A   1       4.572   6.062  18.865  0.00  0.00    +0.000 HD
ENDROOT
BRANCH   1   5
ATOM      5  O   UNK A   0       2.750   6.837  20.075  0.00  0.00    +0.000 OA
BRANCH   5   6
ATOM      6  C   UNK A   0       1.793   7.885  19.820  0.00  0.00    +0.000 C 
BRANCH   6   7
ATOM      7  C   UNK A   0       1.234   8.411  21.140  0.00  0.00    +0.000 C 
BRANCH   7   8
ATOM      8  S   UNK A   0       0.711  10.149  20.971  0.00  0.00    +0.000 S 
BRANCH   8   9
ATOM      9  C   UNK A   0       0.565  10.232  19.150  0.00  0.00    +0.000 C 
BRANCH   9  10
ATOM     10  C   UNK A   0      -0.076  11.560  18.755  0.00  0.00    +0.000 C 
BRANCH  10  19
ATOM     11  C   UNK A   0      -4.918  12.093  19.015  0.00  0.00    +0.000 A 
ATOM     12  N   UNK A   0      -4.863  12.733  20.226  0.00  0.00    +0.000 NA
ATOM     13  C   UNK A   0      -3.671  12.913  20.835  0.00  0.00    +0.000 A 
ATOM     14  N   UNK A   0      -2.447  12.552  20.407  0.00  0.00    +0.000 NA
ATOM     15  C   UNK A   0      -2.526  11.943  19.213  0.00  0.00    +0.000 A 
ATOM     16  C   UNK A   0      -3.671  11.678  18.476  0.00  0.00    +0.000 A 
ATOM     17  N   UNK A   0      -3.335  11.032  17.293  0.00  0.00    +0.000 NA
ATOM     18  C   UNK A   0      -2.024  10.946  17.309  0.00  0.00    +0.000 A 
ATOM     19  N   UNK A   0      -1.493  11.457  18.459  0.00  0.00    +0.000 N 
BRANCH  11  21
ATOM     20  C   UNK A   0      -6.833  10.648  18.576  0.00  0.00    +0.000 C 
ATOM     21  N   UNK A   0      -6.149  11.912  18.396  0.00  0.00    +0.000 N 
ATOM     22  C   UNK A   0      -6.515  12.782  17.295  0.00  0.00    +0.000 C 
ENDBRANCH  11  21
ENDBRANCH  10  19
ENDBRANCH   9  10
ENDBRANCH   8   9
ENDBRANCH   7   8
ENDBRANCH   6   7
ENDBRANCH   5   6
ENDBRANCH   1   5
BRANCH   3  23
ATOM     23  CA  ARG A   1       3.851   4.537  17.538  0.00  0.00    +0.000 C 
BRANCH  23  24
ATOM     24  C   ARG A   1       4.234   3.144  18.059  0.00  0.00    +0.000 C 
ATOM     25  O   ARG A   1       3.740   2.101  17.653  0.00  0.00    +0.000 OA
BRANCH  24  26
ATOM     26  OXT ARG A   1       5.154   3.158  19.053  0.00  0.00    +0.000 OA
ATOM     27  HXT ARG A   1       4.976   3.780  19.784  0.00  0.00    +0.000 HD
ENDBRANCH  24  26
ENDBRANCH  23  24
BRANCH  23  28
ATOM     28  CB  ARG A   1       4.849   5.035  16.474  0.00  0.00    +0.000 C 
BRANCH  28  29
ATOM     29  CG  ARG A   1       6.000   4.050  16.233  0.00  0.00    +0.000 C 
BRANCH  29  30
ATOM     30  CD  ARG A   1       7.337   4.583  16.742  0.00  0.00    +0.000 C 
BRANCH  30  31
ATOM     31  NE  ARG A   1       7.355   6.027  16.611  0.00  0.00    +0.000 N 
ATOM     32  CZ  ARG A   1       7.622   6.871  17.630  0.00  0.00    +0.000 C 
ATOM     33  NH1 ARG A   1       8.064   6.589  18.798  0.00  0.00    +0.000 NA
ATOM     34  NH2 ARG A   1       7.383   8.153  17.298  0.00  0.00    +0.000 N 
ATOM     35  HE  ARG A   1       6.657   6.400  15.976  0.00  0.00    +0.000 HD
ATOM     36  HH1 ARG A   1       8.189   5.580  18.882  0.00  0.00    +0.000 HD
ATOM     37 HH21 ARG A   1       7.664   8.399  16.359  0.00  0.00    +0.000 HD
ATOM     38 HH22 ARG A   1       7.815   8.767  17.983  0.00  0.00    +0.000 HD
ENDBRANCH  30  31
ENDBRANCH  29  30
ENDBRANCH  28  29
ENDBRANCH  23  28
ENDBRANCH   3  23
TORSDOF 15
ENDMDL
