MODEL 1
REMARK VINA RESULT:      -7.9      0.000      0.000
REMARK  Name = 
REMARK  4 active torsions:
REMARK  status: ('A' for Active; 'I' for Inactive)
REMARK    1  A    between atoms: C_2  and  N_3
REMARK    2  A    between atoms: C_2  and  C_17
REMARK    3  A    between atoms: N_8  and  C_9
REMARK    4  A    between atoms: C_9  and  C_10
REMARK                            x       y       z     vdW  Elec       q    Type
REMARK                         _______ _______ _______ _____ _____    ______ ____
ROOT
ATOM      1  N   UNL     1       3.243   5.801  19.261  0.00  0.00    +0.000 NA
ATOM      2  C   UNL     1       3.065   4.590  18.837  0.00  0.00    +0.000 A 
ATOM      3  S   UNL     1       1.528   3.657  18.881  0.00  0.00    +0.000 S 
ATOM      4  C   UNL     1       2.276   2.279  18.127  0.00  0.00    +0.000 A 
ATOM      5  C   UNL     1       3.564   2.523  17.859  0.00  0.00    +0.000 A 
ATOM      6  N   UNL     1       4.030   3.776  18.234  0.00  0.00    +0.000 N 
ENDROOT
BRANCH   1   8
ATOM      7  O   UNL     1       1.672   6.052  20.934  0.00  0.00    +0.000 OA
ATOM      8  C   UNL     1       2.228   6.457  19.919  0.00  0.00    +0.000 C 
BRANCH   8   9
ATOM      9  C   UNL     1       1.887   7.827  19.427  0.00  0.00    +0.000 A 
ATOM     10  C   UNL     1       1.229   8.711  20.293  0.00  0.00    +0.000 A 
ATOM     11  C   UNL     1       0.963   9.992  19.841  0.00  0.00    +0.000 A 
ATOM     12  N   UNL     1       1.297  10.437  18.611  0.00  0.00    +0.000 NA
ATOM     13  C   UNL     1       1.921   9.561  17.792  0.00  0.00    +0.000 A 
ATOM     14  C   UNL     1       2.231   8.259  18.148  0.00  0.00    +0.000 A 
ENDBRANCH   8   9
ENDBRANCH   1   8
BRANCH   6  15
ATOM     15  C   UNL     1       5.439   4.142  18.200  0.00  0.00    +0.000 C 
BRANCH  15  16
ATOM     16  C   UNL     1       5.925   4.411  16.799  0.00  0.00    +0.000 A 
ATOM     17  C   UNL     1       5.272   3.903  15.672  0.00  0.00    +0.000 A 
ATOM     18  C   UNL     1       5.791   4.151  14.401  0.00  0.00    +0.000 A 
ATOM     19  C   UNL     1       6.942   4.912  14.309  0.00  0.00    +0.000 A 
ATOM     20 CL   UNL     1       7.653   5.254  12.787  0.00  0.00    +0.000 Cl
ATOM     21  N   UNL     1       7.599   5.429  15.366  0.00  0.00    +0.000 NA
ATOM     22  C   UNL     1       7.075   5.165  16.585  0.00  0.00    +0.000 A 
ENDBRANCH  15  16
ENDBRANCH   6  15
TORSDOF 4
ENDMDL
MODEL 2
REMARK VINA RESULT:      -7.9      0.324      1.054
REMARK  Name = 
REMARK  4 active torsions:
REMARK  status: ('A' for Active; 'I' for Inactive)
REMARK    1  A    between atoms: C_2  and  N_3
REMARK    2  A    between atoms: C_2  and  C_17
REMARK    3  A    between atoms: N_8  and  C_9
REMARK    4  A    between atoms: C_9  and  C_10
REMARK                            x       y       z     vdW  Elec       q    Type
REMARK                         _______ _______ _______ _____ _____    ______ ____
ROOT
ATOM      1  N   UNL     1       3.152   5.749  19.432  0.00  0.00    +0.000 NA
ATOM      2  C   UNL     1       2.933   4.538  19.030  0.00  0.00    +0.000 A 
ATOM      3  S   UNL     1       1.360   3.666  19.073  0.00  0.00    +0.000 S 
ATOM      4  C   UNL     1       2.064   2.245  18.355  0.00  0.00    +0.000 A 
ATOM      5  C   UNL     1       3.363   2.433  18.100  0.00  0.00    +0.000 A 
ATOM      6  N   UNL     1       3.873   3.675  18.456  0.00  0.00    +0.000 N 
ENDROOT
BRANCH   1   8
ATOM      7  O   UNL     1       1.572   6.096  21.080  0.00  0.00    +0.000 OA
ATOM      8  C   UNL     1       2.155   6.457  20.063  0.00  0.00    +0.000 C 
BRANCH   8   9
ATOM      9  C   UNL     1       1.873   7.829  19.539  0.00  0.00    +0.000 A 
ATOM     10  C   UNL     1       2.281   8.153  18.238  0.00  0.00    +0.000 A 
ATOM     11  C   UNL     1       1.970   9.410  17.749  0.00  0.00    +0.000 A 
ATOM     12  N   UNL     1       1.300  10.344  18.458  0.00  0.00    +0.000 NA
ATOM     13  C   UNL     1       0.926  10.010  19.712  0.00  0.00    +0.000 A 
ATOM     14  C   UNL     1       1.191   8.781  20.294  0.00  0.00    +0.000 A 
ENDBRANCH   8   9
ENDBRANCH   1   8
BRANCH   6  15
ATOM     15  C   UNL     1       5.295   3.986  18.434  0.00  0.00    +0.000 C 
BRANCH  15  16
ATOM     16  C   UNL     1       5.790   4.297  17.044  0.00  0.00    +0.000 A 
ATOM     17  C   UNL     1       4.952   4.249  15.926  0.00  0.00    +0.000 A 
ATOM     18  C   UNL     1       5.474   4.507  14.659  0.00  0.00    +0.000 A 
ATOM     19  C   UNL     1       6.818   4.815  14.563  0.00  0.00    +0.000 A 
ATOM     20 CL   UNL     1       7.544   5.133  13.042  0.00  0.00    +0.000 Cl
ATOM     21  N   UNL     1       7.660   4.880  15.613  0.00  0.00    +0.000 NA
ATOM     22  C   UNL     1       7.125   4.618  16.828  0.00  0.00    +0.000 A 
ENDBRANCH  15  16
ENDBRANCH   6  15
TORSDOF 4
ENDMDL
MODEL 3
REMARK VINA RESULT:      -7.5      1.036      1.064
REMARK  Name = 
REMARK  4 active torsions:
REMARK  status: ('A' for Active; 'I' for Inactive)
REMARK    1  A    between atoms: C_2  and  N_3
REMARK    2  A    between atoms: C_2  and  C_17
REMARK    3  A    between atoms: N_8  and  C_9
REMARK    4  A    between atoms: C_9  and  C_10
REMARK                            x       y       z     vdW  Elec       q    Type
REMARK                         _______ _______ _______ _____ _____    ______ ____
ROOT
ATOM      1  N   UNL     1       3.192   6.283  19.672  0.00  0.00    +0.000 NA
ATOM      2  C   UNL     1       3.324   4.995  19.687  0.00  0.00    +0.000 A 
ATOM      3  S   UNL     1       2.056   3.796  20.125  0.00  0.00    +0.000 S 
ATOM      4  C   UNL     1       3.137   2.463  19.833  0.00  0.00    +0.000 A 
ATOM      5  C   UNL     1       4.335   2.899  19.429  0.00  0.00    +0.000 A 
ATOM      6  N   UNL     1       4.473   4.279  19.338  0.00  0.00    +0.000 N 
ENDROOT
BRANCH   1   8
ATOM      7  O   UNL     1       1.328   6.415  21.029  0.00  0.00    +0.000 OA
ATOM      8  C   UNL     1       2.030   6.862  20.128  0.00  0.00    +0.000 C 
BRANCH   8   9
ATOM      9  C   UNL     1       1.688   8.207  19.571  0.00  0.00    +0.000 A 
ATOM     10  C   UNL     1       0.965   9.105  20.367  0.00  0.00    +0.000 A 
ATOM     11  C   UNL     1       0.698  10.363  19.857  0.00  0.00    +0.000 A 
ATOM     12  N   UNL     1       1.090  10.773  18.631  0.00  0.00    +0.000 NA
ATOM     13  C   UNL     1       1.777   9.885  17.880  0.00  0.00    +0.000 A 
ATOM     14  C   UNL     1       2.093   8.603  18.297  0.00  0.00    +0.000 A 
ENDBRANCH   8   9
ENDBRANCH   1   8
BRANCH   6  15
ATOM     15  C   UNL     1       5.753   4.934  19.106  0.00  0.00    +0.000 C 
BRANCH  15  16
ATOM     16  C   UNL     1       6.104   4.997  17.642  0.00  0.00    +0.000 A 
ATOM     17  C   UNL     1       5.201   5.452  16.676  0.00  0.00    +0.000 A 
ATOM     18  C   UNL     1       5.568   5.450  15.331  0.00  0.00    +0.000 A 
ATOM     19  C   UNL     1       6.835   5.002  15.005  0.00  0.00    +0.000 A 
ATOM     20 CL   UNL     1       7.362   4.953  13.375  0.00  0.00    +0.000 Cl
ATOM     21  N   UNL     1       7.740   4.563  15.903  0.00  0.00    +0.000 NA
ATOM     22  C   UNL     1       7.352   4.571  17.199  0.00  0.00    +0.000 A 
ENDBRANCH  15  16
ENDBRANCH   6  15
TORSDOF 4
ENDMDL
MODEL 4
REMARK VINA RESULT:      -7.2      1.988      2.457
REMARK  Name = 
REMARK  4 active torsions:
REMARK  status: ('A' for Active; 'I' for Inactive)
REMARK    1  A    between atoms: C_2  and  N_3
REMARK    2  A    between atoms: C_2  and  C_17
REMARK    3  A    between atoms: N_8  and  C_9
REMARK    4  A    between atoms: C_9  and  C_10
REMARK                            x       y       z     vdW  Elec       q    Type
REMARK                         _______ _______ _______ _____ _____    ______ ____
ROOT
ATOM      1  N   UNL     1       3.348   5.752  19.648  0.00  0.00    +0.000 NA
ATOM      2  C   UNL     1       3.272   4.822  18.750  0.00  0.00    +0.000 A 
ATOM      3  S   UNL     1       1.785   4.288  17.888  0.00  0.00    +0.000 S 
ATOM      4  C   UNL     1       2.675   3.113  16.963  0.00  0.00    +0.000 A 
ATOM      5  C   UNL     1       3.975   3.145  17.277  0.00  0.00    +0.000 A 
ATOM      6  N   UNL     1       4.338   4.067  18.250  0.00  0.00    +0.000 N 
ENDROOT
BRANCH   1   8
ATOM      7  O   UNL     1       1.495   5.918  21.016  0.00  0.00    +0.000 OA
ATOM      8  C   UNL     1       2.203   6.355  20.114  0.00  0.00    +0.000 C 
BRANCH   8   9
ATOM      9  C   UNL     1       1.891   7.713  19.569  0.00  0.00    +0.000 A 
ATOM     10  C   UNL     1       1.206   8.626  20.381  0.00  0.00    +0.000 A 
ATOM     11  C   UNL     1       0.966   9.894  19.881  0.00  0.00    +0.000 A 
ATOM     12  N   UNL     1       1.351  10.299  18.651  0.00  0.00    +0.000 NA
ATOM     13  C   UNL     1       2.001   9.396  17.885  0.00  0.00    +0.000 A 
ATOM     14  C   UNL     1       2.287   8.103  18.291  0.00  0.00    +0.000 A 
ENDBRANCH   8   9
ENDBRANCH   1   8
BRANCH   6  15
ATOM     15  C   UNL     1       5.662   4.105  18.853  0.00  0.00    +0.000 C 
BRANCH  15  16
ATOM     16  C   UNL     1       6.412   5.366  18.503  0.00  0.00    +0.000 A 
ATOM     17  C   UNL     1       7.548   5.778  19.205  0.00  0.00    +0.000 A 
ATOM     18  C   UNL     1       8.177   6.975  18.862  0.00  0.00    +0.000 A 
ATOM     19  C   UNL     1       7.647   7.709  17.817  0.00  0.00    +0.000 A 
ATOM     20 CL   UNL     1       8.349   9.198  17.339  0.00  0.00    +0.000 Cl
ATOM     21  N   UNL     1       6.559   7.346  17.108  0.00  0.00    +0.000 NA
ATOM     22  C   UNL     1       5.968   6.184  17.469  0.00  0.00    +0.000 A 
ENDBRANCH  15  16
ENDBRANCH   6  15
TORSDOF 4
ENDMDL
MODEL 5
REMARK VINA RESULT:      -7.2      2.678      4.072
REMARK  Name = 
REMARK  4 active torsions:
REMARK  status: ('A' for Active; 'I' for Inactive)
REMARK    1  A    between atoms: C_2  and  N_3
REMARK    2  A    between atoms: C_2  and  C_17
REMARK    3  A    between atoms: N_8  and  C_9
REMARK    4  A    between atoms: C_9  and  C_10
REMARK                            x       y       z     vdW  Elec       q    Type
REMARK                         _______ _______ _______ _____ _____    ______ ____
ROOT
ATOM      1  N   UNL     1       3.714   5.943  17.449  0.00  0.00    +0.000 NA
ATOM      2  C   UNL     1       4.958   5.600  17.558  0.00  0.00    +0.000 A 
ATOM      3  S   UNL     1       5.800   5.099  19.068  0.00  0.00    +0.000 S 
ATOM      4  C   UNL     1       7.297   4.849  18.216  0.00  0.00    +0.000 A 
ATOM      5  C   UNL     1       7.153   5.109  16.912  0.00  0.00    +0.000 A 
ATOM      6  N   UNL     1       5.888   5.522  16.516  0.00  0.00    +0.000 N 
ENDROOT
BRANCH   1   8
ATOM      7  O   UNL     1       2.708   7.116  19.165  0.00  0.00    +0.000 OA
ATOM      8  C   UNL     1       2.931   6.065  18.574  0.00  0.00    +0.000 C 
BRANCH   8   9
ATOM      9  C   UNL     1       2.193   4.840  19.013  0.00  0.00    +0.000 A 
ATOM     10  C   UNL     1       1.908   4.674  20.374  0.00  0.00    +0.000 A 
ATOM     11  C   UNL     1       1.182   3.560  20.759  0.00  0.00    +0.000 A 
ATOM     12  N   UNL     1       0.739   2.621  19.896  0.00  0.00    +0.000 NA
ATOM     13  C   UNL     1       1.036   2.799  18.591  0.00  0.00    +0.000 A 
ATOM     14  C   UNL     1       1.757   3.877  18.104  0.00  0.00    +0.000 A 
ENDBRANCH   8   9
ENDBRANCH   1   8
BRANCH   6  15
ATOM     15  C   UNL     1       5.600   6.033  15.183  0.00  0.00    +0.000 C 
BRANCH  15  16
ATOM     16  C   UNL     1       5.973   5.049  14.103  0.00  0.00    +0.000 A 
ATOM     17  C   UNL     1       5.141   3.986  13.742  0.00  0.00    +0.000 A 
ATOM     18  C   UNL     1       5.556   3.083  12.764  0.00  0.00    +0.000 A 
ATOM     19  C   UNL     1       6.790   3.290  12.174  0.00  0.00    +0.000 A 
ATOM     20 CL   UNL     1       7.383   2.221  10.972  0.00  0.00    +0.000 Cl
ATOM     21  N   UNL     1       7.620   4.305  12.485  0.00  0.00    +0.000 NA
ATOM     22  C   UNL     1       7.192   5.159  13.442  0.00  0.00    +0.000 A 
ENDBRANCH  15  16
ENDBRANCH   6  15
TORSDOF 4
ENDMDL
MODEL 6
REMARK VINA RESULT:      -7.1      2.648      4.142
REMARK  Name = 
REMARK  4 active torsions:
REMARK  status: ('A' for Active; 'I' for Inactive)
REMARK    1  A    between atoms: C_2  and  N_3
REMARK    2  A    between atoms: C_2  and  C_17
REMARK    3  A    between atoms: N_8  and  C_9
REMARK    4  A    between atoms: C_9  and  C_10
REMARK                            x       y       z     vdW  Elec       q    Type
REMARK                         _______ _______ _______ _____ _____    ______ ____
ROOT
ATOM      1  N   UNL     1       3.670   5.992  17.520  0.00  0.00    +0.000 NA
ATOM      2  C   UNL     1       4.907   5.620  17.614  0.00  0.00    +0.000 A 
ATOM      3  S   UNL     1       5.758   5.108  19.115  0.00  0.00    +0.000 S 
ATOM      4  C   UNL     1       7.236   4.818  18.245  0.00  0.00    +0.000 A 
ATOM      5  C   UNL     1       7.082   5.074  16.941  0.00  0.00    +0.000 A 
ATOM      6  N   UNL     1       5.821   5.515  16.560  0.00  0.00    +0.000 N 
ENDROOT
BRANCH   1   8
ATOM      7  O   UNL     1       2.695   7.202  19.229  0.00  0.00    +0.000 OA
ATOM      8  C   UNL     1       2.906   6.139  18.655  0.00  0.00    +0.000 C 
BRANCH   8   9
ATOM      9  C   UNL     1       2.172   4.925  19.129  0.00  0.00    +0.000 A 
ATOM     10  C   UNL     1       1.650   4.038  18.179  0.00  0.00    +0.000 A 
ATOM     11  C   UNL     1       1.015   2.894  18.632  0.00  0.00    +0.000 A 
ATOM     12  N   UNL     1       0.865   2.588  19.939  0.00  0.00    +0.000 NA
ATOM     13  C   UNL     1       1.369   3.466  20.834  0.00  0.00    +0.000 A 
ATOM     14  C   UNL     1       2.019   4.638  20.484  0.00  0.00    +0.000 A 
ENDBRANCH   8   9
ENDBRANCH   1   8
BRANCH   6  15
ATOM     15  C   UNL     1       5.527   6.025  15.229  0.00  0.00    +0.000 C 
BRANCH  15  16
ATOM     16  C   UNL     1       5.924   5.054  14.146  0.00  0.00    +0.000 A 
ATOM     17  C   UNL     1       5.104   3.990  13.760  0.00  0.00    +0.000 A 
ATOM     18  C   UNL     1       5.542   3.099  12.780  0.00  0.00    +0.000 A 
ATOM     19  C   UNL     1       6.784   3.319  12.214  0.00  0.00    +0.000 A 
ATOM     20 CL   UNL     1       7.404   2.265  11.012  0.00  0.00    +0.000 Cl
ATOM     21  N   UNL     1       7.603   4.335  12.549  0.00  0.00    +0.000 NA
ATOM     22  C   UNL     1       7.154   5.177  13.507  0.00  0.00    +0.000 A 
ENDBRANCH  15  16
ENDBRANCH   6  15
TORSDOF 4
ENDMDL
MODEL 7
REMARK VINA RESULT:      -7.1      2.052      2.438
REMARK  Name = 
REMARK  4 active torsions:
REMARK  status: ('A' for Active; 'I' for Inactive)
REMARK    1  A    between atoms: C_2  and  N_3
REMARK    2  A    between atoms: C_2  and  C_17
REMARK    3  A    between atoms: N_8  and  C_9
REMARK    4  A    between atoms: C_9  and  C_10
REMARK                            x       y       z     vdW  Elec       q    Type
REMARK                         _______ _______ _______ _____ _____    ______ ____
ROOT
ATOM      1  N   UNL     1       3.276   5.659  19.722  0.00  0.00    +0.000 NA
ATOM      2  C   UNL     1       3.163   4.636  18.936  0.00  0.00    +0.000 A 
ATOM      3  S   UNL     1       1.637   3.999  18.225  0.00  0.00    +0.000 S 
ATOM      4  C   UNL     1       2.491   2.738  17.383  0.00  0.00    +0.000 A 
ATOM      5  C   UNL     1       3.806   2.814  17.614  0.00  0.00    +0.000 A 
ATOM      6  N   UNL     1       4.210   3.840  18.459  0.00  0.00    +0.000 N 
ENDROOT
BRANCH   1   8
ATOM      7  O   UNL     1       1.428   5.887  21.087  0.00  0.00    +0.000 OA
ATOM      8  C   UNL     1       2.151   6.300  20.186  0.00  0.00    +0.000 C 
BRANCH   8   9
ATOM      9  C   UNL     1       1.884   7.666  19.639  0.00  0.00    +0.000 A 
ATOM     10  C   UNL     1       2.303   7.965  18.336  0.00  0.00    +0.000 A 
ATOM     11  C   UNL     1       2.006   9.218  17.825  0.00  0.00    +0.000 A 
ATOM     12  N   UNL     1       1.341  10.169  18.515  0.00  0.00    +0.000 NA
ATOM     13  C   UNL     1       0.957   9.858  19.773  0.00  0.00    +0.000 A 
ATOM     14  C   UNL     1       1.207   8.636  20.375  0.00  0.00    +0.000 A 
ENDBRANCH   8   9
ENDBRANCH   1   8
BRANCH   6  15
ATOM     15  C   UNL     1       5.566   3.955  18.977  0.00  0.00    +0.000 C 
BRANCH  15  16
ATOM     16  C   UNL     1       6.230   5.240  18.552  0.00  0.00    +0.000 A 
ATOM     17  C   UNL     1       5.744   6.019  17.499  0.00  0.00    +0.000 A 
ATOM     18  C   UNL     1       6.424   7.178  17.124  0.00  0.00    +0.000 A 
ATOM     19  C   UNL     1       7.563   7.517  17.830  0.00  0.00    +0.000 A 
ATOM     20 CL   UNL     1       8.467   8.918  17.427  0.00  0.00    +0.000 Cl
ATOM     21  N   UNL     1       8.063   6.801  18.857  0.00  0.00    +0.000 NA
ATOM     22  C   UNL     1       7.385   5.680  19.192  0.00  0.00    +0.000 A 
ENDBRANCH  15  16
ENDBRANCH   6  15
TORSDOF 4
ENDMDL
MODEL 8
REMARK VINA RESULT:      -7.1      2.647      4.245
REMARK  Name = 
REMARK  4 active torsions:
REMARK  status: ('A' for Active; 'I' for Inactive)
REMARK    1  A    between atoms: C_2  and  N_3
REMARK    2  A    between atoms: C_2  and  C_17
REMARK    3  A    between atoms: N_8  and  C_9
REMARK    4  A    between atoms: C_9  and  C_10
REMARK                            x       y       z     vdW  Elec       q    Type
REMARK                         _______ _______ _______ _____ _____    ______ ____
ROOT
ATOM      1  N   UNL     1       3.670   6.006  17.502  0.00  0.00    +0.000 NA
ATOM      2  C   UNL     1       4.911   5.654  17.621  0.00  0.00    +0.000 A 
ATOM      3  S   UNL     1       5.746   5.182  19.143  0.00  0.00    +0.000 S 
ATOM      4  C   UNL     1       7.241   4.897  18.301  0.00  0.00    +0.000 A 
ATOM      5  C   UNL     1       7.103   5.127  16.991  0.00  0.00    +0.000 A 
ATOM      6  N   UNL     1       5.842   5.543  16.583  0.00  0.00    +0.000 N 
ENDROOT
BRANCH   1   8
ATOM      7  O   UNL     1       2.659   7.231  19.178  0.00  0.00    +0.000 OA
ATOM      8  C   UNL     1       2.887   6.162  18.622  0.00  0.00    +0.000 C 
BRANCH   8   9
ATOM      9  C   UNL     1       2.154   4.950  19.101  0.00  0.00    +0.000 A 
ATOM     10  C   UNL     1       1.646   4.051  18.154  0.00  0.00    +0.000 A 
ATOM     11  C   UNL     1       1.012   2.908  18.612  0.00  0.00    +0.000 A 
ATOM     12  N   UNL     1       0.850   2.615  19.920  0.00  0.00    +0.000 NA
ATOM     13  C   UNL     1       1.341   3.503  20.812  0.00  0.00    +0.000 A 
ATOM     14  C   UNL     1       1.989   4.675  20.457  0.00  0.00    +0.000 A 
ENDBRANCH   8   9
ENDBRANCH   1   8
BRANCH   6  15
ATOM     15  C   UNL     1       5.561   6.025  15.238  0.00  0.00    +0.000 C 
BRANCH  15  16
ATOM     16  C   UNL     1       6.070   5.082  14.177  0.00  0.00    +0.000 A 
ATOM     17  C   UNL     1       7.252   5.321  13.470  0.00  0.00    +0.000 A 
ATOM     18  C   UNL     1       7.652   4.434  12.471  0.00  0.00    +0.000 A 
ATOM     19  C   UNL     1       6.855   3.331  12.227  0.00  0.00    +0.000 A 
ATOM     20 CL   UNL     1       7.266   2.197  11.008  0.00  0.00    +0.000 Cl
ATOM     21  N   UNL     1       5.713   3.056  12.889  0.00  0.00    +0.000 NA
ATOM     22  C   UNL     1       5.348   3.939  13.847  0.00  0.00    +0.000 A 
ENDBRANCH  15  16
ENDBRANCH   6  15
TORSDOF 4
ENDMDL
MODEL 9
REMARK VINA RESULT:      -7.1      3.365      4.859
REMARK  Name = 
REMARK  4 active torsions:
REMARK  status: ('A' for Active; 'I' for Inactive)
REMARK    1  A    between atoms: C_2  and  N_3
REMARK    2  A    between atoms: C_2  and  C_17
REMARK    3  A    between atoms: N_8  and  C_9
REMARK    4  A    between atoms: C_9  and  C_10
REMARK                            x       y       z     vdW  Elec       q    Type
REMARK                         _______ _______ _______ _____ _____    ______ ____
ROOT
ATOM      1  N   UNL     1       3.292   6.271  17.608  0.00  0.00    +0.000 NA
ATOM      2  C   UNL     1       4.512   5.912  17.365  0.00  0.00    +0.000 A 
ATOM      3  S   UNL     1       5.946   6.995  17.272  0.00  0.00    +0.000 S 
ATOM      4  C   UNL     1       7.008   5.654  16.949  0.00  0.00    +0.000 A 
ATOM      5  C   UNL     1       6.330   4.502  16.931  0.00  0.00    +0.000 A 
ATOM      6  N   UNL     1       4.963   4.604  17.154  0.00  0.00    +0.000 N 
ENDROOT
BRANCH   1   8
ATOM      7  O   UNL     1       3.185   8.445  16.836  0.00  0.00    +0.000 OA
ATOM      8  C   UNL     1       2.973   7.606  17.705  0.00  0.00    +0.000 C 
BRANCH   8   9
ATOM      9  C   UNL     1       2.182   8.019  18.905  0.00  0.00    +0.000 A 
ATOM     10  C   UNL     1       1.480   9.231  18.867  0.00  0.00    +0.000 A 
ATOM     11  C   UNL     1       0.713   9.577  19.966  0.00  0.00    +0.000 A 
ATOM     12  N   UNL     1       0.610   8.816  21.077  0.00  0.00    +0.000 NA
ATOM     13  C   UNL     1       1.305   7.658  21.092  0.00  0.00    +0.000 A 
ATOM     14  C   UNL     1       2.102   7.222  20.046  0.00  0.00    +0.000 A 
ENDBRANCH   8   9
ENDBRANCH   1   8
BRANCH   6  15
ATOM     15  C   UNL     1       4.043   3.489  16.978  0.00  0.00    +0.000 C 
BRANCH  15  16
ATOM     16  C   UNL     1       3.262   3.190  18.232  0.00  0.00    +0.000 A 
ATOM     17  C   UNL     1       1.865   3.210  18.264  0.00  0.00    +0.000 A 
ATOM     18  C   UNL     1       1.196   2.966  19.463  0.00  0.00    +0.000 A 
ATOM     19  C   UNL     1       1.958   2.697  20.586  0.00  0.00    +0.000 A 
ATOM     20 CL   UNL     1       1.218   2.398  22.103  0.00  0.00    +0.000 Cl
ATOM     21  N   UNL     1       3.305   2.660  20.600  0.00  0.00    +0.000 NA
ATOM     22  C   UNL     1       3.924   2.908  19.423  0.00  0.00    +0.000 A 
ENDBRANCH  15  16
ENDBRANCH   6  15
TORSDOF 4
ENDMDL
