MODEL 1
REMARK VINA RESULT:      -7.8      0.000      0.000
REMARK  Name = 
REMARK  9 active torsions:
REMARK  status: ('A' for Active; 'I' for Inactive)
REMARK    1  A    between atoms: C_1  and  C_2
REMARK    2  A    between atoms: C_2  and  N_3
REMARK    3  A    between atoms: N_3  and  C_4
REMARK    4  A    between atoms: N_3  and  C_6
REMARK    5  A    between atoms: C_4  and  C_5
REMARK    6  A    between atoms: C_6  and  C_7
REMARK    7  A    between atoms: C_9  and  C_10
REMARK    8  A    between atoms: C_12  and  C_13
REMARK    9  A    between atoms: C_22  and  C_23
REMARK                            x       y       z     vdW  Elec       q    Type
REMARK                         _______ _______ _______ _____ _____    ______ ____
ROOT
ATOM      1  C   UNL     1       6.126   4.203  14.270  0.00  0.00    +0.000 A 
ATOM      2  C   UNL     1       4.979   4.790  14.756  0.00  0.00    +0.000 A 
ATOM      3  C   UNL     1       5.259   5.206  16.087  0.00  0.00    +0.000 A 
ATOM      4  C   UNL     1       6.550   4.800  16.352  0.00  0.00    +0.000 A 
ATOM      5  C   UNL     1       7.408   4.798  17.552  0.00  0.00    +0.000 C 
ATOM      6  O   UNL     1       7.084   4.192  15.244  0.00  0.00    +0.000 OA
ENDROOT
BRANCH   3   7
ATOM      7  C   UNL     1       4.337   5.958  16.987  0.00  0.00    +0.000 A 
ATOM      8  N   UNL     1       4.363   7.260  17.208  0.00  0.00    +0.000 NA
ATOM      9  C   UNL     1       3.132   7.506  17.768  0.00  0.00    +0.000 A 
ATOM     10  C   UNL     1       2.662   8.857  18.139  0.00  0.00    +0.000 C 
ATOM     11  N   UNL     1       2.361   6.428  17.948  0.00  0.00    +0.000 NA
ATOM     12  N   UNL     1       3.212   5.427  17.595  0.00  0.00    +0.000 N 
ATOM     13  C   UNL     1       2.987   4.076  17.961  0.00  0.00    +0.000 A 
ATOM     14  C   UNL     1       1.686   3.632  18.167  0.00  0.00    +0.000 A 
ATOM     15  C   UNL     1       1.497   2.301  18.527  0.00  0.00    +0.000 A 
ATOM     16  C   UNL     1       2.601   1.475  18.717  0.00  0.00    +0.000 A 
ATOM     17  C   UNL     1       3.863   2.006  18.517  0.00  0.00    +0.000 A 
ATOM     18  N   UNL     1       4.075   3.272  18.127  0.00  0.00    +0.000 NA
ENDBRANCH   3   7
BRANCH   1  19
ATOM     19  C   UNL     1       6.491   3.642  12.930  0.00  0.00    +0.000 C 
BRANCH  19  20
ATOM     20  N   UNL     1       5.372   2.895  12.309  0.00  0.00    +0.000 NA
BRANCH  20  22
ATOM     21  C   UNL     1       3.491   3.133  10.648  0.00  0.00    +0.000 C 
ATOM     22  C   UNL     1       4.439   3.812  11.632  0.00  0.00    +0.000 C 
ENDBRANCH  20  22
BRANCH  20  23
ATOM     23  C   UNL     1       5.845   1.775  11.482  0.00  0.00    +0.000 C 
ATOM     24  C   UNL     1       7.304   1.797  11.032  0.00  0.00    +0.000 C 
ENDBRANCH  20  23
ENDBRANCH  19  20
ENDBRANCH   1  19
TORSDOF 5
ENDMDL
MODEL 2
REMARK VINA RESULT:      -7.3      1.287      1.794
REMARK  Name = 
REMARK  9 active torsions:
REMARK  status: ('A' for Active; 'I' for Inactive)
REMARK    1  A    between atoms: C_1  and  C_2
REMARK    2  A    between atoms: C_2  and  N_3
REMARK    3  A    between atoms: N_3  and  C_4
REMARK    4  A    between atoms: N_3  and  C_6
REMARK    5  A    between atoms: C_4  and  C_5
REMARK    6  A    between atoms: C_6  and  C_7
REMARK    7  A    between atoms: C_9  and  C_10
REMARK    8  A    between atoms: C_12  and  C_13
REMARK    9  A    between atoms: C_22  and  C_23
REMARK                            x       y       z     vdW  Elec       q    Type
REMARK                         _______ _______ _______ _____ _____    ______ ____
ROOT
ATOM      1  C   UNL     1       6.148   4.617  15.225  0.00  0.00    +0.000 A 
ATOM      2  C   UNL     1       4.908   4.974  15.705  0.00  0.00    +0.000 A 
ATOM      3  C   UNL     1       5.117   5.986  16.682  0.00  0.00    +0.000 A 
ATOM      4  C   UNL     1       6.483   6.150  16.778  0.00  0.00    +0.000 A 
ATOM      5  C   UNL     1       7.372   6.927  17.661  0.00  0.00    +0.000 C 
ATOM      6  O   UNL     1       7.115   5.320  15.887  0.00  0.00    +0.000 OA
ENDROOT
BRANCH   3   7
ATOM      7  C   UNL     1       4.056   6.730  17.421  0.00  0.00    +0.000 A 
ATOM      8  N   UNL     1       3.862   8.037  17.388  0.00  0.00    +0.000 NA
ATOM      9  C   UNL     1       2.589   8.176  17.890  0.00  0.00    +0.000 A 
ATOM     10  C   UNL     1       1.893   9.475  17.994  0.00  0.00    +0.000 C 
ATOM     11  N   UNL     1       2.000   7.038  18.273  0.00  0.00    +0.000 NA
ATOM     12  N   UNL     1       3.014   6.144  18.119  0.00  0.00    +0.000 N 
ATOM     13  C   UNL     1       3.001   4.868  18.737  0.00  0.00    +0.000 A 
ATOM     14  C   UNL     1       1.783   4.262  19.024  0.00  0.00    +0.000 A 
ATOM     15  C   UNL     1       1.803   3.010  19.633  0.00  0.00    +0.000 A 
ATOM     16  C   UNL     1       3.020   2.430  19.978  0.00  0.00    +0.000 A 
ATOM     17  C   UNL     1       4.185   3.117  19.680  0.00  0.00    +0.000 A 
ATOM     18  N   UNL     1       4.199   4.304  19.055  0.00  0.00    +0.000 NA
ENDBRANCH   3   7
BRANCH   1  19
ATOM     19  C   UNL     1       6.588   3.676  14.147  0.00  0.00    +0.000 C 
BRANCH  19  20
ATOM     20  N   UNL     1       6.161   4.122  12.801  0.00  0.00    +0.000 NA
BRANCH  20  22
ATOM     21  C   UNL     1       8.163   5.631  12.535  0.00  0.00    +0.000 C 
ATOM     22  C   UNL     1       7.324   4.487  11.974  0.00  0.00    +0.000 C 
ENDBRANCH  20  22
BRANCH  20  23
ATOM     23  C   UNL     1       5.231   3.173  12.170  0.00  0.00    +0.000 C 
ATOM     24  C   UNL     1       5.832   1.970  11.448  0.00  0.00    +0.000 C 
ENDBRANCH  20  23
ENDBRANCH  19  20
ENDBRANCH   1  19
TORSDOF 5
ENDMDL
MODEL 3
REMARK VINA RESULT:      -7.1      1.702      2.743
REMARK  Name = 
REMARK  9 active torsions:
REMARK  status: ('A' for Active; 'I' for Inactive)
REMARK    1  A    between atoms: C_1  and  C_2
REMARK    2  A    between atoms: C_2  and  N_3
REMARK    3  A    between atoms: N_3  and  C_4
REMARK    4  A    between atoms: N_3  and  C_6
REMARK    5  A    between atoms: C_4  and  C_5
REMARK    6  A    between atoms: C_6  and  C_7
REMARK    7  A    between atoms: C_9  and  C_10
REMARK    8  A    between atoms: C_12  and  C_13
REMARK    9  A    between atoms: C_22  and  C_23
REMARK                            x       y       z     vdW  Elec       q    Type
REMARK                         _______ _______ _______ _____ _____    ______ ____
ROOT
ATOM      1  C   UNL     1       6.367   4.269  13.932  0.00  0.00    +0.000 A 
ATOM      2  C   UNL     1       6.893   3.916  15.154  0.00  0.00    +0.000 A 
ATOM      3  C   UNL     1       6.349   4.814  16.114  0.00  0.00    +0.000 A 
ATOM      4  C   UNL     1       5.560   5.697  15.409  0.00  0.00    +0.000 A 
ATOM      5  C   UNL     1       4.818   6.925  15.754  0.00  0.00    +0.000 C 
ATOM      6  O   UNL     1       5.564   5.365  14.078  0.00  0.00    +0.000 OA
ENDROOT
BRANCH   3   7
ATOM      7  C   UNL     1       6.575   4.770  17.589  0.00  0.00    +0.000 A 
ATOM      8  N   UNL     1       7.749   4.819  18.193  0.00  0.00    +0.000 NA
ATOM      9  C   UNL     1       7.419   5.131  19.491  0.00  0.00    +0.000 A 
ATOM     10  C   UNL     1       8.420   5.358  20.553  0.00  0.00    +0.000 C 
ATOM     11  N   UNL     1       6.108   5.236  19.736  0.00  0.00    +0.000 NA
ATOM     12  N   UNL     1       5.579   4.840  18.547  0.00  0.00    +0.000 N 
ATOM     13  C   UNL     1       4.228   4.431  18.417  0.00  0.00    +0.000 A 
ATOM     14  C   UNL     1       3.274   4.938  19.292  0.00  0.00    +0.000 A 
ATOM     15  C   UNL     1       1.956   4.516  19.140  0.00  0.00    +0.000 A 
ATOM     16  C   UNL     1       1.642   3.575  18.164  0.00  0.00    +0.000 A 
ATOM     17  C   UNL     1       2.659   3.101  17.354  0.00  0.00    +0.000 A 
ATOM     18  N   UNL     1       3.930   3.522  17.447  0.00  0.00    +0.000 NA
ENDBRANCH   3   7
BRANCH   1  19
ATOM     19  C   UNL     1       6.490   3.675  12.563  0.00  0.00    +0.000 C 
BRANCH  19  20
ATOM     20  N   UNL     1       5.303   2.870  12.191  0.00  0.00    +0.000 NA
BRANCH  20  22
ATOM     21  C   UNL     1       3.429   3.032  10.513  0.00  0.00    +0.000 C 
ATOM     22  C   UNL     1       4.258   3.719  11.594  0.00  0.00    +0.000 C 
ENDBRANCH  20  22
BRANCH  20  23
ATOM     23  C   UNL     1       5.663   1.686  11.396  0.00  0.00    +0.000 C 
ATOM     24  C   UNL     1       7.117   1.552  10.949  0.00  0.00    +0.000 C 
ENDBRANCH  20  23
ENDBRANCH  19  20
ENDBRANCH   1  19
TORSDOF 5
ENDMDL
MODEL 4
REMARK VINA RESULT:      -6.9      3.893      6.870
REMARK  Name = 
REMARK  9 active torsions:
REMARK  status: ('A' for Active; 'I' for Inactive)
REMARK    1  A    between atoms: C_1  and  C_2
REMARK    2  A    between atoms: C_2  and  N_3
REMARK    3  A    between atoms: N_3  and  C_4
REMARK    4  A    between atoms: N_3  and  C_6
REMARK    5  A    between atoms: C_4  and  C_5
REMARK    6  A    between atoms: C_6  and  C_7
REMARK    7  A    between atoms: C_9  and  C_10
REMARK    8  A    between atoms: C_12  and  C_13
REMARK    9  A    between atoms: C_22  and  C_23
REMARK                            x       y       z     vdW  Elec       q    Type
REMARK                         _______ _______ _______ _____ _____    ______ ____
ROOT
ATOM      1  C   UNL     1       8.295   8.412  18.300  0.00  0.00    +0.000 A 
ATOM      2  C   UNL     1       7.754   8.078  17.079  0.00  0.00    +0.000 A 
ATOM      3  C   UNL     1       7.376   6.709  17.154  0.00  0.00    +0.000 A 
ATOM      4  C   UNL     1       7.758   6.274  18.406  0.00  0.00    +0.000 A 
ATOM      5  C   UNL     1       7.777   4.965  19.085  0.00  0.00    +0.000 C 
ATOM      6  O   UNL     1       8.314   7.311  19.110  0.00  0.00    +0.000 OA
ENDROOT
BRANCH   3   7
ATOM      7  C   UNL     1       6.678   5.928  16.092  0.00  0.00    +0.000 A 
ATOM      8  N   UNL     1       7.192   5.575  14.927  0.00  0.00    +0.000 NA
ATOM      9  C   UNL     1       6.340   4.586  14.497  0.00  0.00    +0.000 A 
ATOM     10  C   UNL     1       6.540   3.826  13.245  0.00  0.00    +0.000 C 
ATOM     11  N   UNL     1       5.303   4.335  15.304  0.00  0.00    +0.000 NA
ATOM     12  N   UNL     1       5.445   5.315  16.237  0.00  0.00    +0.000 N 
ATOM     13  C   UNL     1       4.388   5.699  17.100  0.00  0.00    +0.000 A 
ATOM     14  C   UNL     1       3.409   4.771  17.435  0.00  0.00    +0.000 A 
ATOM     15  C   UNL     1       2.383   5.178  18.283  0.00  0.00    +0.000 A 
ATOM     16  C   UNL     1       2.338   6.497  18.726  0.00  0.00    +0.000 A 
ATOM     17  C   UNL     1       3.338   7.363  18.321  0.00  0.00    +0.000 A 
ATOM     18  N   UNL     1       4.364   6.988  17.541  0.00  0.00    +0.000 NA
ENDBRANCH   3   7
BRANCH   1  19
ATOM     19  C   UNL     1       8.802   9.702  18.868  0.00  0.00    +0.000 C 
BRANCH  19  20
ATOM     20  N   UNL     1       9.113  10.696  17.815  0.00  0.00    +0.000 NA
BRANCH  20  22
ATOM     21  C   UNL     1       8.449  13.111  17.529  0.00  0.00    +0.000 C 
ATOM     22  C   UNL     1       8.007  11.657  17.656  0.00  0.00    +0.000 C 
ENDBRANCH  20  22
BRANCH  20  23
ATOM     23  C   UNL     1      10.437  11.308  18.004  0.00  0.00    +0.000 C 
ATOM     24  C   UNL     1      10.982  11.385  19.428  0.00  0.00    +0.000 C 
ENDBRANCH  20  23
ENDBRANCH  19  20
ENDBRANCH   1  19
TORSDOF 5
ENDMDL
MODEL 5
REMARK VINA RESULT:      -6.7      4.110      7.090
REMARK  Name = 
REMARK  9 active torsions:
REMARK  status: ('A' for Active; 'I' for Inactive)
REMARK    1  A    between atoms: C_1  and  C_2
REMARK    2  A    between atoms: C_2  and  N_3
REMARK    3  A    between atoms: N_3  and  C_4
REMARK    4  A    between atoms: N_3  and  C_6
REMARK    5  A    between atoms: C_4  and  C_5
REMARK    6  A    between atoms: C_6  and  C_7
REMARK    7  A    between atoms: C_9  and  C_10
REMARK    8  A    between atoms: C_12  and  C_13
REMARK    9  A    between atoms: C_22  and  C_23
REMARK                            x       y       z     vdW  Elec       q    Type
REMARK                         _______ _______ _______ _____ _____    ______ ____
ROOT
ATOM      1  C   UNL     1       1.933   8.622  18.348  0.00  0.00    +0.000 A 
ATOM      2  C   UNL     1       3.004   7.989  17.757  0.00  0.00    +0.000 A 
ATOM      3  C   UNL     1       3.323   6.868  18.572  0.00  0.00    +0.000 A 
ATOM      4  C   UNL     1       2.457   6.913  19.643  0.00  0.00    +0.000 A 
ATOM      5  C   UNL     1       2.320   6.145  20.896  0.00  0.00    +0.000 C 
ATOM      6  O   UNL     1       1.604   7.978  19.509  0.00  0.00    +0.000 OA
ENDROOT
BRANCH   3   7
ATOM      7  C   UNL     1       4.369   5.842  18.287  0.00  0.00    +0.000 A 
ATOM      8  N   UNL     1       5.597   6.086  17.867  0.00  0.00    +0.000 NA
ATOM      9  C   UNL     1       6.255   4.906  18.123  0.00  0.00    +0.000 A 
ATOM     10  C   UNL     1       7.698   4.708  17.874  0.00  0.00    +0.000 C 
ATOM     11  N   UNL     1       5.497   3.931  18.638  0.00  0.00    +0.000 NA
ATOM     12  N   UNL     1       4.260   4.494  18.582  0.00  0.00    +0.000 N 
ATOM     13  C   UNL     1       3.072   3.725  18.673  0.00  0.00    +0.000 A 
ATOM     14  C   UNL     1       3.090   2.523  19.371  0.00  0.00    +0.000 A 
ATOM     15  C   UNL     1       1.908   1.789  19.442  0.00  0.00    +0.000 A 
ATOM     16  C   UNL     1       0.773   2.247  18.779  0.00  0.00    +0.000 A 
ATOM     17  C   UNL     1       0.852   3.441  18.084  0.00  0.00    +0.000 A 
ATOM     18  N   UNL     1       1.963   4.191  18.035  0.00  0.00    +0.000 NA
ENDBRANCH   3   7
BRANCH   1  19
ATOM     19  C   UNL     1       1.100   9.798  17.945  0.00  0.00    +0.000 C 
BRANCH  19  20
ATOM     20  N   UNL     1       0.343  10.369  19.084  0.00  0.00    +0.000 NA
BRANCH  20  22
ATOM     21  C   UNL     1       1.752  12.399  18.587  0.00  0.00    +0.000 C 
ATOM     22  C   UNL     1       1.028  11.554  19.629  0.00  0.00    +0.000 C 
ENDBRANCH  20  22
BRANCH  20  23
ATOM     23  C   UNL     1      -1.077  10.573  18.760  0.00  0.00    +0.000 C 
ATOM     24  C   UNL     1      -1.579  10.038  17.421  0.00  0.00    +0.000 C 
ENDBRANCH  20  23
ENDBRANCH  19  20
ENDBRANCH   1  19
TORSDOF 5
ENDMDL
MODEL 6
REMARK VINA RESULT:      -6.7      4.190      7.094
REMARK  Name = 
REMARK  9 active torsions:
REMARK  status: ('A' for Active; 'I' for Inactive)
REMARK    1  A    between atoms: C_1  and  C_2
REMARK    2  A    between atoms: C_2  and  N_3
REMARK    3  A    between atoms: N_3  and  C_4
REMARK    4  A    between atoms: N_3  and  C_6
REMARK    5  A    between atoms: C_4  and  C_5
REMARK    6  A    between atoms: C_6  and  C_7
REMARK    7  A    between atoms: C_9  and  C_10
REMARK    8  A    between atoms: C_12  and  C_13
REMARK    9  A    between atoms: C_22  and  C_23
REMARK                            x       y       z     vdW  Elec       q    Type
REMARK                         _______ _______ _______ _____ _____    ______ ____
ROOT
ATOM      1  C   UNL     1       8.047   8.756  18.023  0.00  0.00    +0.000 A 
ATOM      2  C   UNL     1       7.436   8.193  16.925  0.00  0.00    +0.000 A 
ATOM      3  C   UNL     1       7.318   6.800  17.185  0.00  0.00    +0.000 A 
ATOM      4  C   UNL     1       7.914   6.588  18.410  0.00  0.00    +0.000 A 
ATOM      5  C   UNL     1       8.244   5.390  19.206  0.00  0.00    +0.000 C 
ATOM      6  O   UNL     1       8.355   7.779  18.927  0.00  0.00    +0.000 OA
ENDROOT
BRANCH   3   7
ATOM      7  C   UNL     1       6.651   5.793  16.309  0.00  0.00    +0.000 A 
ATOM      8  N   UNL     1       6.927   5.572  15.036  0.00  0.00    +0.000 NA
ATOM      9  C   UNL     1       6.352   4.346  14.800  0.00  0.00    +0.000 A 
ATOM     10  C   UNL     1       6.447   3.637  13.507  0.00  0.00    +0.000 C 
ATOM     11  N   UNL     1       5.699   3.813  15.839  0.00  0.00    +0.000 NA
ATOM     12  N   UNL     1       5.761   4.827  16.744  0.00  0.00    +0.000 N 
ATOM     13  C   UNL     1       4.902   4.891  17.871  0.00  0.00    +0.000 A 
ATOM     14  C   UNL     1       4.393   3.715  18.408  0.00  0.00    +0.000 A 
ATOM     15  C   UNL     1       3.551   3.811  19.513  0.00  0.00    +0.000 A 
ATOM     16  C   UNL     1       3.207   5.064  20.011  0.00  0.00    +0.000 A 
ATOM     17  C   UNL     1       3.738   6.185  19.397  0.00  0.00    +0.000 A 
ATOM     18  N   UNL     1       4.586   6.123  18.359  0.00  0.00    +0.000 NA
ENDBRANCH   3   7
BRANCH   1  19
ATOM     19  C   UNL     1       8.379  10.170  18.386  0.00  0.00    +0.000 C 
BRANCH  19  20
ATOM     20  N   UNL     1       9.610  10.267  19.205  0.00  0.00    +0.000 NA
BRANCH  20  22
ATOM     21  C   UNL     1      10.113  12.177  17.639  0.00  0.00    +0.000 C 
ATOM     22  C   UNL     1      10.649  11.040  18.504  0.00  0.00    +0.000 C 
ENDBRANCH  20  22
BRANCH  20  23
ATOM     23  C   UNL     1       9.330  10.715  20.577  0.00  0.00    +0.000 C 
ATOM     24  C   UNL     1      10.076  11.947  21.083  0.00  0.00    +0.000 C 
ENDBRANCH  20  23
ENDBRANCH  19  20
ENDBRANCH   1  19
TORSDOF 5
ENDMDL
MODEL 7
REMARK VINA RESULT:      -6.6      2.581      6.648
REMARK  Name = 
REMARK  9 active torsions:
REMARK  status: ('A' for Active; 'I' for Inactive)
REMARK    1  A    between atoms: C_1  and  C_2
REMARK    2  A    between atoms: C_2  and  N_3
REMARK    3  A    between atoms: N_3  and  C_4
REMARK    4  A    between atoms: N_3  and  C_6
REMARK    5  A    between atoms: C_4  and  C_5
REMARK    6  A    between atoms: C_6  and  C_7
REMARK    7  A    between atoms: C_9  and  C_10
REMARK    8  A    between atoms: C_12  and  C_13
REMARK    9  A    between atoms: C_22  and  C_23
REMARK                            x       y       z     vdW  Elec       q    Type
REMARK                         _______ _______ _______ _____ _____    ______ ____
ROOT
ATOM      1  C   UNL     1       2.877   3.086  17.892  0.00  0.00    +0.000 A 
ATOM      2  C   UNL     1       3.884   2.845  16.986  0.00  0.00    +0.000 A 
ATOM      3  C   UNL     1       4.425   4.108  16.620  0.00  0.00    +0.000 A 
ATOM      4  C   UNL     1       3.676   5.053  17.290  0.00  0.00    +0.000 A 
ATOM      5  C   UNL     1       3.617   6.527  17.274  0.00  0.00    +0.000 C 
ATOM      6  O   UNL     1       2.734   4.434  18.071  0.00  0.00    +0.000 OA
ENDROOT
BRANCH   3   7
ATOM      7  C   UNL     1       5.589   4.341  15.716  0.00  0.00    +0.000 A 
ATOM      8  N   UNL     1       5.730   3.855  14.496  0.00  0.00    +0.000 NA
ATOM      9  C   UNL     1       6.727   4.636  13.962  0.00  0.00    +0.000 A 
ATOM     10  C   UNL     1       7.202   4.510  12.568  0.00  0.00    +0.000 C 
ATOM     11  N   UNL     1       7.242   5.550  14.793  0.00  0.00    +0.000 NA
ATOM     12  N   UNL     1       6.617   5.236  15.959  0.00  0.00    +0.000 N 
ATOM     13  C   UNL     1       7.094   5.678  17.219  0.00  0.00    +0.000 A 
ATOM     14  C   UNL     1       7.822   6.860  17.295  0.00  0.00    +0.000 A 
ATOM     15  C   UNL     1       8.279   7.268  18.546  0.00  0.00    +0.000 A 
ATOM     16  C   UNL     1       8.042   6.468  19.660  0.00  0.00    +0.000 A 
ATOM     17  C   UNL     1       7.333   5.293  19.489  0.00  0.00    +0.000 A 
ATOM     18  N   UNL     1       6.841   4.896  18.305  0.00  0.00    +0.000 NA
ENDBRANCH   3   7
BRANCH   1  19
ATOM     19  C   UNL     1       1.990   2.182  18.690  0.00  0.00    +0.000 C 
BRANCH  19  20
ATOM     20  N   UNL     1       2.310   2.212  20.136  0.00  0.00    +0.000 NA
BRANCH  20  22
ATOM     21  C   UNL     1       4.706   1.621  20.651  0.00  0.00    +0.000 C 
ATOM     22  C   UNL     1       3.678   2.710  20.362  0.00  0.00    +0.000 C 
ENDBRANCH  20  22
BRANCH  20  23
ATOM     23  C   UNL     1       1.270   2.893  20.921  0.00  0.00    +0.000 C 
ATOM     24  C   UNL     1       1.139   4.405  20.758  0.00  0.00    +0.000 C 
ENDBRANCH  20  23
ENDBRANCH  19  20
ENDBRANCH   1  19
TORSDOF 5
ENDMDL
MODEL 8
REMARK VINA RESULT:      -6.6      1.929      4.040
REMARK  Name = 
REMARK  9 active torsions:
REMARK  status: ('A' for Active; 'I' for Inactive)
REMARK    1  A    between atoms: C_1  and  C_2
REMARK    2  A    between atoms: C_2  and  N_3
REMARK    3  A    between atoms: N_3  and  C_4
REMARK    4  A    between atoms: N_3  and  C_6
REMARK    5  A    between atoms: C_4  and  C_5
REMARK    6  A    between atoms: C_6  and  C_7
REMARK    7  A    between atoms: C_9  and  C_10
REMARK    8  A    between atoms: C_12  and  C_13
REMARK    9  A    between atoms: C_22  and  C_23
REMARK                            x       y       z     vdW  Elec       q    Type
REMARK                         _______ _______ _______ _____ _____    ______ ____
ROOT
ATOM      1  C   UNL     1       5.613   5.159  16.104  0.00  0.00    +0.000 A 
ATOM      2  C   UNL     1       4.446   4.673  16.649  0.00  0.00    +0.000 A 
ATOM      3  C   UNL     1       4.583   4.755  18.062  0.00  0.00    +0.000 A 
ATOM      4  C   UNL     1       5.852   5.241  18.296  0.00  0.00    +0.000 A 
ATOM      5  C   UNL     1       6.673   5.451  19.504  0.00  0.00    +0.000 C 
ATOM      6  O   UNL     1       6.482   5.494  17.104  0.00  0.00    +0.000 OA
ENDROOT
BRANCH   3   7
ATOM      7  C   UNL     1       3.539   4.410  19.071  0.00  0.00    +0.000 A 
ATOM      8  N   UNL     1       3.305   3.205  19.560  0.00  0.00    +0.000 NA
ATOM      9  C   UNL     1       2.556   3.465  20.683  0.00  0.00    +0.000 A 
ATOM     10  C   UNL     1       2.096   2.414  21.615  0.00  0.00    +0.000 C 
ATOM     11  N   UNL     1       2.276   4.755  20.897  0.00  0.00    +0.000 NA
ATOM     12  N   UNL     1       2.773   5.328  19.767  0.00  0.00    +0.000 N 
ATOM     13  C   UNL     1       2.398   6.631  19.350  0.00  0.00    +0.000 A 
ATOM     14  C   UNL     1       1.999   7.563  20.300  0.00  0.00    +0.000 A 
ATOM     15  C   UNL     1       1.635   8.833  19.859  0.00  0.00    +0.000 A 
ATOM     16  C   UNL     1       1.632   9.114  18.496  0.00  0.00    +0.000 A 
ATOM     17  C   UNL     1       2.017   8.118  17.617  0.00  0.00    +0.000 A 
ATOM     18  N   UNL     1       2.415   6.899  18.014  0.00  0.00    +0.000 NA
ENDBRANCH   3   7
BRANCH   1  19
ATOM     19  C   UNL     1       6.051   5.401  14.692  0.00  0.00    +0.000 C 
BRANCH  19  20
ATOM     20  N   UNL     1       6.254   4.140  13.943  0.00  0.00    +0.000 NA
BRANCH  20  22
ATOM     21  C   UNL     1       5.178   3.181  11.874  0.00  0.00    +0.000 C 
ATOM     22  C   UNL     1       5.004   3.704  13.297  0.00  0.00    +0.000 C 
ENDBRANCH  20  22
BRANCH  20  23
ATOM     23  C   UNL     1       7.418   4.209  13.046  0.00  0.00    +0.000 C 
ATOM     24  C   UNL     1       8.062   5.576  12.830  0.00  0.00    +0.000 C 
ENDBRANCH  20  23
ENDBRANCH  19  20
ENDBRANCH   1  19
TORSDOF 5
ENDMDL
MODEL 9
REMARK VINA RESULT:      -6.4      1.663      2.035
REMARK  Name = 
REMARK  9 active torsions:
REMARK  status: ('A' for Active; 'I' for Inactive)
REMARK    1  A    between atoms: C_1  and  C_2
REMARK    2  A    between atoms: C_2  and  N_3
REMARK    3  A    between atoms: N_3  and  C_4
REMARK    4  A    between atoms: N_3  and  C_6
REMARK    5  A    between atoms: C_4  and  C_5
REMARK    6  A    between atoms: C_6  and  C_7
REMARK    7  A    between atoms: C_9  and  C_10
REMARK    8  A    between atoms: C_12  and  C_13
REMARK    9  A    between atoms: C_22  and  C_23
REMARK                            x       y       z     vdW  Elec       q    Type
REMARK                         _______ _______ _______ _____ _____    ______ ____
ROOT
ATOM      1  C   UNL     1       5.678   4.073  15.977  0.00  0.00    +0.000 A 
ATOM      2  C   UNL     1       4.472   4.655  16.296  0.00  0.00    +0.000 A 
ATOM      3  C   UNL     1       4.722   5.571  17.356  0.00  0.00    +0.000 A 
ATOM      4  C   UNL     1       6.062   5.454  17.655  0.00  0.00    +0.000 A 
ATOM      5  C   UNL     1       6.940   6.008  18.704  0.00  0.00    +0.000 C 
ATOM      6  O   UNL     1       6.651   4.545  16.813  0.00  0.00    +0.000 OA
ENDROOT
BRANCH   3   7
ATOM      7  C   UNL     1       3.724   6.488  17.981  0.00  0.00    +0.000 A 
ATOM      8  N   UNL     1       3.650   7.793  17.793  0.00  0.00    +0.000 NA
ATOM      9  C   UNL     1       2.390   8.103  18.249  0.00  0.00    +0.000 A 
ATOM     10  C   UNL     1       1.813   9.462  18.188  0.00  0.00    +0.000 C 
ATOM     11  N   UNL     1       1.695   7.074  18.748  0.00  0.00    +0.000 NA
ATOM     12  N   UNL     1       2.626   6.082  18.720  0.00  0.00    +0.000 N 
ATOM     13  C   UNL     1       2.491   4.893  19.480  0.00  0.00    +0.000 A 
ATOM     14  C   UNL     1       1.220   4.435  19.810  0.00  0.00    +0.000 A 
ATOM     15  C   UNL     1       1.120   3.266  20.559  0.00  0.00    +0.000 A 
ATOM     16  C   UNL     1       2.276   2.625  20.995  0.00  0.00    +0.000 A 
ATOM     17  C   UNL     1       3.501   3.166  20.644  0.00  0.00    +0.000 A 
ATOM     18  N   UNL     1       3.630   4.265  19.886  0.00  0.00    +0.000 NA
ENDBRANCH   3   7
BRANCH   1  19
ATOM     19  C   UNL     1       6.086   3.099  14.916  0.00  0.00    +0.000 C 
BRANCH  19  20
ATOM     20  N   UNL     1       6.358   3.761  13.619  0.00  0.00    +0.000 NA
BRANCH  20  22
ATOM     21  C   UNL     1       4.880   3.035  11.710  0.00  0.00    +0.000 C 
ATOM     22  C   UNL     1       5.108   3.993  12.874  0.00  0.00    +0.000 C 
ENDBRANCH  20  22
BRANCH  20  23
ATOM     23  C   UNL     1       7.214   4.947  13.770  0.00  0.00    +0.000 C 
ATOM     24  C   UNL     1       7.977   5.427  12.538  0.00  0.00    +0.000 C 
ENDBRANCH  20  23
ENDBRANCH  19  20
ENDBRANCH   1  19
TORSDOF 5
ENDMDL
