MODEL 1
REMARK VINA RESULT:      -8.5      0.000      0.000
REMARK  Name = 
REMARK  9 active torsions:
REMARK  status: ('A' for Active; 'I' for Inactive)
REMARK    1  A    between atoms: N_1  and  C_2
REMARK    2  A    between atoms: C_7  and  S_8
REMARK    3  A    between atoms: S_8  and  C_9
REMARK    4  A    between atoms: C_12  and  C_13
REMARK    5  A    between atoms: C_13  and  N_14
REMARK    6  A    between atoms: N_14  and  C_15
REMARK    7  A    between atoms: C_20  and  C_21
REMARK    8  A    between atoms: C_21  and  O_23
REMARK    9  A    between atoms: C_25  and  N_26
REMARK                            x       y       z     vdW  Elec       q    Type
REMARK                         _______ _______ _______ _____ _____    ______ ____
ROOT
ATOM      1  C   UNL     1       1.353   9.795  19.119  0.00  0.00    +0.000 A 
ATOM      2  C   UNL     1       1.954   9.202  18.000  0.00  0.00    +0.000 A 
ATOM      3  C   UNL     1       2.449   7.888  18.040  0.00  0.00    +0.000 A 
ATOM      4  C   UNL     1       2.355   7.115  19.206  0.00  0.00    +0.000 A 
ATOM      5  C   UNL     1       1.778   7.700  20.341  0.00  0.00    +0.000 A 
ATOM      6  C   UNL     1       1.269   9.016  20.283  0.00  0.00    +0.000 A 
ENDROOT
BRANCH   6   7
ATOM      7  N   UNL     1       0.621   9.524  21.474  0.00  0.00    +0.000 N 
ATOM      8  O   UNL     1      -0.610   9.419  21.557  0.00  0.00    +0.000 OA
ATOM      9  O   UNL     1       1.360   9.980  22.364  0.00  0.00    +0.000 OA
ENDBRANCH   6   7
BRANCH   1  10
ATOM     10  S   UNL     1       0.680  11.441  18.894  0.00  0.00    +0.000 S 
BRANCH  10  16
ATOM     11  C   UNL     1      -2.087  11.963  18.768  0.00  0.00    +0.000 A 
ATOM     12  C   UNL     1      -3.390  11.601  18.404  0.00  0.00    +0.000 A 
ATOM     13  C   UNL     1      -3.628  10.483  17.604  0.00  0.00    +0.000 A 
ATOM     14  C   UNL     1      -2.563   9.686  17.193  0.00  0.00    +0.000 A 
ATOM     15  C   UNL     1      -1.266   9.989  17.610  0.00  0.00    +0.000 A 
ATOM     16  C   UNL     1      -1.019  11.101  18.429  0.00  0.00    +0.000 A 
BRANCH  11  17
ATOM     17  N   UNL     1      -1.912  13.080  19.614  0.00  0.00    +0.000 N 
ATOM     18  H   UNL     1      -2.608  13.803  19.465  0.00  0.00    +0.000 HD
ATOM     19  H   UNL     1      -0.966  13.448  19.539  0.00  0.00    +0.000 HD
ENDBRANCH  11  17
ENDBRANCH  10  16
ENDBRANCH   1  10
BRANCH   4  20
ATOM     20  C   UNL     1       2.877   5.684  19.225  0.00  0.00    +0.000 C 
BRANCH  20  21
ATOM     21  N   UNL     1       4.327   5.701  19.182  0.00  0.00    +0.000 N 
ATOM     22  H   UNL     1       4.764   5.962  20.060  0.00  0.00    +0.000 HD
BRANCH  21  23
ATOM     23  C   UNL     1       5.181   5.286  18.172  0.00  0.00    +0.000 A 
ATOM     24  C   UNL     1       4.520   4.750  17.037  0.00  0.00    +0.000 A 
ATOM     25  C   UNL     1       5.192   4.269  15.911  0.00  0.00    +0.000 A 
ATOM     26  C   UNL     1       6.572   4.330  15.859  0.00  0.00    +0.000 A 
ATOM     27  C   UNL     1       7.265   4.866  16.941  0.00  0.00    +0.000 A 
ATOM     28  C   UNL     1       6.593   5.311  18.112  0.00  0.00    +0.000 A 
BRANCH  28  29
ATOM     29  C   UNL     1       7.491   5.775  19.209  0.00  0.00    +0.000 C 
ATOM     30  O   UNL     1       7.520   5.323  20.341  0.00  0.00    +0.000 OA
BRANCH  29  31
ATOM     31  O   UNL     1       8.283   6.817  18.849  0.00  0.00    +0.000 OA
ATOM     32  H   UNL     1       7.959   7.353  18.099  0.00  0.00    +0.000 HD
ENDBRANCH  29  31
ENDBRANCH  28  29
ENDBRANCH  21  23
ENDBRANCH  20  21
ENDBRANCH   4  20
TORSDOF 9
ENDMDL
MODEL 2
REMARK VINA RESULT:      -8.3      2.868      8.651
REMARK  Name = 
REMARK  9 active torsions:
REMARK  status: ('A' for Active; 'I' for Inactive)
REMARK    1  A    between atoms: N_1  and  C_2
REMARK    2  A    between atoms: C_7  and  S_8
REMARK    3  A    between atoms: S_8  and  C_9
REMARK    4  A    between atoms: C_12  and  C_13
REMARK    5  A    between atoms: C_13  and  N_14
REMARK    6  A    between atoms: N_14  and  C_15
REMARK    7  A    between atoms: C_20  and  C_21
REMARK    8  A    between atoms: C_21  and  O_23
REMARK    9  A    between atoms: C_25  and  N_26
REMARK                            x       y       z     vdW  Elec       q    Type
REMARK                         _______ _______ _______ _____ _____    ______ ____
ROOT
ATOM      1  C   UNL     1       2.548   4.965  18.508  0.00  0.00    +0.000 A 
ATOM      2  C   UNL     1       2.684   6.291  18.075  0.00  0.00    +0.000 A 
ATOM      3  C   UNL     1       2.366   7.375  18.911  0.00  0.00    +0.000 A 
ATOM      4  C   UNL     1       1.902   7.168  20.218  0.00  0.00    +0.000 A 
ATOM      5  C   UNL     1       1.737   5.848  20.658  0.00  0.00    +0.000 A 
ATOM      6  C   UNL     1       2.077   4.768  19.815  0.00  0.00    +0.000 A 
ENDROOT
BRANCH   6   7
ATOM      7  N   UNL     1       1.950   3.436  20.368  0.00  0.00    +0.000 N 
ATOM      8  O   UNL     1       0.867   2.850  20.232  0.00  0.00    +0.000 OA
ATOM      9  O   UNL     1       2.965   2.946  20.893  0.00  0.00    +0.000 OA
ENDBRANCH   6   7
BRANCH   1  10
ATOM     10  S   UNL     1       3.083   3.688  17.370  0.00  0.00    +0.000 S 
BRANCH  10  16
ATOM     11  C   UNL     1       5.815   4.112  17.917  0.00  0.00    +0.000 A 
ATOM     12  C   UNL     1       7.085   4.573  17.547  0.00  0.00    +0.000 A 
ATOM     13  C   UNL     1       7.347   4.982  16.239  0.00  0.00    +0.000 A 
ATOM     14  C   UNL     1       6.325   4.977  15.293  0.00  0.00    +0.000 A 
ATOM     15  C   UNL     1       5.036   4.593  15.665  0.00  0.00    +0.000 A 
ATOM     16  C   UNL     1       4.759   4.197  16.982  0.00  0.00    +0.000 A 
BRANCH  11  17
ATOM     17  N   UNL     1       5.599   3.751  19.265  0.00  0.00    +0.000 N 
ATOM     18  H   UNL     1       6.192   2.986  19.571  0.00  0.00    +0.000 HD
ATOM     19  H   UNL     1       4.615   3.554  19.434  0.00  0.00    +0.000 HD
ENDBRANCH  11  17
ENDBRANCH  10  16
ENDBRANCH   1  10
BRANCH   4  20
ATOM     20  C   UNL     1       1.583   8.354  21.118  0.00  0.00    +0.000 C 
BRANCH  20  21
ATOM     21  N   UNL     1       0.196   8.740  20.931  0.00  0.00    +0.000 N 
ATOM     22  H   UNL     1      -0.472   8.038  21.236  0.00  0.00    +0.000 HD
BRANCH  21  23
ATOM     23  C   UNL     1      -0.331   9.958  20.534  0.00  0.00    +0.000 A 
ATOM     24  C   UNL     1      -0.298  10.175  19.132  0.00  0.00    +0.000 A 
ATOM     25  C   UNL     1      -0.773  11.337  18.522  0.00  0.00    +0.000 A 
ATOM     26  C   UNL     1      -1.336  12.335  19.295  0.00  0.00    +0.000 A 
ATOM     27  C   UNL     1      -1.409  12.161  20.674  0.00  0.00    +0.000 A 
ATOM     28  C   UNL     1      -0.882  11.004  21.309  0.00  0.00    +0.000 A 
BRANCH  28  29
ATOM     29  C   UNL     1      -0.964  11.017  22.799  0.00  0.00    +0.000 C 
ATOM     30  O   UNL     1      -0.249  10.380  23.553  0.00  0.00    +0.000 OA
BRANCH  29  31
ATOM     31  O   UNL     1      -1.970  11.794  23.273  0.00  0.00    +0.000 OA
ATOM     32  H   UNL     1      -2.325  12.453  22.645  0.00  0.00    +0.000 HD
ENDBRANCH  29  31
ENDBRANCH  28  29
ENDBRANCH  21  23
ENDBRANCH  20  21
ENDBRANCH   4  20
TORSDOF 9
ENDMDL
MODEL 3
REMARK VINA RESULT:      -8.3      1.884      2.944
REMARK  Name = 
REMARK  9 active torsions:
REMARK  status: ('A' for Active; 'I' for Inactive)
REMARK    1  A    between atoms: N_1  and  C_2
REMARK    2  A    between atoms: C_7  and  S_8
REMARK    3  A    between atoms: S_8  and  C_9
REMARK    4  A    between atoms: C_12  and  C_13
REMARK    5  A    between atoms: C_13  and  N_14
REMARK    6  A    between atoms: N_14  and  C_15
REMARK    7  A    between atoms: C_20  and  C_21
REMARK    8  A    between atoms: C_21  and  O_23
REMARK    9  A    between atoms: C_25  and  N_26
REMARK                            x       y       z     vdW  Elec       q    Type
REMARK                         _______ _______ _______ _____ _____    ______ ____
ROOT
ATOM      1  C   UNL     1       0.744  10.313  19.451  0.00  0.00    +0.000 A 
ATOM      2  C   UNL     1       1.297  10.224  18.166  0.00  0.00    +0.000 A 
ATOM      3  C   UNL     1       2.034   9.099  17.759  0.00  0.00    +0.000 A 
ATOM      4  C   UNL     1       2.241   8.017  18.625  0.00  0.00    +0.000 A 
ATOM      5  C   UNL     1       1.715   8.100  19.921  0.00  0.00    +0.000 A 
ATOM      6  C   UNL     1       0.961   9.228  20.314  0.00  0.00    +0.000 A 
ENDROOT
BRANCH   6   7
ATOM      7  N   UNL     1       0.389   9.207  21.643  0.00  0.00    +0.000 N 
ATOM      8  O   UNL     1      -0.607   8.497  21.837  0.00  0.00    +0.000 OA
ATOM      9  O   UNL     1       0.978   9.863  22.519  0.00  0.00    +0.000 OA
ENDBRANCH   6   7
BRANCH   1  10
ATOM     10  S   UNL     1      -0.253  11.761  19.800  0.00  0.00    +0.000 S 
BRANCH  10  16
ATOM     11  C   UNL     1      -2.972  12.150  19.169  0.00  0.00    +0.000 A 
ATOM     12  C   UNL     1      -4.170  11.725  18.582  0.00  0.00    +0.000 A 
ATOM     13  C   UNL     1      -4.208  10.593  17.767  0.00  0.00    +0.000 A 
ATOM     14  C   UNL     1      -3.050   9.845  17.566  0.00  0.00    +0.000 A 
ATOM     15  C   UNL     1      -1.865  10.212  18.205  0.00  0.00    +0.000 A 
ATOM     16  C   UNL     1      -1.822  11.338  19.041  0.00  0.00    +0.000 A 
BRANCH  11  17
ATOM     17  N   UNL     1      -3.004  13.279  20.018  0.00  0.00    +0.000 N 
ATOM     18  H   UNL     1      -2.134  13.802  20.015  0.00  0.00    +0.000 HD
ATOM     19  H   UNL     1      -3.281  13.016  20.961  0.00  0.00    +0.000 HD
ENDBRANCH  11  17
ENDBRANCH  10  16
ENDBRANCH   1  10
BRANCH   4  20
ATOM     20  C   UNL     1       3.024   6.796  18.159  0.00  0.00    +0.000 C 
BRANCH  20  21
ATOM     21  N   UNL     1       2.222   5.604  18.365  0.00  0.00    +0.000 N 
ATOM     22  H   UNL     1       1.471   5.491  17.691  0.00  0.00    +0.000 HD
BRANCH  21  23
ATOM     23  C   UNL     1       2.420   4.553  19.246  0.00  0.00    +0.000 A 
ATOM     24  C   UNL     1       1.429   4.448  20.256  0.00  0.00    +0.000 A 
ATOM     25  C   UNL     1       1.442   3.466  21.248  0.00  0.00    +0.000 A 
ATOM     26  C   UNL     1       2.444   2.514  21.256  0.00  0.00    +0.000 A 
ATOM     27  C   UNL     1       3.429   2.563  20.273  0.00  0.00    +0.000 A 
ATOM     28  C   UNL     1       3.453   3.589  19.290  0.00  0.00    +0.000 A 
BRANCH  28  29
ATOM     29  C   UNL     1       4.625   3.544  18.368  0.00  0.00    +0.000 C 
ATOM     30  O   UNL     1       4.569   3.555  17.150  0.00  0.00    +0.000 OA
BRANCH  29  31
ATOM     31  O   UNL     1       5.813   3.441  19.016  0.00  0.00    +0.000 OA
ATOM     32  H   UNL     1       6.541   3.045  18.499  0.00  0.00    +0.000 HD
ENDBRANCH  29  31
ENDBRANCH  28  29
ENDBRANCH  21  23
ENDBRANCH  20  21
ENDBRANCH   4  20
TORSDOF 9
ENDMDL
MODEL 4
REMARK VINA RESULT:      -8.2      2.146      2.823
REMARK  Name = 
REMARK  9 active torsions:
REMARK  status: ('A' for Active; 'I' for Inactive)
REMARK    1  A    between atoms: N_1  and  C_2
REMARK    2  A    between atoms: C_7  and  S_8
REMARK    3  A    between atoms: S_8  and  C_9
REMARK    4  A    between atoms: C_12  and  C_13
REMARK    5  A    between atoms: C_13  and  N_14
REMARK    6  A    between atoms: N_14  and  C_15
REMARK    7  A    between atoms: C_20  and  C_21
REMARK    8  A    between atoms: C_21  and  O_23
REMARK    9  A    between atoms: C_25  and  N_26
REMARK                            x       y       z     vdW  Elec       q    Type
REMARK                         _______ _______ _______ _____ _____    ______ ____
ROOT
ATOM      1  C   UNL     1       0.973  10.015  19.470  0.00  0.00    +0.000 A 
ATOM      2  C   UNL     1       1.523   9.974  18.181  0.00  0.00    +0.000 A 
ATOM      3  C   UNL     1       2.266   8.870  17.732  0.00  0.00    +0.000 A 
ATOM      4  C   UNL     1       2.483   7.759  18.560  0.00  0.00    +0.000 A 
ATOM      5  C   UNL     1       1.961   7.794  19.860  0.00  0.00    +0.000 A 
ATOM      6  C   UNL     1       1.200   8.902  20.293  0.00  0.00    +0.000 A 
ENDROOT
BRANCH   6   7
ATOM      7  N   UNL     1       0.633   8.831  21.623  0.00  0.00    +0.000 N 
ATOM      8  O   UNL     1       1.276   9.325  22.558  0.00  0.00    +0.000 OA
ATOM      9  O   UNL     1      -0.499   8.326  21.725  0.00  0.00    +0.000 OA
ENDBRANCH   6   7
BRANCH   1  10
ATOM     10  S   UNL     1      -0.032  11.443  19.872  0.00  0.00    +0.000 S 
BRANCH  10  16
ATOM     11  C   UNL     1      -2.671  11.967  19.032  0.00  0.00    +0.000 A 
ATOM     12  C   UNL     1      -3.830  11.614  18.329  0.00  0.00    +0.000 A 
ATOM     13  C   UNL     1      -3.841  10.515  17.469  0.00  0.00    +0.000 A 
ATOM     14  C   UNL     1      -2.699   9.728  17.336  0.00  0.00    +0.000 A 
ATOM     15  C   UNL     1      -1.560  10.022  18.087  0.00  0.00    +0.000 A 
ATOM     16  C   UNL     1      -1.546  11.114  18.968  0.00  0.00    +0.000 A 
BRANCH  11  17
ATOM     17  N   UNL     1      -2.733  13.064  19.919  0.00  0.00    +0.000 N 
ATOM     18  H   UNL     1      -3.407  12.931  20.667  0.00  0.00    +0.000 HD
ATOM     19  H   UNL     1      -2.898  13.931  19.414  0.00  0.00    +0.000 HD
ENDBRANCH  11  17
ENDBRANCH  10  16
ENDBRANCH   1  10
BRANCH   4  20
ATOM     20  C   UNL     1       3.272   6.561  18.049  0.00  0.00    +0.000 C 
BRANCH  20  21
ATOM     21  N   UNL     1       3.284   5.525  19.065  0.00  0.00    +0.000 N 
ATOM     22  H   UNL     1       3.677   5.822  19.953  0.00  0.00    +0.000 HD
BRANCH  21  23
ATOM     23  C   UNL     1       2.720   4.260  19.036  0.00  0.00    +0.000 A 
ATOM     24  C   UNL     1       1.334   4.249  18.734  0.00  0.00    +0.000 A 
ATOM     25  C   UNL     1       0.572   3.081  18.661  0.00  0.00    +0.000 A 
ATOM     26  C   UNL     1       1.177   1.855  18.861  0.00  0.00    +0.000 A 
ATOM     27  C   UNL     1       2.540   1.812  19.141  0.00  0.00    +0.000 A 
ATOM     28  C   UNL     1       3.314   2.998  19.268  0.00  0.00    +0.000 A 
BRANCH  28  29
ATOM     29  C   UNL     1       4.736   2.776  19.657  0.00  0.00    +0.000 C 
ATOM     30  O   UNL     1       5.131   1.948  20.460  0.00  0.00    +0.000 OA
BRANCH  29  31
ATOM     31  O   UNL     1       5.597   3.636  19.053  0.00  0.00    +0.000 OA
ATOM     32  H   UNL     1       5.840   4.424  19.577  0.00  0.00    +0.000 HD
ENDBRANCH  29  31
ENDBRANCH  28  29
ENDBRANCH  21  23
ENDBRANCH  20  21
ENDBRANCH   4  20
TORSDOF 9
ENDMDL
MODEL 5
REMARK VINA RESULT:      -8.2      1.557      1.912
REMARK  Name = 
REMARK  9 active torsions:
REMARK  status: ('A' for Active; 'I' for Inactive)
REMARK    1  A    between atoms: N_1  and  C_2
REMARK    2  A    between atoms: C_7  and  S_8
REMARK    3  A    between atoms: S_8  and  C_9
REMARK    4  A    between atoms: C_12  and  C_13
REMARK    5  A    between atoms: C_13  and  N_14
REMARK    6  A    between atoms: N_14  and  C_15
REMARK    7  A    between atoms: C_20  and  C_21
REMARK    8  A    between atoms: C_21  and  O_23
REMARK    9  A    between atoms: C_25  and  N_26
REMARK                            x       y       z     vdW  Elec       q    Type
REMARK                         _______ _______ _______ _____ _____    ______ ____
ROOT
ATOM      1  C   UNL     1       1.083  10.030  19.087  0.00  0.00    +0.000 A 
ATOM      2  C   UNL     1       1.688   9.418  17.981  0.00  0.00    +0.000 A 
ATOM      3  C   UNL     1       2.235   8.126  18.060  0.00  0.00    +0.000 A 
ATOM      4  C   UNL     1       2.192   7.396  19.256  0.00  0.00    +0.000 A 
ATOM      5  C   UNL     1       1.613   8.002  20.379  0.00  0.00    +0.000 A 
ATOM      6  C   UNL     1       1.050   9.293  20.281  0.00  0.00    +0.000 A 
ENDROOT
BRANCH   6   7
ATOM      7  N   UNL     1       0.404   9.821  21.464  0.00  0.00    +0.000 N 
ATOM      8  O   UNL     1      -0.652   9.292  21.836  0.00  0.00    +0.000 OA
ATOM      9  O   UNL     1       0.992  10.738  22.064  0.00  0.00    +0.000 OA
ENDBRANCH   6   7
BRANCH   1  10
ATOM     10  S   UNL     1       0.342  11.638  18.814  0.00  0.00    +0.000 S 
BRANCH  10  16
ATOM     11  C   UNL     1      -2.450  12.026  18.809  0.00  0.00    +0.000 A 
ATOM     12  C   UNL     1      -3.749  11.601  18.503  0.00  0.00    +0.000 A 
ATOM     13  C   UNL     1      -3.967  10.472  17.712  0.00  0.00    +0.000 A 
ATOM     14  C   UNL     1      -2.884   9.727  17.254  0.00  0.00    +0.000 A 
ATOM     15  C   UNL     1      -1.586  10.093  17.614  0.00  0.00    +0.000 A 
ATOM     16  C   UNL     1      -1.358  11.216  18.423  0.00  0.00    +0.000 A 
BRANCH  11  17
ATOM     17  N   UNL     1      -2.292  13.151  19.648  0.00  0.00    +0.000 N 
ATOM     18  H   UNL     1      -2.004  12.905  20.591  0.00  0.00    +0.000 HD
ATOM     19  H   UNL     1      -3.133  13.724  19.650  0.00  0.00    +0.000 HD
ENDBRANCH  11  17
ENDBRANCH  10  16
ENDBRANCH   1  10
BRANCH   4  20
ATOM     20  C   UNL     1       2.771   5.988  19.319  0.00  0.00    +0.000 C 
BRANCH  20  21
ATOM     21  N   UNL     1       4.110   5.994  18.761  0.00  0.00    +0.000 N 
ATOM     22  H   UNL     1       4.814   6.384  19.380  0.00  0.00    +0.000 HD
BRANCH  21  23
ATOM     23  C   UNL     1       4.574   5.428  17.584  0.00  0.00    +0.000 A 
ATOM     24  C   UNL     1       4.932   6.371  16.587  0.00  0.00    +0.000 A 
ATOM     25  C   UNL     1       5.416   6.014  15.327  0.00  0.00    +0.000 A 
ATOM     26  C   UNL     1       5.593   4.679  15.015  0.00  0.00    +0.000 A 
ATOM     27  C   UNL     1       5.274   3.715  15.968  0.00  0.00    +0.000 A 
ATOM     28  C   UNL     1       4.733   4.067  17.234  0.00  0.00    +0.000 A 
BRANCH  28  29
ATOM     29  C   UNL     1       4.366   2.909  18.100  0.00  0.00    +0.000 C 
ATOM     30  O   UNL     1       3.535   2.058  17.831  0.00  0.00    +0.000 OA
BRANCH  29  31
ATOM     31  O   UNL     1       5.027   2.897  19.286  0.00  0.00    +0.000 OA
ATOM     32  H   UNL     1       5.029   2.041  19.757  0.00  0.00    +0.000 HD
ENDBRANCH  29  31
ENDBRANCH  28  29
ENDBRANCH  21  23
ENDBRANCH  20  21
ENDBRANCH   4  20
TORSDOF 9
ENDMDL
MODEL 6
REMARK VINA RESULT:      -8.1      0.986      1.187
REMARK  Name = 
REMARK  9 active torsions:
REMARK  status: ('A' for Active; 'I' for Inactive)
REMARK    1  A    between atoms: N_1  and  C_2
REMARK    2  A    between atoms: C_7  and  S_8
REMARK    3  A    between atoms: S_8  and  C_9
REMARK    4  A    between atoms: C_12  and  C_13
REMARK    5  A    between atoms: C_13  and  N_14
REMARK    6  A    between atoms: N_14  and  C_15
REMARK    7  A    between atoms: C_20  and  C_21
REMARK    8  A    between atoms: C_21  and  O_23
REMARK    9  A    between atoms: C_25  and  N_26
REMARK                            x       y       z     vdW  Elec       q    Type
REMARK                         _______ _______ _______ _____ _____    ______ ____
ROOT
ATOM      1  C   UNL     1       0.974  10.026  19.413  0.00  0.00    +0.000 A 
ATOM      2  C   UNL     1       1.541   9.885  18.139  0.00  0.00    +0.000 A 
ATOM      3  C   UNL     1       2.255   8.732  17.774  0.00  0.00    +0.000 A 
ATOM      4  C   UNL     1       2.423   7.670  18.675  0.00  0.00    +0.000 A 
ATOM      5  C   UNL     1       1.883   7.805  19.961  0.00  0.00    +0.000 A 
ATOM      6  C   UNL     1       1.152   8.962  20.309  0.00  0.00    +0.000 A 
ENDROOT
BRANCH   6   7
ATOM      7  N   UNL     1       0.562   8.994  21.631  0.00  0.00    +0.000 N 
ATOM      8  O   UNL     1       1.160   9.614  22.521  0.00  0.00    +0.000 OA
ATOM      9  O   UNL     1      -0.544   8.442  21.766  0.00  0.00    +0.000 OA
ENDBRANCH   6   7
BRANCH   1  10
ATOM     10  S   UNL     1       0.008  11.508  19.706  0.00  0.00    +0.000 S 
BRANCH  10  16
ATOM     11  C   UNL     1      -2.683  11.935  18.985  0.00  0.00    +0.000 A 
ATOM     12  C   UNL     1      -3.845  11.563  18.297  0.00  0.00    +0.000 A 
ATOM     13  C   UNL     1      -3.825  10.523  17.366  0.00  0.00    +0.000 A 
ATOM     14  C   UNL     1      -2.648   9.813  17.145  0.00  0.00    +0.000 A 
ATOM     15  C   UNL     1      -1.501  10.122  17.878  0.00  0.00    +0.000 A 
ATOM     16  C   UNL     1      -1.516  11.152  18.829  0.00  0.00    +0.000 A 
BRANCH  11  17
ATOM     17  N   UNL     1      -2.773  12.966  19.946  0.00  0.00    +0.000 N 
ATOM     18  H   UNL     1      -3.712  13.084  20.313  0.00  0.00    +0.000 HD
ATOM     19  H   UNL     1      -2.401  13.839  19.578  0.00  0.00    +0.000 HD
ENDBRANCH  11  17
ENDBRANCH  10  16
ENDBRANCH   1  10
BRANCH   4  20
ATOM     20  C   UNL     1       3.181   6.418  18.255  0.00  0.00    +0.000 C 
BRANCH  20  21
ATOM     21  N   UNL     1       4.375   6.801  17.525  0.00  0.00    +0.000 N 
ATOM     22  H   UNL     1       4.597   7.789  17.586  0.00  0.00    +0.000 HD
BRANCH  21  23
ATOM     23  C   UNL     1       5.309   6.001  16.886  0.00  0.00    +0.000 A 
ATOM     24  C   UNL     1       5.102   5.871  15.489  0.00  0.00    +0.000 A 
ATOM     25  C   UNL     1       5.923   5.106  14.657  0.00  0.00    +0.000 A 
ATOM     26  C   UNL     1       7.018   4.452  15.190  0.00  0.00    +0.000 A 
ATOM     27  C   UNL     1       7.274   4.565  16.554  0.00  0.00    +0.000 A 
ATOM     28  C   UNL     1       6.416   5.299  17.417  0.00  0.00    +0.000 A 
BRANCH  28  29
ATOM     29  C   UNL     1       6.786   5.245  18.860  0.00  0.00    +0.000 C 
ATOM     30  O   UNL     1       6.034   5.467  19.794  0.00  0.00    +0.000 OA
BRANCH  29  31
ATOM     31  O   UNL     1       8.097   4.958  19.067  0.00  0.00    +0.000 OA
ATOM     32  H   UNL     1       8.397   4.094  18.724  0.00  0.00    +0.000 HD
ENDBRANCH  29  31
ENDBRANCH  28  29
ENDBRANCH  21  23
ENDBRANCH  20  21
ENDBRANCH   4  20
TORSDOF 9
ENDMDL
MODEL 7
REMARK VINA RESULT:      -8.1      3.034      8.688
REMARK  Name = 
REMARK  9 active torsions:
REMARK  status: ('A' for Active; 'I' for Inactive)
REMARK    1  A    between atoms: N_1  and  C_2
REMARK    2  A    between atoms: C_7  and  S_8
REMARK    3  A    between atoms: S_8  and  C_9
REMARK    4  A    between atoms: C_12  and  C_13
REMARK    5  A    between atoms: C_13  and  N_14
REMARK    6  A    between atoms: N_14  and  C_15
REMARK    7  A    between atoms: C_20  and  C_21
REMARK    8  A    between atoms: C_21  and  O_23
REMARK    9  A    between atoms: C_25  and  N_26
REMARK                            x       y       z     vdW  Elec       q    Type
REMARK                         _______ _______ _______ _____ _____    ______ ____
ROOT
ATOM      1  C   UNL     1       2.590   4.812  18.476  0.00  0.00    +0.000 A 
ATOM      2  C   UNL     1       2.642   6.151  18.064  0.00  0.00    +0.000 A 
ATOM      3  C   UNL     1       2.274   7.201  18.921  0.00  0.00    +0.000 A 
ATOM      4  C   UNL     1       1.843   6.948  20.231  0.00  0.00    +0.000 A 
ATOM      5  C   UNL     1       1.762   5.614  20.652  0.00  0.00    +0.000 A 
ATOM      6  C   UNL     1       2.152   4.568  19.786  0.00  0.00    +0.000 A 
ENDROOT
BRANCH   6   7
ATOM      7  N   UNL     1       2.110   3.223  20.320  0.00  0.00    +0.000 N 
ATOM      8  O   UNL     1       1.053   2.587  20.213  0.00  0.00    +0.000 OA
ATOM      9  O   UNL     1       3.166   2.775  20.799  0.00  0.00    +0.000 OA
ENDBRANCH   6   7
BRANCH   1  10
ATOM     10  S   UNL     1       3.182   3.586  17.311  0.00  0.00    +0.000 S 
BRANCH  10  16
ATOM     11  C   UNL     1       5.891   4.154  17.843  0.00  0.00    +0.000 A 
ATOM     12  C   UNL     1       7.131   4.688  17.470  0.00  0.00    +0.000 A 
ATOM     13  C   UNL     1       7.359   5.127  16.165  0.00  0.00    +0.000 A 
ATOM     14  C   UNL     1       6.332   5.077  15.226  0.00  0.00    +0.000 A 
ATOM     15  C   UNL     1       5.068   4.618  15.603  0.00  0.00    +0.000 A 
ATOM     16  C   UNL     1       4.824   4.192  16.917  0.00  0.00    +0.000 A 
BRANCH  11  17
ATOM     17  N   UNL     1       5.705   3.765  19.188  0.00  0.00    +0.000 N 
ATOM     18  H   UNL     1       5.014   4.330  19.672  0.00  0.00    +0.000 HD
ATOM     19  H   UNL     1       6.592   3.748  19.687  0.00  0.00    +0.000 HD
ENDBRANCH  11  17
ENDBRANCH  10  16
ENDBRANCH   1  10
BRANCH   4  20
ATOM     20  C   UNL     1       1.468   8.100  21.154  0.00  0.00    +0.000 C 
BRANCH  20  21
ATOM     21  N   UNL     1       1.107   9.257  20.357  0.00  0.00    +0.000 N 
ATOM     22  H   UNL     1       1.585   9.307  19.462  0.00  0.00    +0.000 HD
BRANCH  21  23
ATOM     23  C   UNL     1       0.123  10.206  20.581  0.00  0.00    +0.000 A 
ATOM     24  C   UNL     1       0.029  10.638  21.929  0.00  0.00    +0.000 A 
ATOM     25  C   UNL     1      -0.899  11.583  22.372  0.00  0.00    +0.000 A 
ATOM     26  C   UNL     1      -1.765  12.167  21.467  0.00  0.00    +0.000 A 
ATOM     27  C   UNL     1      -1.699  11.790  20.129  0.00  0.00    +0.000 A 
ATOM     28  C   UNL     1      -0.793  10.792  19.677  0.00  0.00    +0.000 A 
BRANCH  28  29
ATOM     29  C   UNL     1      -0.913  10.447  18.231  0.00  0.00    +0.000 C 
ATOM     30  O   UNL     1      -1.947  10.453  17.584  0.00  0.00    +0.000 OA
BRANCH  29  31
ATOM     31  O   UNL     1       0.264  10.065  17.672  0.00  0.00    +0.000 OA
ATOM     32  H   UNL     1       0.506   9.128  17.802  0.00  0.00    +0.000 HD
ENDBRANCH  29  31
ENDBRANCH  28  29
ENDBRANCH  21  23
ENDBRANCH  20  21
ENDBRANCH   4  20
TORSDOF 9
ENDMDL
MODEL 8
REMARK VINA RESULT:      -8.0      2.936      8.448
REMARK  Name = 
REMARK  9 active torsions:
REMARK  status: ('A' for Active; 'I' for Inactive)
REMARK    1  A    between atoms: N_1  and  C_2
REMARK    2  A    between atoms: C_7  and  S_8
REMARK    3  A    between atoms: S_8  and  C_9
REMARK    4  A    between atoms: C_12  and  C_13
REMARK    5  A    between atoms: C_13  and  N_14
REMARK    6  A    between atoms: N_14  and  C_15
REMARK    7  A    between atoms: C_20  and  C_21
REMARK    8  A    between atoms: C_21  and  O_23
REMARK    9  A    between atoms: C_25  and  N_26
REMARK                            x       y       z     vdW  Elec       q    Type
REMARK                         _______ _______ _______ _____ _____    ______ ____
ROOT
ATOM      1  C   UNL     1       3.033   4.792  19.395  0.00  0.00    +0.000 A 
ATOM      2  C   UNL     1       3.311   6.020  18.778  0.00  0.00    +0.000 A 
ATOM      3  C   UNL     1       2.707   7.213  19.207  0.00  0.00    +0.000 A 
ATOM      4  C   UNL     1       1.801   7.222  20.278  0.00  0.00    +0.000 A 
ATOM      5  C   UNL     1       1.494   6.000  20.890  0.00  0.00    +0.000 A 
ATOM      6  C   UNL     1       2.121   4.809  20.462  0.00  0.00    +0.000 A 
ENDROOT
BRANCH   6   7
ATOM      7  N   UNL     1       1.807   3.600  21.193  0.00  0.00    +0.000 N 
ATOM      8  O   UNL     1       0.946   2.843  20.725  0.00  0.00    +0.000 OA
ATOM      9  O   UNL     1       2.472   3.375  22.219  0.00  0.00    +0.000 OA
ENDBRANCH   6   7
BRANCH   1  10
ATOM     10  S   UNL     1       3.949   3.369  18.808  0.00  0.00    +0.000 S 
BRANCH  10  16
ATOM     11  C   UNL     1       6.332   4.658  18.032  0.00  0.00    +0.000 A 
ATOM     12  C   UNL     1       7.147   5.253  17.060  0.00  0.00    +0.000 A 
ATOM     13  C   UNL     1       6.817   5.185  15.706  0.00  0.00    +0.000 A 
ATOM     14  C   UNL     1       5.639   4.556  15.311  0.00  0.00    +0.000 A 
ATOM     15  C   UNL     1       4.778   4.025  16.273  0.00  0.00    +0.000 A 
ATOM     16  C   UNL     1       5.093   4.104  17.638  0.00  0.00    +0.000 A 
BRANCH  11  17
ATOM     17  N   UNL     1       6.696   4.796  19.389  0.00  0.00    +0.000 N 
ATOM     18  H   UNL     1       6.502   3.965  19.939  0.00  0.00    +0.000 HD
ATOM     19  H   UNL     1       6.268   5.624  19.797  0.00  0.00    +0.000 HD
ENDBRANCH  11  17
ENDBRANCH  10  16
ENDBRANCH   1  10
BRANCH   4  20
ATOM     20  C   UNL     1       1.172   8.528  20.744  0.00  0.00    +0.000 C 
BRANCH  20  21
ATOM     21  N   UNL     1       1.058   9.435  19.617  0.00  0.00    +0.000 N 
ATOM     22  H   UNL     1       1.846   9.401  18.978  0.00  0.00    +0.000 HD
BRANCH  21  23
ATOM     23  C   UNL     1      -0.015  10.221  19.227  0.00  0.00    +0.000 A 
ATOM     24  C   UNL     1      -0.645   9.791  18.031  0.00  0.00    +0.000 A 
ATOM     25  C   UNL     1      -1.739  10.444  17.460  0.00  0.00    +0.000 A 
ATOM     26  C   UNL     1      -2.277  11.554  18.085  0.00  0.00    +0.000 A 
ATOM     27  C   UNL     1      -1.705  12.003  19.272  0.00  0.00    +0.000 A 
ATOM     28  C   UNL     1      -0.560  11.376  19.834  0.00  0.00    +0.000 A 
BRANCH  28  29
ATOM     29  C   UNL     1      -0.024  12.036  21.059  0.00  0.00    +0.000 C 
ATOM     30  O   UNL     1       1.143  12.033  21.413  0.00  0.00    +0.000 OA
BRANCH  29  31
ATOM     31  O   UNL     1      -0.985  12.633  21.810  0.00  0.00    +0.000 OA
ATOM     32  H   UNL     1      -1.143  13.577  21.616  0.00  0.00    +0.000 HD
ENDBRANCH  29  31
ENDBRANCH  28  29
ENDBRANCH  21  23
ENDBRANCH  20  21
ENDBRANCH   4  20
TORSDOF 9
ENDMDL
MODEL 9
REMARK VINA RESULT:      -8.0      1.985      3.005
REMARK  Name = 
REMARK  9 active torsions:
REMARK  status: ('A' for Active; 'I' for Inactive)
REMARK    1  A    between atoms: N_1  and  C_2
REMARK    2  A    between atoms: C_7  and  S_8
REMARK    3  A    between atoms: S_8  and  C_9
REMARK    4  A    between atoms: C_12  and  C_13
REMARK    5  A    between atoms: C_13  and  N_14
REMARK    6  A    between atoms: N_14  and  C_15
REMARK    7  A    between atoms: C_20  and  C_21
REMARK    8  A    between atoms: C_21  and  O_23
REMARK    9  A    between atoms: C_25  and  N_26
REMARK                            x       y       z     vdW  Elec       q    Type
REMARK                         _______ _______ _______ _____ _____    ______ ____
ROOT
ATOM      1  C   UNL     1       0.355   9.916  19.580  0.00  0.00    +0.000 A 
ATOM      2  C   UNL     1       0.843   9.817  18.270  0.00  0.00    +0.000 A 
ATOM      3  C   UNL     1       1.759   8.820  17.899  0.00  0.00    +0.000 A 
ATOM      4  C   UNL     1       2.219   7.878  18.829  0.00  0.00    +0.000 A 
ATOM      5  C   UNL     1       1.760   7.976  20.149  0.00  0.00    +0.000 A 
ATOM      6  C   UNL     1       0.825   8.973  20.506  0.00  0.00    +0.000 A 
ENDROOT
BRANCH   6   7
ATOM      7  N   UNL     1       0.342   8.963  21.871  0.00  0.00    +0.000 N 
ATOM      8  O   UNL     1      -0.663   8.288  22.129  0.00  0.00    +0.000 OA
ATOM      9  O   UNL     1       1.012   9.592  22.709  0.00  0.00    +0.000 OA
ENDBRANCH   6   7
BRANCH   1  10
ATOM     10  S   UNL     1      -0.883  11.175  19.887  0.00  0.00    +0.000 S 
BRANCH  10  16
ATOM     11  C   UNL     1      -1.913  11.784  17.335  0.00  0.00    +0.000 A 
ATOM     12  C   UNL     1      -2.845  11.590  16.308  0.00  0.00    +0.000 A 
ATOM     13  C   UNL     1      -3.750  10.529  16.351  0.00  0.00    +0.000 A 
ATOM     14  C   UNL     1      -3.763   9.673  17.450  0.00  0.00    +0.000 A 
ATOM     15  C   UNL     1      -2.892   9.899  18.517  0.00  0.00    +0.000 A 
ATOM     16  C   UNL     1      -1.991  10.973  18.490  0.00  0.00    +0.000 A 
BRANCH  11  17
ATOM     17  N   UNL     1      -1.050  12.899  17.256  0.00  0.00    +0.000 N 
ATOM     18  H   UNL     1      -0.258  12.834  17.889  0.00  0.00    +0.000 HD
ATOM     19  H   UNL     1      -1.565  13.767  17.387  0.00  0.00    +0.000 HD
ENDBRANCH  11  17
ENDBRANCH  10  16
ENDBRANCH   1  10
BRANCH   4  20
ATOM     20  C   UNL     1       3.197   6.789  18.404  0.00  0.00    +0.000 C 
BRANCH  20  21
ATOM     21  N   UNL     1       2.514   5.509  18.390  0.00  0.00    +0.000 N 
ATOM     22  H   UNL     1       2.007   5.321  17.531  0.00  0.00    +0.000 HD
BRANCH  21  23
ATOM     23  C   UNL     1       2.570   4.474  19.308  0.00  0.00    +0.000 A 
ATOM     24  C   UNL     1       1.404   4.341  20.106  0.00  0.00    +0.000 A 
ATOM     25  C   UNL     1       1.255   3.368  21.096  0.00  0.00    +0.000 A 
ATOM     26  C   UNL     1       2.268   2.453  21.314  0.00  0.00    +0.000 A 
ATOM     27  C   UNL     1       3.424   2.529  20.543  0.00  0.00    +0.000 A 
ATOM     28  C   UNL     1       3.606   3.548  19.568  0.00  0.00    +0.000 A 
BRANCH  28  29
ATOM     29  C   UNL     1       4.937   3.537  18.894  0.00  0.00    +0.000 C 
ATOM     30  O   UNL     1       5.962   4.022  19.341  0.00  0.00    +0.000 OA
BRANCH  29  31
ATOM     31  O   UNL     1       4.911   2.956  17.667  0.00  0.00    +0.000 OA
ATOM     32  H   UNL     1       5.390   2.109  17.593  0.00  0.00    +0.000 HD
ENDBRANCH  29  31
ENDBRANCH  28  29
ENDBRANCH  21  23
ENDBRANCH  20  21
ENDBRANCH   4  20
TORSDOF 9
ENDMDL
