MODEL 1
REMARK VINA RESULT:      -8.9      0.000      0.000
REMARK  Name = 
REMARK  6 active torsions:
REMARK  status: ('A' for Active; 'I' for Inactive)
REMARK    1  A    between atoms: C_1  and  C_2
REMARK    2  A    between atoms: C_6  and  C_7
REMARK    3  A    between atoms: C_15  and  C_16
REMARK    4  A    between atoms: N_18  and  C_19
REMARK    5  A    between atoms: C_26  and  C_27
REMARK    6  A    between atoms: C_30  and  C_31
REMARK                            x       y       z     vdW  Elec       q    Type
REMARK                         _______ _______ _______ _____ _____    ______ ____
ROOT
ATOM      1  C   UNL     1       0.415  11.192  18.687  0.00  0.00    +0.000 A 
ATOM      2  C   UNL     1       1.587  11.922  18.639  0.00  0.00    +0.000 A 
ATOM      3  N   UNL     1       1.256  13.244  18.501  0.00  0.00    +0.000 N 
ATOM      4  N   UNL     1      -0.080  13.401  18.382  0.00  0.00    +0.000 NA
ATOM      5  C   UNL     1      -0.611  12.171  18.491  0.00  0.00    +0.000 A 
ENDROOT
BRANCH   1  13
ATOM      6  C   UNL     1       1.316   8.992  22.554  0.00  0.00    +0.000 C 
ATOM      7  C   UNL     1       0.519   9.606  21.424  0.00  0.00    +0.000 C 
ATOM      8  O   UNL     1      -0.448  10.331  21.653  0.00  0.00    +0.000 OA
ATOM      9  N   UNL     1       0.946   9.277  20.148  0.00  0.00    +0.000 N 
ATOM     10  N   UNL     1       1.897   8.310  19.959  0.00  0.00    +0.000 NA
ATOM     11  C   UNL     1       1.971   8.091  18.685  0.00  0.00    +0.000 C 
ATOM     12  C   UNL     1       1.059   8.926  17.834  0.00  0.00    +0.000 C 
ATOM     13  C   UNL     1       0.297   9.711  18.900  0.00  0.00    +0.000 C 
BRANCH  11  14
ATOM     14  C   UNL     1       2.877   7.078  18.102  0.00  0.00    +0.000 A 
ATOM     15  C   UNL     1       2.564   5.720  18.274  0.00  0.00    +0.000 A 
ATOM     16  C   UNL     1       3.383   4.738  17.719  0.00  0.00    +0.000 A 
ATOM     17  C   UNL     1       4.508   5.115  16.997  0.00  0.00    +0.000 A 
ATOM     18  F   UNL     1       5.294   4.174  16.461  0.00  0.00    +0.000 F 
ATOM     19  C   UNL     1       4.833   6.457  16.823  0.00  0.00    +0.000 A 
ATOM     20  C   UNL     1       4.017   7.446  17.377  0.00  0.00    +0.000 A 
ENDBRANCH  11  14
ENDBRANCH   1  13
BRANCH   5  21
ATOM     21  C   UNL     1      -2.077  12.017  18.400  0.00  0.00    +0.000 A 
ATOM     22  C   UNL     1      -2.935  12.341  19.457  0.00  0.00    +0.000 A 
ATOM     23  C   UNL     1      -4.321  12.165  19.348  0.00  0.00    +0.000 A 
ATOM     24  C   UNL     1      -4.881  11.640  18.181  0.00  0.00    +0.000 A 
ATOM     25  C   UNL     1      -6.360  11.433  18.049  0.00  0.00    +0.000 C 
ATOM     26  C   UNL     1      -4.030  11.286  17.130  0.00  0.00    +0.000 A 
ATOM     27  C   UNL     1      -2.649  11.475  17.237  0.00  0.00    +0.000 A 
ENDBRANCH   5  21
BRANCH   3  28
ATOM     28  C   UNL     1       2.141  14.356  18.462  0.00  0.00    +0.000 A 
ATOM     29  C   UNL     1       1.673  15.658  18.691  0.00  0.00    +0.000 A 
ATOM     30  C   UNL     1       2.555  16.740  18.651  0.00  0.00    +0.000 A 
ATOM     31  C   UNL     1       3.904  16.532  18.374  0.00  0.00    +0.000 A 
ATOM     32  C   UNL     1       4.377  15.242  18.140  0.00  0.00    +0.000 A 
ATOM     33  C   UNL     1       3.502  14.154  18.188  0.00  0.00    +0.000 A 
ENDBRANCH   3  28
TORSDOF 4
ENDMDL
MODEL 2
REMARK VINA RESULT:      -8.8      0.076      1.194
REMARK  Name = 
REMARK  6 active torsions:
REMARK  status: ('A' for Active; 'I' for Inactive)
REMARK    1  A    between atoms: C_1  and  C_2
REMARK    2  A    between atoms: C_6  and  C_7
REMARK    3  A    between atoms: C_15  and  C_16
REMARK    4  A    between atoms: N_18  and  C_19
REMARK    5  A    between atoms: C_26  and  C_27
REMARK    6  A    between atoms: C_30  and  C_31
REMARK                            x       y       z     vdW  Elec       q    Type
REMARK                         _______ _______ _______ _____ _____    ______ ____
ROOT
ATOM      1  C   UNL     1       0.448  11.192  18.697  0.00  0.00    +0.000 A 
ATOM      2  C   UNL     1       1.625  11.912  18.637  0.00  0.00    +0.000 A 
ATOM      3  N   UNL     1       1.304  13.237  18.501  0.00  0.00    +0.000 N 
ATOM      4  N   UNL     1      -0.032  13.405  18.397  0.00  0.00    +0.000 NA
ATOM      5  C   UNL     1      -0.572  12.179  18.512  0.00  0.00    +0.000 A 
ENDROOT
BRANCH   1  13
ATOM      6  C   UNL     1       1.357   8.987  22.560  0.00  0.00    +0.000 C 
ATOM      7  C   UNL     1       0.558   9.607  21.434  0.00  0.00    +0.000 C 
ATOM      8  O   UNL     1      -0.403  10.340  21.669  0.00  0.00    +0.000 OA
ATOM      9  N   UNL     1       0.974   9.274  20.156  0.00  0.00    +0.000 N 
ATOM     10  N   UNL     1       1.917   8.299  19.962  0.00  0.00    +0.000 NA
ATOM     11  C   UNL     1       1.981   8.080  18.687  0.00  0.00    +0.000 C 
ATOM     12  C   UNL     1       1.069   8.920  17.842  0.00  0.00    +0.000 C 
ATOM     13  C   UNL     1       0.320   9.712  18.912  0.00  0.00    +0.000 C 
BRANCH  11  14
ATOM     14  C   UNL     1       2.875   7.059  18.099  0.00  0.00    +0.000 A 
ATOM     15  C   UNL     1       3.989   7.489  17.360  0.00  0.00    +0.000 A 
ATOM     16  C   UNL     1       4.866   6.555  16.810  0.00  0.00    +0.000 A 
ATOM     17  C   UNL     1       4.628   5.200  17.001  0.00  0.00    +0.000 A 
ATOM     18  F   UNL     1       5.471   4.302  16.477  0.00  0.00    +0.000 F 
ATOM     19  C   UNL     1       3.526   4.760  17.727  0.00  0.00    +0.000 A 
ATOM     20  C   UNL     1       2.643   5.690  18.280  0.00  0.00    +0.000 A 
ENDBRANCH  11  14
ENDBRANCH   1  13
BRANCH   5  21
ATOM     21  C   UNL     1      -2.040  12.038  18.436  0.00  0.00    +0.000 A 
ATOM     22  C   UNL     1      -2.885  12.381  19.498  0.00  0.00    +0.000 A 
ATOM     23  C   UNL     1      -4.273  12.217  19.404  0.00  0.00    +0.000 A 
ATOM     24  C   UNL     1      -4.849  11.683  18.249  0.00  0.00    +0.000 A 
ATOM     25  C   UNL     1      -6.331  11.488  18.134  0.00  0.00    +0.000 C 
ATOM     26  C   UNL     1      -4.012  11.309  17.194  0.00  0.00    +0.000 A 
ATOM     27  C   UNL     1      -2.628  11.488  17.286  0.00  0.00    +0.000 A 
ENDBRANCH   5  21
BRANCH   3  28
ATOM     28  C   UNL     1       2.198  14.342  18.453  0.00  0.00    +0.000 A 
ATOM     29  C   UNL     1       3.565  14.151  18.204  0.00  0.00    +0.000 A 
ATOM     30  C   UNL     1       4.431  15.246  18.157  0.00  0.00    +0.000 A 
ATOM     31  C   UNL     1       3.942  16.533  18.368  0.00  0.00    +0.000 A 
ATOM     32  C   UNL     1       2.585  16.731  18.621  0.00  0.00    +0.000 A 
ATOM     33  C   UNL     1       1.712  15.641  18.659  0.00  0.00    +0.000 A 
ENDBRANCH   3  28
TORSDOF 4
ENDMDL
MODEL 3
REMARK VINA RESULT:      -8.8      0.101      1.190
REMARK  Name = 
REMARK  6 active torsions:
REMARK  status: ('A' for Active; 'I' for Inactive)
REMARK    1  A    between atoms: C_1  and  C_2
REMARK    2  A    between atoms: C_6  and  C_7
REMARK    3  A    between atoms: C_15  and  C_16
REMARK    4  A    between atoms: N_18  and  C_19
REMARK    5  A    between atoms: C_26  and  C_27
REMARK    6  A    between atoms: C_30  and  C_31
REMARK                            x       y       z     vdW  Elec       q    Type
REMARK                         _______ _______ _______ _____ _____    ______ ____
ROOT
ATOM      1  C   UNL     1       0.385  11.148  18.672  0.00  0.00    +0.000 A 
ATOM      2  C   UNL     1       1.541  11.904  18.655  0.00  0.00    +0.000 A 
ATOM      3  N   UNL     1       1.185  13.218  18.505  0.00  0.00    +0.000 N 
ATOM      4  N   UNL     1      -0.150  13.345  18.349  0.00  0.00    +0.000 NA
ATOM      5  C   UNL     1      -0.657  12.103  18.445  0.00  0.00    +0.000 A 
ENDROOT
BRANCH   1  13
ATOM      6  C   UNL     1       1.348   8.962  22.532  0.00  0.00    +0.000 C 
ATOM      7  C   UNL     1       0.534   9.563  21.407  0.00  0.00    +0.000 C 
ATOM      8  O   UNL     1      -0.445  10.271  21.643  0.00  0.00    +0.000 OA
ATOM      9  N   UNL     1       0.959   9.242  20.129  0.00  0.00    +0.000 N 
ATOM     10  N   UNL     1       1.926   8.292  19.934  0.00  0.00    +0.000 NA
ATOM     11  C   UNL     1       1.996   8.075  18.659  0.00  0.00    +0.000 C 
ATOM     12  C   UNL     1       1.064   8.894  17.815  0.00  0.00    +0.000 C 
ATOM     13  C   UNL     1       0.294   9.664  18.885  0.00  0.00    +0.000 C 
BRANCH  11  14
ATOM     14  C   UNL     1       2.916   7.078  18.070  0.00  0.00    +0.000 A 
ATOM     15  C   UNL     1       2.624   5.715  18.237  0.00  0.00    +0.000 A 
ATOM     16  C   UNL     1       3.457   4.747  17.676  0.00  0.00    +0.000 A 
ATOM     17  C   UNL     1       4.574   5.145  16.954  0.00  0.00    +0.000 A 
ATOM     18  F   UNL     1       5.373   4.217  16.412  0.00  0.00    +0.000 F 
ATOM     19  C   UNL     1       4.878   6.491  16.784  0.00  0.00    +0.000 A 
ATOM     20  C   UNL     1       4.048   7.466  17.344  0.00  0.00    +0.000 A 
ENDBRANCH  11  14
ENDBRANCH   1  13
BRANCH   5  21
ATOM     21  C   UNL     1      -2.116  11.917  18.314  0.00  0.00    +0.000 A 
ATOM     22  C   UNL     1      -2.710  11.435  17.142  0.00  0.00    +0.000 A 
ATOM     23  C   UNL     1      -4.100  11.288  17.039  0.00  0.00    +0.000 A 
ATOM     24  C   UNL     1      -4.932  11.641  18.104  0.00  0.00    +0.000 A 
ATOM     25  C   UNL     1      -6.422  11.503  18.011  0.00  0.00    +0.000 C 
ATOM     26  C   UNL     1      -4.350  12.151  19.269  0.00  0.00    +0.000 A 
ATOM     27  C   UNL     1      -2.962  12.284  19.372  0.00  0.00    +0.000 A 
ENDBRANCH   5  21
BRANCH   3  28
ATOM     28  C   UNL     1       2.046  14.350  18.488  0.00  0.00    +0.000 A 
ATOM     29  C   UNL     1       3.412  14.210  18.204  0.00  0.00    +0.000 A 
ATOM     30  C   UNL     1       4.246  15.331  18.189  0.00  0.00    +0.000 A 
ATOM     31  C   UNL     1       3.725  16.593  18.467  0.00  0.00    +0.000 A 
ATOM     32  C   UNL     1       2.369  16.739  18.756  0.00  0.00    +0.000 A 
ATOM     33  C   UNL     1       1.528  15.624  18.763  0.00  0.00    +0.000 A 
ENDBRANCH   3  28
TORSDOF 4
ENDMDL
MODEL 4
REMARK VINA RESULT:      -8.7      0.401      1.260
REMARK  Name = 
REMARK  6 active torsions:
REMARK  status: ('A' for Active; 'I' for Inactive)
REMARK    1  A    between atoms: C_1  and  C_2
REMARK    2  A    between atoms: C_6  and  C_7
REMARK    3  A    between atoms: C_15  and  C_16
REMARK    4  A    between atoms: N_18  and  C_19
REMARK    5  A    between atoms: C_26  and  C_27
REMARK    6  A    between atoms: C_30  and  C_31
REMARK                            x       y       z     vdW  Elec       q    Type
REMARK                         _______ _______ _______ _____ _____    ______ ____
ROOT
ATOM      1  C   UNL     1       0.457  11.262  18.776  0.00  0.00    +0.000 A 
ATOM      2  C   UNL     1       1.640  11.951  18.599  0.00  0.00    +0.000 A 
ATOM      3  N   UNL     1       1.348  13.289  18.559  0.00  0.00    +0.000 N 
ATOM      4  N   UNL     1       0.017  13.498  18.629  0.00  0.00    +0.000 NA
ATOM      5  C   UNL     1      -0.546  12.284  18.760  0.00  0.00    +0.000 A 
ENDROOT
BRANCH   1  13
ATOM      6  C   UNL     1       1.289   8.931  22.582  0.00  0.00    +0.000 C 
ATOM      7  C   UNL     1       0.512   9.594  21.466  0.00  0.00    +0.000 C 
ATOM      8  O   UNL     1      -0.443  10.332  21.710  0.00  0.00    +0.000 OA
ATOM      9  N   UNL     1       0.940   9.294  20.184  0.00  0.00    +0.000 N 
ATOM     10  N   UNL     1       1.873   8.314  19.972  0.00  0.00    +0.000 NA
ATOM     11  C   UNL     1       1.951   8.132  18.692  0.00  0.00    +0.000 C 
ATOM     12  C   UNL     1       1.061   9.009  17.861  0.00  0.00    +0.000 C 
ATOM     13  C   UNL     1       0.308   9.777  18.945  0.00  0.00    +0.000 C 
BRANCH  11  14
ATOM     14  C   UNL     1       2.840   7.118  18.085  0.00  0.00    +0.000 A 
ATOM     15  C   UNL     1       3.966   7.556  17.369  0.00  0.00    +0.000 A 
ATOM     16  C   UNL     1       4.839   6.628  16.802  0.00  0.00    +0.000 A 
ATOM     17  C   UNL     1       4.584   5.271  16.953  0.00  0.00    +0.000 A 
ATOM     18  F   UNL     1       5.423   4.379  16.412  0.00  0.00    +0.000 F 
ATOM     19  C   UNL     1       3.470   4.823  17.655  0.00  0.00    +0.000 A 
ATOM     20  C   UNL     1       2.591   5.747  18.225  0.00  0.00    +0.000 A 
ENDBRANCH  11  14
ENDBRANCH   1  13
BRANCH   5  21
ATOM     21  C   UNL     1      -2.015  12.187  18.863  0.00  0.00    +0.000 A 
ATOM     22  C   UNL     1      -2.804  11.624  17.854  0.00  0.00    +0.000 A 
ATOM     23  C   UNL     1      -4.200  11.564  17.971  0.00  0.00    +0.000 A 
ATOM     24  C   UNL     1      -4.841  12.087  19.096  0.00  0.00    +0.000 A 
ATOM     25  C   UNL     1      -6.334  12.044  19.235  0.00  0.00    +0.000 C 
ATOM     26  C   UNL     1      -4.065  12.679  20.096  0.00  0.00    +0.000 A 
ATOM     27  C   UNL     1      -2.671  12.724  19.982  0.00  0.00    +0.000 A 
ENDBRANCH   5  21
BRANCH   3  28
ATOM     28  C   UNL     1       2.266  14.370  18.444  0.00  0.00    +0.000 A 
ATOM     29  C   UNL     1       1.840  15.696  18.608  0.00  0.00    +0.000 A 
ATOM     30  C   UNL     1       2.753  16.747  18.494  0.00  0.00    +0.000 A 
ATOM     31  C   UNL     1       4.090  16.483  18.206  0.00  0.00    +0.000 A 
ATOM     32  C   UNL     1       4.520  15.168  18.036  0.00  0.00    +0.000 A 
ATOM     33  C   UNL     1       3.614  14.111  18.159  0.00  0.00    +0.000 A 
ENDBRANCH   3  28
TORSDOF 4
ENDMDL
MODEL 5
REMARK VINA RESULT:      -8.4      0.852      1.661
REMARK  Name = 
REMARK  6 active torsions:
REMARK  status: ('A' for Active; 'I' for Inactive)
REMARK    1  A    between atoms: C_1  and  C_2
REMARK    2  A    between atoms: C_6  and  C_7
REMARK    3  A    between atoms: C_15  and  C_16
REMARK    4  A    between atoms: N_18  and  C_19
REMARK    5  A    between atoms: C_26  and  C_27
REMARK    6  A    between atoms: C_30  and  C_31
REMARK                            x       y       z     vdW  Elec       q    Type
REMARK                         _______ _______ _______ _____ _____    ______ ____
ROOT
ATOM      1  C   UNL     1       0.016  11.409  19.045  0.00  0.00    +0.000 A 
ATOM      2  C   UNL     1       1.176  12.129  18.830  0.00  0.00    +0.000 A 
ATOM      3  N   UNL     1       0.837  13.450  18.706  0.00  0.00    +0.000 N 
ATOM      4  N   UNL     1      -0.502  13.615  18.757  0.00  0.00    +0.000 NA
ATOM      5  C   UNL     1      -1.022  12.392  18.962  0.00  0.00    +0.000 A 
ENDROOT
BRANCH   1  13
ATOM      6  C   UNL     1       0.601   9.383  23.065  0.00  0.00    +0.000 C 
ATOM      7  C   UNL     1      -0.100   9.930  21.840  0.00  0.00    +0.000 C 
ATOM      8  O   UNL     1      -1.105  10.632  21.947  0.00  0.00    +0.000 OA
ATOM      9  N   UNL     1       0.457   9.567  20.625  0.00  0.00    +0.000 N 
ATOM     10  N   UNL     1       1.448   8.624  20.567  0.00  0.00    +0.000 NA
ATOM     11  C   UNL     1       1.651   8.361  19.315  0.00  0.00    +0.000 C 
ATOM     12  C   UNL     1       0.802   9.135  18.349  0.00  0.00    +0.000 C 
ATOM     13  C   UNL     1      -0.081   9.934  19.305  0.00  0.00    +0.000 C 
BRANCH  11  14
ATOM     14  C   UNL     1       2.636   7.356  18.862  0.00  0.00    +0.000 A 
ATOM     15  C   UNL     1       3.341   7.596  17.671  0.00  0.00    +0.000 A 
ATOM     16  C   UNL     1       4.294   6.681  17.225  0.00  0.00    +0.000 A 
ATOM     17  C   UNL     1       4.538   5.534  17.969  0.00  0.00    +0.000 A 
ATOM     18  F   UNL     1       5.455   4.656  17.544  0.00  0.00    +0.000 F 
ATOM     19  C   UNL     1       3.845   5.281  19.148  0.00  0.00    +0.000 A 
ATOM     20  C   UNL     1       2.889   6.193  19.600  0.00  0.00    +0.000 A 
ENDBRANCH  11  14
ENDBRANCH   1  13
BRANCH   5  21
ATOM     21  C   UNL     1      -2.488  12.248  19.064  0.00  0.00    +0.000 A 
ATOM     22  C   UNL     1      -3.252  11.614  18.079  0.00  0.00    +0.000 A 
ATOM     23  C   UNL     1      -4.645  11.511  18.194  0.00  0.00    +0.000 A 
ATOM     24  C   UNL     1      -5.310  12.061  19.293  0.00  0.00    +0.000 A 
ATOM     25  C   UNL     1      -6.800  11.972  19.429  0.00  0.00    +0.000 C 
ATOM     26  C   UNL     1      -4.558  12.723  20.268  0.00  0.00    +0.000 A 
ATOM     27  C   UNL     1      -3.167  12.812  20.156  0.00  0.00    +0.000 A 
ENDBRANCH   5  21
BRANCH   3  28
ATOM     28  C   UNL     1       1.715  14.554  18.528  0.00  0.00    +0.000 A 
ATOM     29  C   UNL     1       2.997  14.374  17.987  0.00  0.00    +0.000 A 
ATOM     30  C   UNL     1       3.848  15.468  17.817  0.00  0.00    +0.000 A 
ATOM     31  C   UNL     1       3.432  16.743  18.193  0.00  0.00    +0.000 A 
ATOM     32  C   UNL     1       2.161  16.930  18.736  0.00  0.00    +0.000 A 
ATOM     33  C   UNL     1       1.301  15.841  18.900  0.00  0.00    +0.000 A 
ENDBRANCH   3  28
TORSDOF 4
ENDMDL
MODEL 6
REMARK VINA RESULT:      -8.3      0.769      1.101
REMARK  Name = 
REMARK  6 active torsions:
REMARK  status: ('A' for Active; 'I' for Inactive)
REMARK    1  A    between atoms: C_1  and  C_2
REMARK    2  A    between atoms: C_6  and  C_7
REMARK    3  A    between atoms: C_15  and  C_16
REMARK    4  A    between atoms: N_18  and  C_19
REMARK    5  A    between atoms: C_26  and  C_27
REMARK    6  A    between atoms: C_30  and  C_31
REMARK                            x       y       z     vdW  Elec       q    Type
REMARK                         _______ _______ _______ _____ _____    ______ ____
ROOT
ATOM      1  C   UNL     1       0.062  11.395  19.023  0.00  0.00    +0.000 A 
ATOM      2  C   UNL     1       1.225  12.125  18.874  0.00  0.00    +0.000 A 
ATOM      3  N   UNL     1       0.882  13.447  18.755  0.00  0.00    +0.000 N 
ATOM      4  N   UNL     1      -0.458  13.602  18.747  0.00  0.00    +0.000 NA
ATOM      5  C   UNL     1      -0.978  12.372  18.907  0.00  0.00    +0.000 A 
ENDROOT
BRANCH   1  13
ATOM      6  C   UNL     1       0.591   9.296  23.014  0.00  0.00    +0.000 C 
ATOM      7  C   UNL     1      -0.093   9.865  21.789  0.00  0.00    +0.000 C 
ATOM      8  O   UNL     1      -1.100  10.564  21.894  0.00  0.00    +0.000 OA
ATOM      9  N   UNL     1       0.482   9.525  20.576  0.00  0.00    +0.000 N 
ATOM     10  N   UNL     1       1.476   8.584  20.515  0.00  0.00    +0.000 NA
ATOM     11  C   UNL     1       1.697   8.345  19.262  0.00  0.00    +0.000 C 
ATOM     12  C   UNL     1       0.862   9.134  18.297  0.00  0.00    +0.000 C 
ATOM     13  C   UNL     1      -0.037   9.915  19.255  0.00  0.00    +0.000 C 
BRANCH  11  14
ATOM     14  C   UNL     1       2.691   7.349  18.805  0.00  0.00    +0.000 A 
ATOM     15  C   UNL     1       3.449   7.635  17.658  0.00  0.00    +0.000 A 
ATOM     16  C   UNL     1       4.410   6.730  17.211  0.00  0.00    +0.000 A 
ATOM     17  C   UNL     1       4.611   5.547  17.910  0.00  0.00    +0.000 A 
ATOM     18  F   UNL     1       5.536   4.678  17.484  0.00  0.00    +0.000 F 
ATOM     19  C   UNL     1       3.864   5.248  19.045  0.00  0.00    +0.000 A 
ATOM     20  C   UNL     1       2.899   6.151  19.498  0.00  0.00    +0.000 A 
ENDBRANCH  11  14
ENDBRANCH   1  13
BRANCH   5  21
ATOM     21  C   UNL     1      -2.446  12.218  18.939  0.00  0.00    +0.000 A 
ATOM     22  C   UNL     1      -3.224  12.640  20.023  0.00  0.00    +0.000 A 
ATOM     23  C   UNL     1      -4.614  12.461  20.034  0.00  0.00    +0.000 A 
ATOM     24  C   UNL     1      -5.257  11.834  18.964  0.00  0.00    +0.000 A 
ATOM     25  C   UNL     1      -6.742  11.623  18.961  0.00  0.00    +0.000 C 
ATOM     26  C   UNL     1      -4.486  11.382  17.889  0.00  0.00    +0.000 A 
ATOM     27  C   UNL     1      -3.101  11.574  17.877  0.00  0.00    +0.000 A 
ENDBRANCH   5  21
BRANCH   3  28
ATOM     28  C   UNL     1       1.761  14.559  18.636  0.00  0.00    +0.000 A 
ATOM     29  C   UNL     1       1.429  15.801  19.196  0.00  0.00    +0.000 A 
ATOM     30  C   UNL     1       2.303  16.884  19.072  0.00  0.00    +0.000 A 
ATOM     31  C   UNL     1       3.504  16.737  18.383  0.00  0.00    +0.000 A 
ATOM     32  C   UNL     1       3.839  15.506  17.820  0.00  0.00    +0.000 A 
ATOM     33  C   UNL     1       2.975  14.417  17.948  0.00  0.00    +0.000 A 
ENDBRANCH   3  28
TORSDOF 4
ENDMDL
MODEL 7
REMARK VINA RESULT:      -8.3      0.800      1.160
REMARK  Name = 
REMARK  6 active torsions:
REMARK  status: ('A' for Active; 'I' for Inactive)
REMARK    1  A    between atoms: C_1  and  C_2
REMARK    2  A    between atoms: C_6  and  C_7
REMARK    3  A    between atoms: C_15  and  C_16
REMARK    4  A    between atoms: N_18  and  C_19
REMARK    5  A    between atoms: C_26  and  C_27
REMARK    6  A    between atoms: C_30  and  C_31
REMARK                            x       y       z     vdW  Elec       q    Type
REMARK                         _______ _______ _______ _____ _____    ______ ____
ROOT
ATOM      1  C   UNL     1       0.033  11.335  18.988  0.00  0.00    +0.000 A 
ATOM      2  C   UNL     1       1.188  12.071  18.812  0.00  0.00    +0.000 A 
ATOM      3  N   UNL     1       0.833  13.387  18.666  0.00  0.00    +0.000 N 
ATOM      4  N   UNL     1      -0.509  13.531  18.665  0.00  0.00    +0.000 NA
ATOM      5  C   UNL     1      -1.016  12.301  18.858  0.00  0.00    +0.000 A 
ENDROOT
BRANCH   1  13
ATOM      6  C   UNL     1       0.604   9.335  23.023  0.00  0.00    +0.000 C 
ATOM      7  C   UNL     1      -0.092   9.868  21.790  0.00  0.00    +0.000 C 
ATOM      8  O   UNL     1      -1.105  10.561  21.884  0.00  0.00    +0.000 OA
ATOM      9  N   UNL     1       0.479   9.505  20.582  0.00  0.00    +0.000 N 
ATOM     10  N   UNL     1       1.480   8.573  20.536  0.00  0.00    +0.000 NA
ATOM     11  C   UNL     1       1.696   8.305  19.287  0.00  0.00    +0.000 C 
ATOM     12  C   UNL     1       0.848   9.065  18.310  0.00  0.00    +0.000 C 
ATOM     13  C   UNL     1      -0.052   9.860  19.255  0.00  0.00    +0.000 C 
BRANCH  11  14
ATOM     14  C   UNL     1       2.696   7.308  18.848  0.00  0.00    +0.000 A 
ATOM     15  C   UNL     1       2.912   6.177  19.650  0.00  0.00    +0.000 A 
ATOM     16  C   UNL     1       3.831   5.204  19.255  0.00  0.00    +0.000 A 
ATOM     17  C   UNL     1       4.527   5.367  18.064  0.00  0.00    +0.000 A 
ATOM     18  F   UNL     1       5.407   4.433  17.682  0.00  0.00    +0.000 F 
ATOM     19  C   UNL     1       4.326   6.485  17.262  0.00  0.00    +0.000 A 
ATOM     20  C   UNL     1       3.407   7.463  17.652  0.00  0.00    +0.000 A 
ENDBRANCH  11  14
ENDBRANCH   1  13
BRANCH   5  21
ATOM     21  C   UNL     1      -2.483  12.135  18.906  0.00  0.00    +0.000 A 
ATOM     22  C   UNL     1      -3.195  11.448  17.916  0.00  0.00    +0.000 A 
ATOM     23  C   UNL     1      -4.589  11.324  17.978  0.00  0.00    +0.000 A 
ATOM     24  C   UNL     1      -5.308  11.906  19.025  0.00  0.00    +0.000 A 
ATOM     25  C   UNL     1      -6.802  11.795  19.103  0.00  0.00    +0.000 C 
ATOM     26  C   UNL     1      -4.610  12.619  20.003  0.00  0.00    +0.000 A 
ATOM     27  C   UNL     1      -3.217  12.729  19.945  0.00  0.00    +0.000 A 
ENDBRANCH   5  21
BRANCH   3  28
ATOM     28  C   UNL     1       1.701  14.503  18.514  0.00  0.00    +0.000 A 
ATOM     29  C   UNL     1       1.219  15.813  18.645  0.00  0.00    +0.000 A 
ATOM     30  C   UNL     1       2.084  16.899  18.494  0.00  0.00    +0.000 A 
ATOM     31  C   UNL     1       3.429  16.686  18.203  0.00  0.00    +0.000 A 
ATOM     32  C   UNL     1       3.915  15.387  18.066  0.00  0.00    +0.000 A 
ATOM     33  C   UNL     1       3.058  14.296  18.225  0.00  0.00    +0.000 A 
ENDBRANCH   3  28
TORSDOF 4
ENDMDL
MODEL 8
REMARK VINA RESULT:      -8.1      5.021     10.012
REMARK  Name = 
REMARK  6 active torsions:
REMARK  status: ('A' for Active; 'I' for Inactive)
REMARK    1  A    between atoms: C_1  and  C_2
REMARK    2  A    between atoms: C_6  and  C_7
REMARK    3  A    between atoms: C_15  and  C_16
REMARK    4  A    between atoms: N_18  and  C_19
REMARK    5  A    between atoms: C_26  and  C_27
REMARK    6  A    between atoms: C_30  and  C_31
REMARK                            x       y       z     vdW  Elec       q    Type
REMARK                         _______ _______ _______ _____ _____    ______ ____
ROOT
ATOM      1  C   UNL     1       5.235   5.180  17.123  0.00  0.00    +0.000 A 
ATOM      2  C   UNL     1       4.898   4.419  16.020  0.00  0.00    +0.000 A 
ATOM      3  N   UNL     1       5.821   4.665  15.038  0.00  0.00    +0.000 N 
ATOM      4  N   UNL     1       6.704   5.609  15.427  0.00  0.00    +0.000 NA
ATOM      5  C   UNL     1       6.369   5.937  16.688  0.00  0.00    +0.000 A 
ENDROOT
BRANCH   1  13
ATOM      6  C   UNL     1       1.559   2.736  18.184  0.00  0.00    +0.000 C 
ATOM      7  C   UNL     1       3.005   3.180  18.146  0.00  0.00    +0.000 C 
ATOM      8  O   UNL     1       3.910   2.374  17.930  0.00  0.00    +0.000 OA
ATOM      9  N   UNL     1       3.220   4.526  18.387  0.00  0.00    +0.000 N 
ATOM     10  N   UNL     1       2.197   5.329  18.818  0.00  0.00    +0.000 NA
ATOM     11  C   UNL     1       2.715   6.475  19.125  0.00  0.00    +0.000 C 
ATOM     12  C   UNL     1       4.197   6.590  18.914  0.00  0.00    +0.000 C 
ATOM     13  C   UNL     1       4.540   5.175  18.454  0.00  0.00    +0.000 C 
BRANCH  11  14
ATOM     14  C   UNL     1       1.912   7.594  19.663  0.00  0.00    +0.000 A 
ATOM     15  C   UNL     1       1.659   8.699  18.834  0.00  0.00    +0.000 A 
ATOM     16  C   UNL     1       0.886   9.761  19.301  0.00  0.00    +0.000 A 
ATOM     17  C   UNL     1       0.371   9.716  20.590  0.00  0.00    +0.000 A 
ATOM     18  F   UNL     1      -0.374  10.734  21.039  0.00  0.00    +0.000 F 
ATOM     19  C   UNL     1       0.617   8.630  21.424  0.00  0.00    +0.000 A 
ATOM     20  C   UNL     1       1.391   7.562  20.963  0.00  0.00    +0.000 A 
ENDBRANCH  11  14
ENDBRANCH   1  13
BRANCH   5  21
ATOM     21  C   UNL     1       7.165   6.962  17.393  0.00  0.00    +0.000 A 
ATOM     22  C   UNL     1       7.958   6.663  18.507  0.00  0.00    +0.000 A 
ATOM     23  C   UNL     1       8.687   7.661  19.168  0.00  0.00    +0.000 A 
ATOM     24  C   UNL     1       8.621   8.989  18.742  0.00  0.00    +0.000 A 
ATOM     25  C   UNL     1       9.384  10.073  19.443  0.00  0.00    +0.000 C 
ATOM     26  C   UNL     1       7.809   9.303  17.648  0.00  0.00    +0.000 A 
ATOM     27  C   UNL     1       7.094   8.302  16.982  0.00  0.00    +0.000 A 
ENDBRANCH   5  21
BRANCH   3  28
ATOM     28  C   UNL     1       5.896   4.062  13.752  0.00  0.00    +0.000 A 
ATOM     29  C   UNL     1       4.749   3.548  13.130  0.00  0.00    +0.000 A 
ATOM     30  C   UNL     1       4.838   2.960  11.866  0.00  0.00    +0.000 A 
ATOM     31  C   UNL     1       6.070   2.872  11.222  0.00  0.00    +0.000 A 
ATOM     32  C   UNL     1       7.216   3.376  11.836  0.00  0.00    +0.000 A 
ATOM     33  C   UNL     1       7.133   3.974  13.095  0.00  0.00    +0.000 A 
ENDBRANCH   3  28
TORSDOF 4
ENDMDL
MODEL 9
REMARK VINA RESULT:      -7.8      3.910      7.808
REMARK  Name = 
REMARK  6 active torsions:
REMARK  status: ('A' for Active; 'I' for Inactive)
REMARK    1  A    between atoms: C_1  and  C_2
REMARK    2  A    between atoms: C_6  and  C_7
REMARK    3  A    between atoms: C_15  and  C_16
REMARK    4  A    between atoms: N_18  and  C_19
REMARK    5  A    between atoms: C_26  and  C_27
REMARK    6  A    between atoms: C_30  and  C_31
REMARK                            x       y       z     vdW  Elec       q    Type
REMARK                         _______ _______ _______ _____ _____    ______ ____
ROOT
ATOM      1  C   UNL     1      -0.296  12.032  19.515  0.00  0.00    +0.000 A 
ATOM      2  C   UNL     1      -0.041  13.375  19.319  0.00  0.00    +0.000 A 
ATOM      3  N   UNL     1       1.233  13.496  18.829  0.00  0.00    +0.000 N 
ATOM      4  N   UNL     1       1.846  12.295  18.767  0.00  0.00    +0.000 NA
ATOM      5  C   UNL     1       0.939  11.391  19.178  0.00  0.00    +0.000 A 
ENDROOT
BRANCH   1  13
ATOM      6  C   UNL     1      -4.010  11.466  16.965  0.00  0.00    +0.000 C 
ATOM      7  C   UNL     1      -2.758  11.125  17.745  0.00  0.00    +0.000 C 
ATOM      8  O   UNL     1      -1.890  10.399  17.262  0.00  0.00    +0.000 OA
ATOM      9  N   UNL     1      -2.685  11.666  19.017  0.00  0.00    +0.000 N 
ATOM     10  N   UNL     1      -3.768  12.296  19.571  0.00  0.00    +0.000 NA
ATOM     11  C   UNL     1      -3.475  12.541  20.808  0.00  0.00    +0.000 C 
ATOM     12  C   UNL     1      -2.107  12.106  21.245  0.00  0.00    +0.000 C 
ATOM     13  C   UNL     1      -1.592  11.430  19.976  0.00  0.00    +0.000 C 
BRANCH  11  14
ATOM     14  C   UNL     1      -4.425  13.189  21.738  0.00  0.00    +0.000 A 
ATOM     15  C   UNL     1      -5.802  13.029  21.510  0.00  0.00    +0.000 A 
ATOM     16  C   UNL     1      -6.726  13.607  22.379  0.00  0.00    +0.000 A 
ATOM     17  C   UNL     1      -6.273  14.340  23.468  0.00  0.00    +0.000 A 
ATOM     18  F   UNL     1      -7.160  14.893  24.305  0.00  0.00    +0.000 F 
ATOM     19  C   UNL     1      -4.913  14.511  23.703  0.00  0.00    +0.000 A 
ATOM     20  C   UNL     1      -3.981  13.935  22.836  0.00  0.00    +0.000 A 
ENDBRANCH  11  14
ENDBRANCH   1  13
BRANCH   5  21
ATOM     21  C   UNL     1       1.322   9.966  19.220  0.00  0.00    +0.000 A 
ATOM     22  C   UNL     1       1.224   9.194  20.384  0.00  0.00    +0.000 A 
ATOM     23  C   UNL     1       1.615   7.849  20.398  0.00  0.00    +0.000 A 
ATOM     24  C   UNL     1       2.134   7.247  19.250  0.00  0.00    +0.000 A 
ATOM     25  C   UNL     1       2.569   5.812  19.247  0.00  0.00    +0.000 C 
ATOM     26  C   UNL     1       2.263   8.017  18.090  0.00  0.00    +0.000 A 
ATOM     27  C   UNL     1       1.860   9.356  18.076  0.00  0.00    +0.000 A 
ENDBRANCH   5  21
BRANCH   3  28
ATOM     28  C   UNL     1       1.896  14.690  18.433  0.00  0.00    +0.000 A 
ATOM     29  C   UNL     1       1.286  15.942  18.602  0.00  0.00    +0.000 A 
ATOM     30  C   UNL     1       1.951  17.106  18.211  0.00  0.00    +0.000 A 
ATOM     31  C   UNL     1       3.219  17.029  17.641  0.00  0.00    +0.000 A 
ATOM     32  C   UNL     1       3.830  15.788  17.464  0.00  0.00    +0.000 A 
ATOM     33  C   UNL     1       3.176  14.620  17.863  0.00  0.00    +0.000 A 
ENDBRANCH   3  28
TORSDOF 4
ENDMDL
