MODEL 1
REMARK VINA RESULT:      -7.7      0.000      0.000
REMARK  Name = 
REMARK  4 active torsions:
REMARK  status: ('A' for Active; 'I' for Inactive)
REMARK    1  A    between atoms: C_1  and  N_2
REMARK    2  A    between atoms: C_6  and  C_7
REMARK    3  A    between atoms: N_14  and  C_15
REMARK    4  A    between atoms: C_15  and  C_16
REMARK                            x       y       z     vdW  Elec       q    Type
REMARK                         _______ _______ _______ _____ _____    ______ ____
ROOT
ATOM      1  C   UNL     1       2.566   6.085  17.770  0.00  0.00    +0.000 C 
ATOM      2  C   UNL     1       2.261   6.885  18.811  0.00  0.00    +0.000 C 
ATOM      3  C   UNL     1       2.120   6.423  20.211  0.00  0.00    +0.000 C 
ATOM      4  O   UNL     1       2.542   5.361  20.655  0.00  0.00    +0.000 OA
ATOM      5  N   UNL     1       1.470   7.299  21.025  0.00  0.00    +0.000 N 
ATOM      6  C   UNL     1       1.079   8.573  20.737  0.00  0.00    +0.000 C 
ATOM      7  O   UNL     1       0.361   9.172  21.536  0.00  0.00    +0.000 OA
ATOM      8  N   UNL     1       1.504   9.094  19.534  0.00  0.00    +0.000 N 
ATOM      9  C   UNL     1       2.017   8.323  18.499  0.00  0.00    +0.000 C 
ATOM     10  O   UNL     1       2.234   8.770  17.374  0.00  0.00    +0.000 OA
ATOM     11  H   UNL     1       1.254   6.966  21.954  0.00  0.00    +0.000 HD
ENDROOT
BRANCH   1  17
ATOM     12  C   UNL     1       5.271   4.965  18.211  0.00  0.00    +0.000 C 
ATOM     13  N   UNL     1       4.061   4.190  18.040  0.00  0.00    +0.000 N 
ATOM     14  C   UNL     1       4.019   2.817  18.046  0.00  0.00    +0.000 A 
ATOM     15  C   UNL     1       2.710   2.428  17.885  0.00  0.00    +0.000 A 
ATOM     16  C   UNL     1       1.933   3.604  17.764  0.00  0.00    +0.000 A 
ATOM     17  C   UNL     1       2.786   4.688  17.862  0.00  0.00    +0.000 A 
ENDBRANCH   1  17
BRANCH   8  18
ATOM     18  C   UNL     1       1.180  10.489  19.249  0.00  0.00    +0.000 C 
BRANCH  18  19
ATOM     19  C   UNL     1      -0.280  10.737  18.927  0.00  0.00    +0.000 A 
ATOM     20  C   UNL     1      -1.010  11.721  19.612  0.00  0.00    +0.000 A 
ATOM     21  C   UNL     1      -2.313  12.045  19.220  0.00  0.00    +0.000 A 
ATOM     22  C   UNL     1      -2.908  11.379  18.149  0.00  0.00    +0.000 A 
ATOM     23  C   UNL     1      -2.211  10.371  17.488  0.00  0.00    +0.000 A 
ATOM     24  C   UNL     1      -0.910  10.043  17.878  0.00  0.00    +0.000 A 
ENDBRANCH  18  19
ENDBRANCH   8  18
TORSDOF 3
ENDMDL
MODEL 2
REMARK VINA RESULT:      -7.7      0.187      1.021
REMARK  Name = 
REMARK  4 active torsions:
REMARK  status: ('A' for Active; 'I' for Inactive)
REMARK    1  A    between atoms: C_1  and  N_2
REMARK    2  A    between atoms: C_6  and  C_7
REMARK    3  A    between atoms: N_14  and  C_15
REMARK    4  A    between atoms: C_15  and  C_16
REMARK                            x       y       z     vdW  Elec       q    Type
REMARK                         _______ _______ _______ _____ _____    ______ ____
ROOT
ATOM      1  C   UNL     1       2.586   6.237  17.825  0.00  0.00    +0.000 C 
ATOM      2  C   UNL     1       2.240   7.020  18.866  0.00  0.00    +0.000 C 
ATOM      3  C   UNL     1       2.067   6.541  20.256  0.00  0.00    +0.000 C 
ATOM      4  O   UNL     1       2.494   5.481  20.701  0.00  0.00    +0.000 OA
ATOM      5  N   UNL     1       1.382   7.398  21.061  0.00  0.00    +0.000 N 
ATOM      6  C   UNL     1       0.979   8.669  20.776  0.00  0.00    +0.000 C 
ATOM      7  O   UNL     1       0.229   9.248  21.560  0.00  0.00    +0.000 OA
ATOM      8  N   UNL     1       1.429   9.210  19.590  0.00  0.00    +0.000 N 
ATOM      9  C   UNL     1       1.981   8.458  18.562  0.00  0.00    +0.000 C 
ATOM     10  O   UNL     1       2.222   8.921  17.448  0.00  0.00    +0.000 OA
ATOM     11  H   UNL     1       1.145   7.051  21.980  0.00  0.00    +0.000 HD
ENDROOT
BRANCH   1  17
ATOM     12  C   UNL     1       5.291   5.155  18.352  0.00  0.00    +0.000 C 
ATOM     13  N   UNL     1       4.101   4.363  18.127  0.00  0.00    +0.000 N 
ATOM     14  C   UNL     1       4.082   2.989  18.115  0.00  0.00    +0.000 A 
ATOM     15  C   UNL     1       2.786   2.581  17.901  0.00  0.00    +0.000 A 
ATOM     16  C   UNL     1       1.995   3.747  17.766  0.00  0.00    +0.000 A 
ATOM     17  C   UNL     1       2.826   4.843  17.909  0.00  0.00    +0.000 A 
ENDBRANCH   1  17
BRANCH   8  18
ATOM     18  C   UNL     1       1.090  10.602  19.312  0.00  0.00    +0.000 C 
BRANCH  18  19
ATOM     19  C   UNL     1      -0.335  10.817  18.843  0.00  0.00    +0.000 A 
ATOM     20  C   UNL     1      -0.892  10.007  17.842  0.00  0.00    +0.000 A 
ATOM     21  C   UNL     1      -2.246  10.114  17.509  0.00  0.00    +0.000 A 
ATOM     22  C   UNL     1      -3.057  11.042  18.162  0.00  0.00    +0.000 A 
ATOM     23  C   UNL     1      -2.507  11.882  19.127  0.00  0.00    +0.000 A 
ATOM     24  C   UNL     1      -1.154  11.779  19.460  0.00  0.00    +0.000 A 
ENDBRANCH  18  19
ENDBRANCH   8  18
TORSDOF 3
ENDMDL
MODEL 3
REMARK VINA RESULT:      -7.7      4.644      7.490
REMARK  Name = 
REMARK  4 active torsions:
REMARK  status: ('A' for Active; 'I' for Inactive)
REMARK    1  A    between atoms: C_1  and  N_2
REMARK    2  A    between atoms: C_6  and  C_7
REMARK    3  A    between atoms: N_14  and  C_15
REMARK    4  A    between atoms: C_15  and  C_16
REMARK                            x       y       z     vdW  Elec       q    Type
REMARK                         _______ _______ _______ _____ _____    ______ ____
ROOT
ATOM      1  C   UNL     1       4.328   3.620  19.311  0.00  0.00    +0.000 C 
ATOM      2  C   UNL     1       4.547   4.681  18.509  0.00  0.00    +0.000 C 
ATOM      3  C   UNL     1       3.576   5.777  18.282  0.00  0.00    +0.000 C 
ATOM      4  O   UNL     1       2.609   6.027  18.992  0.00  0.00    +0.000 OA
ATOM      5  N   UNL     1       3.842   6.540  17.187  0.00  0.00    +0.000 N 
ATOM      6  C   UNL     1       4.946   6.498  16.389  0.00  0.00    +0.000 C 
ATOM      7  O   UNL     1       4.953   7.149  15.345  0.00  0.00    +0.000 OA
ATOM      8  N   UNL     1       5.982   5.690  16.806  0.00  0.00    +0.000 N 
ATOM      9  C   UNL     1       5.849   4.711  17.781  0.00  0.00    +0.000 C 
ATOM     10  O   UNL     1       6.727   3.885  18.026  0.00  0.00    +0.000 OA
ATOM     11  H   UNL     1       3.137   7.219  16.938  0.00  0.00    +0.000 HD
ENDROOT
BRANCH   1  17
ATOM     12  C   UNL     1       1.996   2.248  18.109  0.00  0.00    +0.000 C 
ATOM     13  N   UNL     1       2.054   2.779  19.455  0.00  0.00    +0.000 N 
ATOM     14  C   UNL     1       1.013   2.724  20.349  0.00  0.00    +0.000 A 
ATOM     15  C   UNL     1       1.432   3.296  21.528  0.00  0.00    +0.000 A 
ATOM     16  C   UNL     1       2.767   3.724  21.337  0.00  0.00    +0.000 A 
ATOM     17  C   UNL     1       3.138   3.396  20.046  0.00  0.00    +0.000 A 
ENDBRANCH   1  17
BRANCH   8  18
ATOM     18  C   UNL     1       7.211   5.706  16.018  0.00  0.00    +0.000 C 
BRANCH  18  19
ATOM     19  C   UNL     1       7.103   5.008  14.677  0.00  0.00    +0.000 A 
ATOM     20  C   UNL     1       6.206   3.946  14.490  0.00  0.00    +0.000 A 
ATOM     21  C   UNL     1       6.006   3.396  13.219  0.00  0.00    +0.000 A 
ATOM     22  C   UNL     1       6.712   3.891  12.123  0.00  0.00    +0.000 A 
ATOM     23  C   UNL     1       7.637   4.916  12.302  0.00  0.00    +0.000 A 
ATOM     24  C   UNL     1       7.841   5.466  13.571  0.00  0.00    +0.000 A 
ENDBRANCH  18  19
ENDBRANCH   8  18
TORSDOF 3
ENDMDL
MODEL 4
REMARK VINA RESULT:      -7.6      4.265      7.862
REMARK  Name = 
REMARK  4 active torsions:
REMARK  status: ('A' for Active; 'I' for Inactive)
REMARK    1  A    between atoms: C_1  and  N_2
REMARK    2  A    between atoms: C_6  and  C_7
REMARK    3  A    between atoms: N_14  and  C_15
REMARK    4  A    between atoms: C_15  and  C_16
REMARK                            x       y       z     vdW  Elec       q    Type
REMARK                         _______ _______ _______ _____ _____    ______ ____
ROOT
ATOM      1  C   UNL     1       3.376   5.890  18.000  0.00  0.00    +0.000 C 
ATOM      2  C   UNL     1       4.541   5.253  17.770  0.00  0.00    +0.000 C 
ATOM      3  C   UNL     1       5.116   4.210  18.651  0.00  0.00    +0.000 C 
ATOM      4  O   UNL     1       4.500   3.585  19.506  0.00  0.00    +0.000 OA
ATOM      5  N   UNL     1       6.436   3.963  18.435  0.00  0.00    +0.000 N 
ATOM      6  C   UNL     1       7.224   4.449  17.433  0.00  0.00    +0.000 C 
ATOM      7  O   UNL     1       8.437   4.251  17.478  0.00  0.00    +0.000 OA
ATOM      8  N   UNL     1       6.591   5.165  16.440  0.00  0.00    +0.000 N 
ATOM      9  C   UNL     1       5.304   5.672  16.558  0.00  0.00    +0.000 C 
ATOM     10  O   UNL     1       4.812   6.450  15.741  0.00  0.00    +0.000 OA
ATOM     11  H   UNL     1       6.886   3.344  19.095  0.00  0.00    +0.000 HD
ENDROOT
BRANCH   1  17
ATOM     12  C   UNL     1       1.441   3.650  18.059  0.00  0.00    +0.000 C 
ATOM     13  N   UNL     1       1.624   4.627  19.111  0.00  0.00    +0.000 N 
ATOM     14  C   UNL     1       0.901   4.646  20.278  0.00  0.00    +0.000 A 
ATOM     15  C   UNL     1       1.359   5.688  21.049  0.00  0.00    +0.000 A 
ATOM     16  C   UNL     1       2.386   6.332  20.319  0.00  0.00    +0.000 A 
ATOM     17  C   UNL     1       2.538   5.661  19.119  0.00  0.00    +0.000 A 
ENDBRANCH   1  17
BRANCH   8  18
ATOM     18  C   UNL     1       7.398   5.610  15.309  0.00  0.00    +0.000 C 
BRANCH  18  19
ATOM     19  C   UNL     1       7.067   4.925  13.997  0.00  0.00    +0.000 A 
ATOM     20  C   UNL     1       7.758   5.254  12.821  0.00  0.00    +0.000 A 
ATOM     21  C   UNL     1       7.549   4.526  11.644  0.00  0.00    +0.000 A 
ATOM     22  C   UNL     1       6.637   3.472  11.625  0.00  0.00    +0.000 A 
ATOM     23  C   UNL     1       5.913   3.163  12.774  0.00  0.00    +0.000 A 
ATOM     24  C   UNL     1       6.117   3.890  13.950  0.00  0.00    +0.000 A 
ENDBRANCH  18  19
ENDBRANCH   8  18
TORSDOF 3
ENDMDL
MODEL 5
REMARK VINA RESULT:      -7.5      4.662      7.499
REMARK  Name = 
REMARK  4 active torsions:
REMARK  status: ('A' for Active; 'I' for Inactive)
REMARK    1  A    between atoms: C_1  and  N_2
REMARK    2  A    between atoms: C_6  and  C_7
REMARK    3  A    between atoms: N_14  and  C_15
REMARK    4  A    between atoms: C_15  and  C_16
REMARK                            x       y       z     vdW  Elec       q    Type
REMARK                         _______ _______ _______ _____ _____    ______ ____
ROOT
ATOM      1  C   UNL     1       4.312   3.535  19.285  0.00  0.00    +0.000 C 
ATOM      2  C   UNL     1       4.550   4.611  18.508  0.00  0.00    +0.000 C 
ATOM      3  C   UNL     1       3.620   5.753  18.349  0.00  0.00    +0.000 C 
ATOM      4  O   UNL     1       2.688   6.021  19.100  0.00  0.00    +0.000 OA
ATOM      5  N   UNL     1       3.882   6.539  17.270  0.00  0.00    +0.000 N 
ATOM      6  C   UNL     1       4.956   6.477  16.433  0.00  0.00    +0.000 C 
ATOM      7  O   UNL     1       4.957   7.161  15.410  0.00  0.00    +0.000 OA
ATOM      8  N   UNL     1       5.970   5.613  16.789  0.00  0.00    +0.000 N 
ATOM      9  C   UNL     1       5.827   4.610  17.738  0.00  0.00    +0.000 C 
ATOM     10  O   UNL     1       6.677   3.740  17.927  0.00  0.00    +0.000 OA
ATOM     11  H   UNL     1       3.198   7.255  17.066  0.00  0.00    +0.000 HD
ENDROOT
BRANCH   1  17
ATOM     12  C   UNL     1       1.886   2.296  18.124  0.00  0.00    +0.000 C 
ATOM     13  N   UNL     1       2.011   2.783  19.481  0.00  0.00    +0.000 N 
ATOM     14  C   UNL     1       0.999   2.744  20.408  0.00  0.00    +0.000 A 
ATOM     15  C   UNL     1       1.479   3.262  21.588  0.00  0.00    +0.000 A 
ATOM     16  C   UNL     1       2.824   3.641  21.365  0.00  0.00    +0.000 A 
ATOM     17  C   UNL     1       3.138   3.337  20.053  0.00  0.00    +0.000 A 
ENDBRANCH   1  17
BRANCH   8  18
ATOM     18  C   UNL     1       7.171   5.603  15.961  0.00  0.00    +0.000 C 
BRANCH  18  19
ATOM     19  C   UNL     1       6.969   5.030  14.572  0.00  0.00    +0.000 A 
ATOM     20  C   UNL     1       7.751   5.467  13.493  0.00  0.00    +0.000 A 
ATOM     21  C   UNL     1       7.659   4.840  12.246  0.00  0.00    +0.000 A 
ATOM     22  C   UNL     1       6.775   3.779  12.058  0.00  0.00    +0.000 A 
ATOM     23  C   UNL     1       5.961   3.363  13.109  0.00  0.00    +0.000 A 
ATOM     24  C   UNL     1       6.048   3.989  14.356  0.00  0.00    +0.000 A 
ENDBRANCH  18  19
ENDBRANCH   8  18
TORSDOF 3
ENDMDL
MODEL 6
REMARK VINA RESULT:      -7.4      5.143      7.640
REMARK  Name = 
REMARK  4 active torsions:
REMARK  status: ('A' for Active; 'I' for Inactive)
REMARK    1  A    between atoms: C_1  and  N_2
REMARK    2  A    between atoms: C_6  and  C_7
REMARK    3  A    between atoms: N_14  and  C_15
REMARK    4  A    between atoms: C_15  and  C_16
REMARK                            x       y       z     vdW  Elec       q    Type
REMARK                         _______ _______ _______ _____ _____    ______ ____
ROOT
ATOM      1  C   UNL     1       2.919   4.687  18.752  0.00  0.00    +0.000 C 
ATOM      2  C   UNL     1       4.182   4.471  18.335  0.00  0.00    +0.000 C 
ATOM      3  C   UNL     1       5.151   3.581  19.017  0.00  0.00    +0.000 C 
ATOM      4  O   UNL     1       4.865   2.716  19.837  0.00  0.00    +0.000 OA
ATOM      5  N   UNL     1       6.446   3.781  18.650  0.00  0.00    +0.000 N 
ATOM      6  C   UNL     1       6.916   4.581  17.651  0.00  0.00    +0.000 C 
ATOM      7  O   UNL     1       8.129   4.768  17.558  0.00  0.00    +0.000 OA
ATOM      8  N   UNL     1       5.977   5.154  16.821  0.00  0.00    +0.000 N 
ATOM      9  C   UNL     1       4.623   5.220  17.123  0.00  0.00    +0.000 C 
ATOM     10  O   UNL     1       3.821   5.879  16.462  0.00  0.00    +0.000 OA
ATOM     11  H   UNL     1       7.141   3.274  19.180  0.00  0.00    +0.000 HD
ENDROOT
BRANCH   1  17
ATOM     12  C   UNL     1       1.320   2.200  18.595  0.00  0.00    +0.000 C 
ATOM     13  N   UNL     1       1.573   2.959  19.801  0.00  0.00    +0.000 N 
ATOM     14  C   UNL     1       1.083   2.622  21.039  0.00  0.00    +0.000 A 
ATOM     15  C   UNL     1       1.544   3.545  21.948  0.00  0.00    +0.000 A 
ATOM     16  C   UNL     1       2.330   4.481  21.235  0.00  0.00    +0.000 A 
ATOM     17  C   UNL     1       2.338   4.103  19.905  0.00  0.00    +0.000 A 
ENDBRANCH   1  17
BRANCH   8  18
ATOM     18  C   UNL     1       6.462   5.934  15.688  0.00  0.00    +0.000 C 
BRANCH  18  19
ATOM     19  C   UNL     1       6.649   5.134  14.413  0.00  0.00    +0.000 A 
ATOM     20  C   UNL     1       5.768   4.094  14.083  0.00  0.00    +0.000 A 
ATOM     21  C   UNL     1       5.857   3.450  12.844  0.00  0.00    +0.000 A 
ATOM     22  C   UNL     1       6.837   3.829  11.927  0.00  0.00    +0.000 A 
ATOM     23  C   UNL     1       7.746   4.830  12.260  0.00  0.00    +0.000 A 
ATOM     24  C   UNL     1       7.661   5.473  13.497  0.00  0.00    +0.000 A 
ENDBRANCH  18  19
ENDBRANCH   8  18
TORSDOF 3
ENDMDL
MODEL 7
REMARK VINA RESULT:      -7.3      4.092      7.751
REMARK  Name = 
REMARK  4 active torsions:
REMARK  status: ('A' for Active; 'I' for Inactive)
REMARK    1  A    between atoms: C_1  and  N_2
REMARK    2  A    between atoms: C_6  and  C_7
REMARK    3  A    between atoms: N_14  and  C_15
REMARK    4  A    between atoms: C_15  and  C_16
REMARK                            x       y       z     vdW  Elec       q    Type
REMARK                         _______ _______ _______ _____ _____    ______ ____
ROOT
ATOM      1  C   UNL     1       2.941   5.046  17.769  0.00  0.00    +0.000 C 
ATOM      2  C   UNL     1       4.231   4.663  17.687  0.00  0.00    +0.000 C 
ATOM      3  C   UNL     1       4.895   3.744  18.640  0.00  0.00    +0.000 C 
ATOM      4  O   UNL     1       4.321   2.992  19.420  0.00  0.00    +0.000 OA
ATOM      5  N   UNL     1       6.255   3.774  18.589  0.00  0.00    +0.000 N 
ATOM      6  C   UNL     1       7.042   4.425  17.687  0.00  0.00    +0.000 C 
ATOM      7  O   UNL     1       8.256   4.477  17.880  0.00  0.00    +0.000 OA
ATOM      8  N   UNL     1       6.401   5.015  16.617  0.00  0.00    +0.000 N 
ATOM      9  C   UNL     1       5.033   5.248  16.574  0.00  0.00    +0.000 C 
ATOM     10  O   UNL     1       4.496   5.923  15.697  0.00  0.00    +0.000 OA
ATOM     11  H   UNL     1       6.738   3.248  19.304  0.00  0.00    +0.000 HD
ENDROOT
BRANCH   1  17
ATOM     12  C   UNL     1       2.404   6.720  20.151  0.00  0.00    +0.000 C 
ATOM     13  N   UNL     1       1.826   5.418  19.894  0.00  0.00    +0.000 N 
ATOM     14  C   UNL     1       0.955   4.782  20.744  0.00  0.00    +0.000 A 
ATOM     15  C   UNL     1       0.593   3.586  20.169  0.00  0.00    +0.000 A 
ATOM     16  C   UNL     1       1.278   3.489  18.935  0.00  0.00    +0.000 A 
ATOM     17  C   UNL     1       2.038   4.633  18.779  0.00  0.00    +0.000 A 
ENDBRANCH   1  17
BRANCH   8  18
ATOM     18  C   UNL     1       7.232   5.633  15.589  0.00  0.00    +0.000 C 
BRANCH  18  19
ATOM     19  C   UNL     1       7.161   4.952  14.236  0.00  0.00    +0.000 A 
ATOM     20  C   UNL     1       6.323   3.846  14.031  0.00  0.00    +0.000 A 
ATOM     21  C   UNL     1       6.154   3.307  12.752  0.00  0.00    +0.000 A 
ATOM     22  C   UNL     1       6.831   3.857  11.665  0.00  0.00    +0.000 A 
ATOM     23  C   UNL     1       7.699   4.928  11.861  0.00  0.00    +0.000 A 
ATOM     24  C   UNL     1       7.873   5.467  13.138  0.00  0.00    +0.000 A 
ENDBRANCH  18  19
ENDBRANCH   8  18
TORSDOF 3
ENDMDL
MODEL 8
REMARK VINA RESULT:      -7.3      1.814      7.015
REMARK  Name = 
REMARK  4 active torsions:
REMARK  status: ('A' for Active; 'I' for Inactive)
REMARK    1  A    between atoms: C_1  and  N_2
REMARK    2  A    between atoms: C_6  and  C_7
REMARK    3  A    between atoms: N_14  and  C_15
REMARK    4  A    between atoms: C_15  and  C_16
REMARK                            x       y       z     vdW  Elec       q    Type
REMARK                         _______ _______ _______ _____ _____    ______ ____
ROOT
ATOM      1  C   UNL     1       0.456   9.373  19.791  0.00  0.00    +0.000 C 
ATOM      2  C   UNL     1       1.512   8.738  19.245  0.00  0.00    +0.000 C 
ATOM      3  C   UNL     1       2.166   9.137  17.977  0.00  0.00    +0.000 C 
ATOM      4  O   UNL     1       2.050  10.227  17.430  0.00  0.00    +0.000 OA
ATOM      5  N   UNL     1       2.959   8.174  17.432  0.00  0.00    +0.000 N 
ATOM      6  C   UNL     1       3.318   6.979  17.981  0.00  0.00    +0.000 C 
ATOM      7  O   UNL     1       3.912   6.156  17.285  0.00  0.00    +0.000 OA
ATOM      8  N   UNL     1       2.957   6.767  19.294  0.00  0.00    +0.000 N 
ATOM      9  C   UNL     1       2.011   7.531  19.965  0.00  0.00    +0.000 C 
ATOM     10  O   UNL     1       1.572   7.232  21.075  0.00  0.00    +0.000 OA
ATOM     11  H   UNL     1       3.325   8.369  16.511  0.00  0.00    +0.000 HD
ENDROOT
BRANCH   1  17
ATOM     12  C   UNL     1       1.205  12.129  20.578  0.00  0.00    +0.000 C 
ATOM     13  N   UNL     1       0.164  11.780  19.635  0.00  0.00    +0.000 N 
ATOM     14  C   UNL     1      -0.628  12.698  18.989  0.00  0.00    +0.000 A 
ATOM     15  C   UNL     1      -1.481  12.014  18.154  0.00  0.00    +0.000 A 
ATOM     16  C   UNL     1      -1.207  10.635  18.309  0.00  0.00    +0.000 A 
ATOM     17  C   UNL     1      -0.184  10.507  19.231  0.00  0.00    +0.000 A 
ENDBRANCH   1  17
BRANCH   8  18
ATOM     18  C   UNL     1       3.416   5.537  19.932  0.00  0.00    +0.000 C 
BRANCH  18  19
ATOM     19  C   UNL     1       2.612   4.305  19.565  0.00  0.00    +0.000 A 
ATOM     20  C   UNL     1       1.295   4.145  20.020  0.00  0.00    +0.000 A 
ATOM     21  C   UNL     1       0.509   3.080  19.568  0.00  0.00    +0.000 A 
ATOM     22  C   UNL     1       1.035   2.153  18.669  0.00  0.00    +0.000 A 
ATOM     23  C   UNL     1       2.355   2.275  18.243  0.00  0.00    +0.000 A 
ATOM     24  C   UNL     1       3.144   3.337  18.694  0.00  0.00    +0.000 A 
ENDBRANCH  18  19
ENDBRANCH   8  18
TORSDOF 3
ENDMDL
MODEL 9
REMARK VINA RESULT:      -7.3      1.759      7.137
REMARK  Name = 
REMARK  4 active torsions:
REMARK  status: ('A' for Active; 'I' for Inactive)
REMARK    1  A    between atoms: C_1  and  N_2
REMARK    2  A    between atoms: C_6  and  C_7
REMARK    3  A    between atoms: N_14  and  C_15
REMARK    4  A    between atoms: C_15  and  C_16
REMARK                            x       y       z     vdW  Elec       q    Type
REMARK                         _______ _______ _______ _____ _____    ______ ____
ROOT
ATOM      1  C   UNL     1       0.394   9.333  19.778  0.00  0.00    +0.000 C 
ATOM      2  C   UNL     1       1.466   8.712  19.245  0.00  0.00    +0.000 C 
ATOM      3  C   UNL     1       2.146   9.133  17.999  0.00  0.00    +0.000 C 
ATOM      4  O   UNL     1       2.036  10.231  17.465  0.00  0.00    +0.000 OA
ATOM      5  N   UNL     1       2.956   8.183  17.457  0.00  0.00    +0.000 N 
ATOM      6  C   UNL     1       3.311   6.982  17.996  0.00  0.00    +0.000 C 
ATOM      7  O   UNL     1       3.924   6.173  17.301  0.00  0.00    +0.000 OA
ATOM      8  N   UNL     1       2.921   6.748  19.298  0.00  0.00    +0.000 N 
ATOM      9  C   UNL     1       1.956   7.497  19.958  0.00  0.00    +0.000 C 
ATOM     10  O   UNL     1       1.495   7.179  21.054  0.00  0.00    +0.000 OA
ATOM     11  H   UNL     1       3.342   8.394  16.547  0.00  0.00    +0.000 HD
ENDROOT
BRANCH   1  17
ATOM     12  C   UNL     1       1.108  12.080  20.623  0.00  0.00    +0.000 C 
ATOM     13  N   UNL     1       0.091  11.740  19.651  0.00  0.00    +0.000 N 
ATOM     14  C   UNL     1      -0.692  12.663  19.001  0.00  0.00    +0.000 A 
ATOM     15  C   UNL     1      -1.521  11.987  18.137  0.00  0.00    +0.000 A 
ATOM     16  C   UNL     1      -1.242  10.607  18.277  0.00  0.00    +0.000 A 
ATOM     17  C   UNL     1      -0.239  10.471  19.220  0.00  0.00    +0.000 A 
ENDBRANCH   1  17
BRANCH   8  18
ATOM     18  C   UNL     1       3.374   5.511  19.927  0.00  0.00    +0.000 C 
BRANCH  18  19
ATOM     19  C   UNL     1       2.674   4.264  19.426  0.00  0.00    +0.000 A 
ATOM     20  C   UNL     1       3.390   3.256  18.762  0.00  0.00    +0.000 A 
ATOM     21  C   UNL     1       2.774   2.046  18.425  0.00  0.00    +0.000 A 
ATOM     22  C   UNL     1       1.430   1.836  18.733  0.00  0.00    +0.000 A 
ATOM     23  C   UNL     1       0.696   2.844  19.351  0.00  0.00    +0.000 A 
ATOM     24  C   UNL     1       1.308   4.054  19.688  0.00  0.00    +0.000 A 
ENDBRANCH  18  19
ENDBRANCH   8  18
TORSDOF 3
ENDMDL
