MODEL 1
REMARK VINA RESULT:      -7.6      0.000      0.000
REMARK  Name = 
REMARK  5 active torsions:
REMARK  status: ('A' for Active; 'I' for Inactive)
REMARK    1  A    between atoms: C_1  and  O_2
REMARK    2  A    between atoms: O_2  and  C_3
REMARK    3  A    between atoms: C_6  and  N_7
REMARK    4  A    between atoms: C_13  and  C_14
REMARK    5  A    between atoms: C_15  and  C_16
REMARK                            x       y       z     vdW  Elec       q    Type
REMARK                         _______ _______ _______ _____ _____    ______ ____
ROOT
ATOM      1  N   UNL     1       1.845   7.156  20.807  0.00  0.00    +0.000 N 
ATOM      2  C   UNL     1       2.573   6.715  19.740  0.00  0.00    +0.000 C 
ATOM      3  N   UNL     1       3.078   7.395  18.770  0.00  0.00    +0.000 NA
ATOM      4  C   UNL     1       3.705   6.639  17.815  0.00  0.00    +0.000 C 
ATOM      5  O   UNL     1       4.249   7.118  16.835  0.00  0.00    +0.000 OA
ATOM      6  C   UNL     1       3.615   5.174  18.122  0.00  0.00    +0.000 C 
ATOM      7  C   UNL     1       4.040   4.146  17.372  0.00  0.00    +0.000 C 
ATOM      8  S   UNL     1       2.828   4.979  19.650  0.00  0.00    +0.000 S 
ATOM      9  H   UNL     1       1.497   6.432  21.422  0.00  0.00    +0.000 HD
ENDROOT
BRANCH   1  13
ATOM     10  C   UNL     1      -0.304  10.791  21.184  0.00  0.00    +0.000 A 
ATOM     11  C   UNL     1       0.067  10.050  22.303  0.00  0.00    +0.000 A 
ATOM     12  C   UNL     1       0.808   8.870  22.165  0.00  0.00    +0.000 A 
ATOM     13  C   UNL     1       1.163   8.385  20.899  0.00  0.00    +0.000 A 
ATOM     14  C   UNL     1       0.795   9.154  19.786  0.00  0.00    +0.000 A 
ATOM     15  C   UNL     1       0.060  10.337  19.922  0.00  0.00    +0.000 A 
BRANCH  10  17
ATOM     16  C   UNL     1      -1.618  11.987  22.735  0.00  0.00    +0.000 C 
ATOM     17  O   UNL     1      -1.039  11.915  21.436  0.00  0.00    +0.000 OA
ENDBRANCH  10  17
ENDBRANCH   1  13
BRANCH   7  18
ATOM     18  C   UNL     1       4.694   4.260  16.087  0.00  0.00    +0.000 C 
ATOM     19  C   UNL     1       6.024   4.296  15.904  0.00  0.00    +0.000 C 
BRANCH  19  20
ATOM     20  C   UNL     1       6.550   4.433  14.585  0.00  0.00    +0.000 A 
ATOM     21  C   UNL     1       6.171   3.786  13.415  0.00  0.00    +0.000 A 
ATOM     22  C   UNL     1       7.005   4.250  12.367  0.00  0.00    +0.000 A 
ATOM     23  C   UNL     1       7.852   5.161  12.941  0.00  0.00    +0.000 A 
ATOM     24  O   UNL     1       7.590   5.281  14.261  0.00  0.00    +0.000 OA
ENDBRANCH  19  20
ENDBRANCH   7  18
TORSDOF 4
ENDMDL
MODEL 2
REMARK VINA RESULT:      -7.4      1.408      9.463
REMARK  Name = 
REMARK  5 active torsions:
REMARK  status: ('A' for Active; 'I' for Inactive)
REMARK    1  A    between atoms: C_1  and  O_2
REMARK    2  A    between atoms: O_2  and  C_3
REMARK    3  A    between atoms: C_6  and  N_7
REMARK    4  A    between atoms: C_13  and  C_14
REMARK    5  A    between atoms: C_15  and  C_16
REMARK                            x       y       z     vdW  Elec       q    Type
REMARK                         _______ _______ _______ _____ _____    ______ ____
ROOT
ATOM      1  N   UNL     1       4.166   4.401  17.899  0.00  0.00    +0.000 N 
ATOM      2  C   UNL     1       3.363   5.366  18.434  0.00  0.00    +0.000 C 
ATOM      3  N   UNL     1       3.047   6.516  17.947  0.00  0.00    +0.000 NA
ATOM      4  C   UNL     1       2.265   7.284  18.769  0.00  0.00    +0.000 C 
ATOM      5  O   UNL     1       1.863   8.393  18.462  0.00  0.00    +0.000 OA
ATOM      6  C   UNL     1       1.993   6.597  20.073  0.00  0.00    +0.000 C 
ATOM      7  C   UNL     1       1.339   7.080  21.140  0.00  0.00    +0.000 C 
ATOM      8  S   UNL     1       2.695   5.016  20.020  0.00  0.00    +0.000 S 
ATOM      9  H   UNL     1       4.322   3.593  18.488  0.00  0.00    +0.000 HD
ENDROOT
BRANCH   1  13
ATOM     10  C   UNL     1       7.078   5.093  14.897  0.00  0.00    +0.000 A 
ATOM     11  C   UNL     1       7.311   5.442  16.225  0.00  0.00    +0.000 A 
ATOM     12  C   UNL     1       6.354   5.174  17.211  0.00  0.00    +0.000 A 
ATOM     13  C   UNL     1       5.126   4.584  16.884  0.00  0.00    +0.000 A 
ATOM     14  C   UNL     1       4.918   4.226  15.546  0.00  0.00    +0.000 A 
ATOM     15  C   UNL     1       5.875   4.487  14.558  0.00  0.00    +0.000 A 
BRANCH  10  17
ATOM     16  C   UNL     1       7.803   5.118  12.653  0.00  0.00    +0.000 C 
ATOM     17  O   UNL     1       8.074   5.417  14.018  0.00  0.00    +0.000 OA
ENDBRANCH  10  17
ENDBRANCH   1  13
BRANCH   7  18
ATOM     18  C   UNL     1       0.744   8.396  21.233  0.00  0.00    +0.000 C 
ATOM     19  C   UNL     1       0.821   9.198  22.306  0.00  0.00    +0.000 C 
BRANCH  19  20
ATOM     20  C   UNL     1       0.171  10.468  22.285  0.00  0.00    +0.000 A 
ATOM     21  C   UNL     1      -1.011  10.862  22.898  0.00  0.00    +0.000 A 
ATOM     22  C   UNL     1      -1.249  12.219  22.565  0.00  0.00    +0.000 A 
ATOM     23  C   UNL     1      -0.200  12.595  21.767  0.00  0.00    +0.000 A 
ATOM     24  O   UNL     1       0.654  11.562  21.594  0.00  0.00    +0.000 OA
ENDBRANCH  19  20
ENDBRANCH   7  18
TORSDOF 4
ENDMDL
MODEL 3
REMARK VINA RESULT:      -7.4      0.294      1.036
REMARK  Name = 
REMARK  5 active torsions:
REMARK  status: ('A' for Active; 'I' for Inactive)
REMARK    1  A    between atoms: C_1  and  O_2
REMARK    2  A    between atoms: O_2  and  C_3
REMARK    3  A    between atoms: C_6  and  N_7
REMARK    4  A    between atoms: C_13  and  C_14
REMARK    5  A    between atoms: C_15  and  C_16
REMARK                            x       y       z     vdW  Elec       q    Type
REMARK                         _______ _______ _______ _____ _____    ______ ____
ROOT
ATOM      1  N   UNL     1       1.864   7.137  20.767  0.00  0.00    +0.000 N 
ATOM      2  C   UNL     1       2.596   6.695  19.704  0.00  0.00    +0.000 C 
ATOM      3  N   UNL     1       3.085   7.371  18.723  0.00  0.00    +0.000 NA
ATOM      4  C   UNL     1       3.722   6.614  17.775  0.00  0.00    +0.000 C 
ATOM      5  O   UNL     1       4.253   7.090  16.787  0.00  0.00    +0.000 OA
ATOM      6  C   UNL     1       3.663   5.152  18.103  0.00  0.00    +0.000 C 
ATOM      7  C   UNL     1       4.105   4.122  17.366  0.00  0.00    +0.000 C 
ATOM      8  S   UNL     1       2.885   4.963  19.638  0.00  0.00    +0.000 S 
ATOM      9  H   UNL     1       1.533   6.415  21.394  0.00  0.00    +0.000 HD
ENDROOT
BRANCH   1  13
ATOM     10  C   UNL     1      -0.152  10.863  20.914  0.00  0.00    +0.000 A 
ATOM     11  C   UNL     1       0.352  10.360  19.717  0.00  0.00    +0.000 A 
ATOM     12  C   UNL     1       0.984   9.111  19.678  0.00  0.00    +0.000 A 
ATOM     13  C   UNL     1       1.158   8.354  20.845  0.00  0.00    +0.000 A 
ATOM     14  C   UNL     1       0.629   8.870  22.035  0.00  0.00    +0.000 A 
ATOM     15  C   UNL     1      -0.009  10.115  22.076  0.00  0.00    +0.000 A 
BRANCH  10  17
ATOM     16  C   UNL     1      -1.772  12.343  21.780  0.00  0.00    +0.000 C 
ATOM     17  O   UNL     1      -0.733  12.098  20.837  0.00  0.00    +0.000 OA
ENDBRANCH  10  17
ENDBRANCH   1  13
BRANCH   7  18
ATOM     18  C   UNL     1       4.752   4.230  16.077  0.00  0.00    +0.000 C 
ATOM     19  C   UNL     1       6.077   4.340  15.891  0.00  0.00    +0.000 C 
BRANCH  19  20
ATOM     20  C   UNL     1       6.595   4.463  14.568  0.00  0.00    +0.000 A 
ATOM     21  C   UNL     1       6.210   3.803  13.407  0.00  0.00    +0.000 A 
ATOM     22  C   UNL     1       7.037   4.255  12.349  0.00  0.00    +0.000 A 
ATOM     23  C   UNL     1       7.887   5.173  12.907  0.00  0.00    +0.000 A 
ATOM     24  O   UNL     1       7.632   5.308  14.228  0.00  0.00    +0.000 OA
ENDBRANCH  19  20
ENDBRANCH   7  18
TORSDOF 4
ENDMDL
MODEL 4
REMARK VINA RESULT:      -7.1      1.540      9.675
REMARK  Name = 
REMARK  5 active torsions:
REMARK  status: ('A' for Active; 'I' for Inactive)
REMARK    1  A    between atoms: C_1  and  O_2
REMARK    2  A    between atoms: O_2  and  C_3
REMARK    3  A    between atoms: C_6  and  N_7
REMARK    4  A    between atoms: C_13  and  C_14
REMARK    5  A    between atoms: C_15  and  C_16
REMARK                            x       y       z     vdW  Elec       q    Type
REMARK                         _______ _______ _______ _____ _____    ______ ____
ROOT
ATOM      1  N   UNL     1       3.791   5.048  18.304  0.00  0.00    +0.000 N 
ATOM      2  C   UNL     1       3.038   6.078  18.789  0.00  0.00    +0.000 C 
ATOM      3  N   UNL     1       2.846   7.246  18.282  0.00  0.00    +0.000 NA
ATOM      4  C   UNL     1       2.081   8.079  19.055  0.00  0.00    +0.000 C 
ATOM      5  O   UNL     1       1.788   9.215  18.723  0.00  0.00    +0.000 OA
ATOM      6  C   UNL     1       1.678   7.425  20.342  0.00  0.00    +0.000 C 
ATOM      7  C   UNL     1       1.002   7.966  21.367  0.00  0.00    +0.000 C 
ATOM      8  S   UNL     1       2.251   5.792  20.333  0.00  0.00    +0.000 S 
ATOM      9  H   UNL     1       3.846   4.233  18.902  0.00  0.00    +0.000 HD
ENDROOT
BRANCH   1  13
ATOM     10  C   UNL     1       6.886   5.192  15.412  0.00  0.00    +0.000 A 
ATOM     11  C   UNL     1       5.748   4.414  15.215  0.00  0.00    +0.000 A 
ATOM     12  C   UNL     1       4.718   4.405  16.163  0.00  0.00    +0.000 A 
ATOM     13  C   UNL     1       4.821   5.146  17.348  0.00  0.00    +0.000 A 
ATOM     14  C   UNL     1       5.966   5.935  17.519  0.00  0.00    +0.000 A 
ATOM     15  C   UNL     1       6.995   5.951  16.570  0.00  0.00    +0.000 A 
BRANCH  10  17
ATOM     16  C   UNL     1       7.338   4.839  13.123  0.00  0.00    +0.000 C 
ATOM     17  O   UNL     1       7.834   5.111  14.430  0.00  0.00    +0.000 OA
ENDBRANCH  10  17
ENDBRANCH   1  13
BRANCH   7  18
ATOM     18  C   UNL     1       0.511   9.326  21.422  0.00  0.00    +0.000 C 
ATOM     19  C   UNL     1      -0.409   9.775  22.291  0.00  0.00    +0.000 C 
BRANCH  19  20
ATOM     20  C   UNL     1      -0.830  11.136  22.231  0.00  0.00    +0.000 A 
ATOM     21  C   UNL     1      -1.440  11.824  21.189  0.00  0.00    +0.000 A 
ATOM     22  C   UNL     1      -1.646  13.162  21.607  0.00  0.00    +0.000 A 
ATOM     23  C   UNL     1      -1.158  13.232  22.885  0.00  0.00    +0.000 A 
ATOM     24  O   UNL     1      -0.671  12.032  23.270  0.00  0.00    +0.000 OA
ENDBRANCH  19  20
ENDBRANCH   7  18
TORSDOF 4
ENDMDL
MODEL 5
REMARK VINA RESULT:      -7.0      0.954      1.081
REMARK  Name = 
REMARK  5 active torsions:
REMARK  status: ('A' for Active; 'I' for Inactive)
REMARK    1  A    between atoms: C_1  and  O_2
REMARK    2  A    between atoms: O_2  and  C_3
REMARK    3  A    between atoms: C_6  and  N_7
REMARK    4  A    between atoms: C_13  and  C_14
REMARK    5  A    between atoms: C_15  and  C_16
REMARK                            x       y       z     vdW  Elec       q    Type
REMARK                         _______ _______ _______ _____ _____    ______ ____
ROOT
ATOM      1  N   UNL     1       2.145   7.016  20.412  0.00  0.00    +0.000 N 
ATOM      2  C   UNL     1       3.021   6.587  19.457  0.00  0.00    +0.000 C 
ATOM      3  N   UNL     1       3.577   7.261  18.511  0.00  0.00    +0.000 NA
ATOM      4  C   UNL     1       4.365   6.516  17.674  0.00  0.00    +0.000 C 
ATOM      5  O   UNL     1       4.976   6.992  16.733  0.00  0.00    +0.000 OA
ATOM      6  C   UNL     1       4.357   5.065  18.052  0.00  0.00    +0.000 C 
ATOM      7  C   UNL     1       4.944   4.042  17.413  0.00  0.00    +0.000 C 
ATOM      8  S   UNL     1       3.421   4.877  19.495  0.00  0.00    +0.000 S 
ATOM      9  H   UNL     1       1.788   6.296  21.026  0.00  0.00    +0.000 HD
ENDROOT
BRANCH   1  13
ATOM     10  C   UNL     1      -0.327  10.459  20.321  0.00  0.00    +0.000 A 
ATOM     11  C   UNL     1      -0.213   9.680  21.469  0.00  0.00    +0.000 A 
ATOM     12  C   UNL     1       0.635   8.567  21.495  0.00  0.00    +0.000 A 
ATOM     13  C   UNL     1       1.361   8.186  20.359  0.00  0.00    +0.000 A 
ATOM     14  C   UNL     1       1.246   8.992  19.219  0.00  0.00    +0.000 A 
ATOM     15  C   UNL     1       0.404  10.109  19.191  0.00  0.00    +0.000 A 
BRANCH  10  17
ATOM     16  C   UNL     1      -1.669  12.011  19.157  0.00  0.00    +0.000 C 
ATOM     17  O   UNL     1      -1.196  11.511  20.403  0.00  0.00    +0.000 OA
ENDBRANCH  10  17
ENDBRANCH   1  13
BRANCH   7  18
ATOM     18  C   UNL     1       5.728   4.150  16.202  0.00  0.00    +0.000 C 
ATOM     19  C   UNL     1       5.223   4.138  14.958  0.00  0.00    +0.000 C 
BRANCH  19  20
ATOM     20  C   UNL     1       6.104   4.229  13.839  0.00  0.00    +0.000 A 
ATOM     21  C   UNL     1       6.115   3.486  12.665  0.00  0.00    +0.000 A 
ATOM     22  C   UNL     1       7.195   3.940  11.868  0.00  0.00    +0.000 A 
ATOM     23  C   UNL     1       7.793   4.941  12.587  0.00  0.00    +0.000 A 
ATOM     24  O   UNL     1       7.151   5.125  13.762  0.00  0.00    +0.000 OA
ENDBRANCH  19  20
ENDBRANCH   7  18
TORSDOF 4
ENDMDL
MODEL 6
REMARK VINA RESULT:      -7.0      1.137      1.398
REMARK  Name = 
REMARK  5 active torsions:
REMARK  status: ('A' for Active; 'I' for Inactive)
REMARK    1  A    between atoms: C_1  and  O_2
REMARK    2  A    between atoms: O_2  and  C_3
REMARK    3  A    between atoms: C_6  and  N_7
REMARK    4  A    between atoms: C_13  and  C_14
REMARK    5  A    between atoms: C_15  and  C_16
REMARK                            x       y       z     vdW  Elec       q    Type
REMARK                         _______ _______ _______ _____ _____    ______ ____
ROOT
ATOM      1  N   UNL     1       1.025   7.529  21.522  0.00  0.00    +0.000 N 
ATOM      2  C   UNL     1       1.781   7.011  20.511  0.00  0.00    +0.000 C 
ATOM      3  N   UNL     1       2.374   7.628  19.548  0.00  0.00    +0.000 NA
ATOM      4  C   UNL     1       3.006   6.806  18.653  0.00  0.00    +0.000 C 
ATOM      5  O   UNL     1       3.626   7.220  17.689  0.00  0.00    +0.000 OA
ATOM      6  C   UNL     1       2.818   5.360  19.002  0.00  0.00    +0.000 C 
ATOM      7  C   UNL     1       3.223   4.284  18.311  0.00  0.00    +0.000 C 
ATOM      8  S   UNL     1       1.943   5.262  20.492  0.00  0.00    +0.000 S 
ATOM      9  H   UNL     1       0.606   6.848  22.141  0.00  0.00    +0.000 HD
ENDROOT
BRANCH   1  13
ATOM     10  C   UNL     1      -0.930  11.288  21.668  0.00  0.00    +0.000 A 
ATOM     11  C   UNL     1      -0.627  10.584  22.831  0.00  0.00    +0.000 A 
ATOM     12  C   UNL     1       0.051   9.361  22.769  0.00  0.00    +0.000 A 
ATOM     13  C   UNL     1       0.409   8.796  21.537  0.00  0.00    +0.000 A 
ATOM     14  C   UNL     1       0.111   9.528  20.380  0.00  0.00    +0.000 A 
ATOM     15  C   UNL     1      -0.562  10.754  20.439  0.00  0.00    +0.000 A 
BRANCH  10  17
ATOM     16  C   UNL     1      -0.977  13.407  22.704  0.00  0.00    +0.000 C 
ATOM     17  O   UNL     1      -1.609  12.461  21.847  0.00  0.00    +0.000 OA
ENDBRANCH  10  17
ENDBRANCH   1  13
BRANCH   7  18
ATOM     18  C   UNL     1       3.948   4.317  17.059  0.00  0.00    +0.000 C 
ATOM     19  C   UNL     1       5.284   4.246  16.945  0.00  0.00    +0.000 C 
BRANCH  19  20
ATOM     20  C   UNL     1       5.885   4.311  15.653  0.00  0.00    +0.000 A 
ATOM     21  C   UNL     1       7.021   4.999  15.245  0.00  0.00    +0.000 A 
ATOM     22  C   UNL     1       7.204   4.764  13.860  0.00  0.00    +0.000 A 
ATOM     23  C   UNL     1       6.175   3.941  13.484  0.00  0.00    +0.000 A 
ATOM     24  O   UNL     1       5.384   3.661  14.543  0.00  0.00    +0.000 OA
ENDBRANCH  19  20
ENDBRANCH   7  18
TORSDOF 4
ENDMDL
MODEL 7
REMARK VINA RESULT:      -6.8      3.842     10.290
REMARK  Name = 
REMARK  5 active torsions:
REMARK  status: ('A' for Active; 'I' for Inactive)
REMARK    1  A    between atoms: C_1  and  O_2
REMARK    2  A    between atoms: O_2  and  C_3
REMARK    3  A    between atoms: C_6  and  N_7
REMARK    4  A    between atoms: C_13  and  C_14
REMARK    5  A    between atoms: C_15  and  C_16
REMARK                            x       y       z     vdW  Elec       q    Type
REMARK                         _______ _______ _______ _____ _____    ______ ____
ROOT
ATOM      1  N   UNL     1       2.582   7.591  18.300  0.00  0.00    +0.000 N 
ATOM      2  C   UNL     1       1.855   8.422  19.103  0.00  0.00    +0.000 C 
ATOM      3  N   UNL     1       1.501   8.254  20.329  0.00  0.00    +0.000 NA
ATOM      4  C   UNL     1       0.714   9.256  20.833  0.00  0.00    +0.000 C 
ATOM      5  O   UNL     1       0.299   9.266  21.979  0.00  0.00    +0.000 OA
ATOM      6  C   UNL     1       0.426  10.305  19.802  0.00  0.00    +0.000 C 
ATOM      7  C   UNL     1      -0.370  11.379  19.916  0.00  0.00    +0.000 C 
ATOM      8  S   UNL     1       1.292   9.909  18.356  0.00  0.00    +0.000 S 
ATOM      9  H   UNL     1       2.695   7.902  17.344  0.00  0.00    +0.000 HD
ENDROOT
BRANCH   1  13
ATOM     10  C   UNL     1       3.348   3.459  18.859  0.00  0.00    +0.000 A 
ATOM     11  C   UNL     1       4.203   4.429  19.375  0.00  0.00    +0.000 A 
ATOM     12  C   UNL     1       3.918   5.790  19.213  0.00  0.00    +0.000 A 
ATOM     13  C   UNL     1       2.788   6.211  18.499  0.00  0.00    +0.000 A 
ATOM     14  C   UNL     1       1.931   5.219  18.003  0.00  0.00    +0.000 A 
ATOM     15  C   UNL     1       2.211   3.858  18.168  0.00  0.00    +0.000 A 
BRANCH  10  17
ATOM     16  C   UNL     1       4.543   1.940  20.212  0.00  0.00    +0.000 C 
ATOM     17  O   UNL     1       3.734   2.163  19.062  0.00  0.00    +0.000 OA
ENDBRANCH  10  17
ENDBRANCH   1  13
BRANCH   7  18
ATOM     18  C   UNL     1      -1.119  11.745  21.098  0.00  0.00    +0.000 C 
ATOM     19  C   UNL     1      -2.269  12.437  21.094  0.00  0.00    +0.000 C 
BRANCH  19  20
ATOM     20  C   UNL     1      -2.904  12.757  22.331  0.00  0.00    +0.000 A 
ATOM     21  C   UNL     1      -2.428  13.515  23.393  0.00  0.00    +0.000 A 
ATOM     22  C   UNL     1      -3.422  13.529  24.404  0.00  0.00    +0.000 A 
ATOM     23  C   UNL     1      -4.461  12.784  23.913  0.00  0.00    +0.000 A 
ATOM     24  O   UNL     1      -4.167  12.320  22.678  0.00  0.00    +0.000 OA
ENDBRANCH  19  20
ENDBRANCH   7  18
TORSDOF 4
ENDMDL
MODEL 8
REMARK VINA RESULT:      -6.8      3.820     10.280
REMARK  Name = 
REMARK  5 active torsions:
REMARK  status: ('A' for Active; 'I' for Inactive)
REMARK    1  A    between atoms: C_1  and  O_2
REMARK    2  A    between atoms: O_2  and  C_3
REMARK    3  A    between atoms: C_6  and  N_7
REMARK    4  A    between atoms: C_13  and  C_14
REMARK    5  A    between atoms: C_15  and  C_16
REMARK                            x       y       z     vdW  Elec       q    Type
REMARK                         _______ _______ _______ _____ _____    ______ ____
ROOT
ATOM      1  N   UNL     1       2.766   7.590  18.299  0.00  0.00    +0.000 N 
ATOM      2  C   UNL     1       1.957   8.390  19.053  0.00  0.00    +0.000 C 
ATOM      3  N   UNL     1       1.564   8.224  20.268  0.00  0.00    +0.000 NA
ATOM      4  C   UNL     1       0.697   9.185  20.718  0.00  0.00    +0.000 C 
ATOM      5  O   UNL     1       0.235   9.192  21.845  0.00  0.00    +0.000 OA
ATOM      6  C   UNL     1       0.386  10.193  19.652  0.00  0.00    +0.000 C 
ATOM      7  C   UNL     1      -0.479  11.216  19.710  0.00  0.00    +0.000 C 
ATOM      8  S   UNL     1       1.334   9.823  18.252  0.00  0.00    +0.000 S 
ATOM      9  H   UNL     1       2.898   7.888  17.341  0.00  0.00    +0.000 HD
ENDROOT
BRANCH   1  13
ATOM     10  C   UNL     1       3.474   3.481  19.065  0.00  0.00    +0.000 A 
ATOM     11  C   UNL     1       2.317   3.908  18.419  0.00  0.00    +0.000 A 
ATOM     12  C   UNL     1       2.114   5.265  18.141  0.00  0.00    +0.000 A 
ATOM     13  C   UNL     1       3.049   6.230  18.536  0.00  0.00    +0.000 A 
ATOM     14  C   UNL     1       4.215   5.779  19.169  0.00  0.00    +0.000 A 
ATOM     15  C   UNL     1       4.424   4.423  19.443  0.00  0.00    +0.000 A 
BRANCH  10  17
ATOM     16  C   UNL     1       3.671   1.320  18.139  0.00  0.00    +0.000 C 
ATOM     17  O   UNL     1       3.559   2.137  19.300  0.00  0.00    +0.000 OA
ENDBRANCH  10  17
ENDBRANCH   1  13
BRANCH   7  18
ATOM     18  C   UNL     1      -1.297  11.558  20.854  0.00  0.00    +0.000 C 
ATOM     19  C   UNL     1      -2.355  12.384  20.821  0.00  0.00    +0.000 C 
BRANCH  19  20
ATOM     20  C   UNL     1      -3.071  12.660  22.023  0.00  0.00    +0.000 A 
ATOM     21  C   UNL     1      -2.858  12.170  23.306  0.00  0.00    +0.000 A 
ATOM     22  C   UNL     1      -3.843  12.728  24.159  0.00  0.00    +0.000 A 
ATOM     23  C   UNL     1      -4.610  13.537  23.362  0.00  0.00    +0.000 A 
ATOM     24  O   UNL     1      -4.159  13.507  22.088  0.00  0.00    +0.000 OA
ENDBRANCH  19  20
ENDBRANCH   7  18
TORSDOF 4
ENDMDL
MODEL 9
REMARK VINA RESULT:      -6.8      3.937     10.619
REMARK  Name = 
REMARK  5 active torsions:
REMARK  status: ('A' for Active; 'I' for Inactive)
REMARK    1  A    between atoms: C_1  and  O_2
REMARK    2  A    between atoms: O_2  and  C_3
REMARK    3  A    between atoms: C_6  and  N_7
REMARK    4  A    between atoms: C_13  and  C_14
REMARK    5  A    between atoms: C_15  and  C_16
REMARK                            x       y       z     vdW  Elec       q    Type
REMARK                         _______ _______ _______ _____ _____    ______ ____
ROOT
ATOM      1  N   UNL     1       2.286   7.673  19.312  0.00  0.00    +0.000 N 
ATOM      2  C   UNL     1       1.466   8.474  20.053  0.00  0.00    +0.000 C 
ATOM      3  N   UNL     1       0.813   8.189  21.126  0.00  0.00    +0.000 NA
ATOM      4  C   UNL     1       0.024   9.205  21.595  0.00  0.00    +0.000 C 
ATOM      5  O   UNL     1      -0.652   9.114  22.605  0.00  0.00    +0.000 OA
ATOM      6  C   UNL     1       0.088  10.411  20.706  0.00  0.00    +0.000 C 
ATOM      7  C   UNL     1      -0.611  11.552  20.810  0.00  0.00    +0.000 C 
ATOM      8  S   UNL     1       1.237  10.107  19.448  0.00  0.00    +0.000 S 
ATOM      9  H   UNL     1       2.652   8.093  18.468  0.00  0.00    +0.000 HD
ENDROOT
BRANCH   1  13
ATOM     10  C   UNL     1       2.263   3.434  19.245  0.00  0.00    +0.000 A 
ATOM     11  C   UNL     1       2.373   4.176  18.071  0.00  0.00    +0.000 A 
ATOM     12  C   UNL     1       2.415   5.575  18.112  0.00  0.00    +0.000 A 
ATOM     13  C   UNL     1       2.311   6.264  19.328  0.00  0.00    +0.000 A 
ATOM     14  C   UNL     1       2.218   5.500  20.498  0.00  0.00    +0.000 A 
ATOM     15  C   UNL     1       2.181   4.101  20.461  0.00  0.00    +0.000 A 
BRANCH  10  17
ATOM     16  C   UNL     1       3.364   1.492  18.484  0.00  0.00    +0.000 C 
ATOM     17  O   UNL     1       2.214   2.078  19.084  0.00  0.00    +0.000 OA
ENDBRANCH  10  17
ENDBRANCH   1  13
BRANCH   7  18
ATOM     18  C   UNL     1      -1.585  11.847  21.837  0.00  0.00    +0.000 C 
ATOM     19  C   UNL     1      -2.793  12.390  21.616  0.00  0.00    +0.000 C 
BRANCH  19  20
ATOM     20  C   UNL     1      -3.659  12.655  22.718  0.00  0.00    +0.000 A 
ATOM     21  C   UNL     1      -4.624  13.644  22.861  0.00  0.00    +0.000 A 
ATOM     22  C   UNL     1      -5.208  13.507  24.144  0.00  0.00    +0.000 A 
ATOM     23  C   UNL     1      -4.579  12.438  24.727  0.00  0.00    +0.000 A 
ATOM     24  O   UNL     1      -3.656  11.920  23.887  0.00  0.00    +0.000 OA
ENDBRANCH  19  20
ENDBRANCH   7  18
TORSDOF 4
ENDMDL
