MODEL 1
REMARK VINA RESULT:      -6.9      0.000      0.000
REMARK  Name = 
REMARK  5 active torsions:
REMARK  status: ('A' for Active; 'I' for Inactive)
REMARK    1  A    between atoms: C_1  and  C_2
REMARK    2  A    between atoms: C_2  and  C_3
REMARK    3  A    between atoms: C_4  and  C_5
REMARK    4  A    between atoms: N_7  and  C_8
REMARK    5  A    between atoms: N_20  and  C_21
REMARK                            x       y       z     vdW  Elec       q    Type
REMARK                         _______ _______ _______ _____ _____    ______ ____
ROOT
ATOM      1  C   UNL     1       2.004   5.463  19.521  0.00  0.00    +0.000 C 
ATOM      2  O   UNL     1       1.485   5.357  18.414  0.00  0.00    +0.000 OA
ATOM      3  N   UNL     1       2.231   6.668  20.178  0.00  0.00    +0.000 N 
ATOM      4  H   UNL     1       2.833   6.622  20.989  0.00  0.00    +0.000 HD
ENDROOT
BRANCH   3   5
ATOM      5  C   UNL     1       1.878   7.956  19.667  0.00  0.00    +0.000 A 
ATOM      6  C   UNL     1       2.264   8.335  18.375  0.00  0.00    +0.000 A 
ATOM      7  C   UNL     1       1.967   9.594  17.869  0.00  0.00    +0.000 A 
ATOM      8  C   UNL     1       1.250  10.492  18.645  0.00  0.00    +0.000 A 
ATOM      9  C   UNL     1       0.817  10.162  19.916  0.00  0.00    +0.000 A 
ATOM     10  N   UNL     1       0.134  11.110  20.573  0.00  0.00    +0.000 NA
ATOM     11  C   UNL     1      -0.290  10.845  21.822  0.00  0.00    +0.000 A 
ATOM     12  C   UNL     1      -0.052   9.649  22.461  0.00  0.00    +0.000 A 
ATOM     13  C   UNL     1       0.655   8.661  21.776  0.00  0.00    +0.000 A 
ATOM     14  C   UNL     1       1.124   8.884  20.457  0.00  0.00    +0.000 A 
ENDBRANCH   3   5
BRANCH   1  16
ATOM     15  C   UNL     1       3.671   3.589  19.817  0.00  0.00    +0.000 A 
ATOM     16  C   UNL     1       2.508   4.263  20.200  0.00  0.00    +0.000 A 
ATOM     17  C   UNL     1       1.937   3.505  21.263  0.00  0.00    +0.000 A 
ATOM     18  C   UNL     1       2.756   2.421  21.497  0.00  0.00    +0.000 A 
ATOM     19  N   UNL     1       3.827   2.502  20.647  0.00  0.00    +0.000 N 
ATOM     20  C   UNL     1       4.939   1.576  20.625  0.00  0.00    +0.000 C 
BRANCH  15  22
ATOM     21  C   UNL     1       4.154   3.325  17.376  0.00  0.00    +0.000 C 
ATOM     22  C   UNL     1       4.628   3.908  18.701  0.00  0.00    +0.000 C 
ENDBRANCH  15  22
ENDBRANCH   1  16
TORSDOF 3
ENDMDL
MODEL 2
REMARK VINA RESULT:      -6.9      2.211      7.267
REMARK  Name = 
REMARK  5 active torsions:
REMARK  status: ('A' for Active; 'I' for Inactive)
REMARK    1  A    between atoms: C_1  and  C_2
REMARK    2  A    between atoms: C_2  and  C_3
REMARK    3  A    between atoms: C_4  and  C_5
REMARK    4  A    between atoms: N_7  and  C_8
REMARK    5  A    between atoms: N_20  and  C_21
REMARK                            x       y       z     vdW  Elec       q    Type
REMARK                         _______ _______ _______ _____ _____    ______ ____
ROOT
ATOM      1  C   UNL     1       1.983   7.794  19.265  0.00  0.00    +0.000 C 
ATOM      2  O   UNL     1       2.260   7.260  20.335  0.00  0.00    +0.000 OA
ATOM      3  N   UNL     1       2.220   7.232  18.014  0.00  0.00    +0.000 N 
ATOM      4  H   UNL     1       2.120   7.856  17.224  0.00  0.00    +0.000 HD
ENDROOT
BRANCH   3   5
ATOM      5  C   UNL     1       2.805   5.946  17.794  0.00  0.00    +0.000 A 
ATOM      6  C   UNL     1       2.023   4.787  17.885  0.00  0.00    +0.000 A 
ATOM      7  C   UNL     1       2.574   3.525  17.714  0.00  0.00    +0.000 A 
ATOM      8  C   UNL     1       3.924   3.401  17.421  0.00  0.00    +0.000 A 
ATOM      9  C   UNL     1       4.738   4.510  17.290  0.00  0.00    +0.000 A 
ATOM     10  N   UNL     1       6.027   4.268  17.007  0.00  0.00    +0.000 NA
ATOM     11  C   UNL     1       6.864   5.315  16.891  0.00  0.00    +0.000 A 
ATOM     12  C   UNL     1       6.465   6.623  17.054  0.00  0.00    +0.000 A 
ATOM     13  C   UNL     1       5.124   6.873  17.345  0.00  0.00    +0.000 A 
ATOM     14  C   UNL     1       4.196   5.811  17.476  0.00  0.00    +0.000 A 
ENDBRANCH   3   5
BRANCH   1  16
ATOM     15  C   UNL     1       0.506   9.621  20.192  0.00  0.00    +0.000 A 
ATOM     16  C   UNL     1       1.436   9.156  19.257  0.00  0.00    +0.000 A 
ATOM     17  C   UNL     1       1.630  10.214  18.323  0.00  0.00    +0.000 A 
ATOM     18  C   UNL     1       0.838  11.274  18.714  0.00  0.00    +0.000 A 
ATOM     19  N   UNL     1       0.193  10.922  19.870  0.00  0.00    +0.000 N 
ATOM     20  C   UNL     1      -0.688  11.789  20.623  0.00  0.00    +0.000 C 
BRANCH  15  22
ATOM     21  C   UNL     1       0.580   9.257  22.666  0.00  0.00    +0.000 C 
ATOM     22  C   UNL     1      -0.111   8.896  21.357  0.00  0.00    +0.000 C 
ENDBRANCH  15  22
ENDBRANCH   1  16
TORSDOF 3
ENDMDL
MODEL 3
REMARK VINA RESULT:      -6.8      1.792      6.814
REMARK  Name = 
REMARK  5 active torsions:
REMARK  status: ('A' for Active; 'I' for Inactive)
REMARK    1  A    between atoms: C_1  and  C_2
REMARK    2  A    between atoms: C_2  and  C_3
REMARK    3  A    between atoms: C_4  and  C_5
REMARK    4  A    between atoms: N_7  and  C_8
REMARK    5  A    between atoms: N_20  and  C_21
REMARK                            x       y       z     vdW  Elec       q    Type
REMARK                         _______ _______ _______ _____ _____    ______ ____
ROOT
ATOM      1  C   UNL     1       1.780   8.144  19.471  0.00  0.00    +0.000 C 
ATOM      2  O   UNL     1       1.772   8.565  18.318  0.00  0.00    +0.000 OA
ATOM      3  N   UNL     1       2.286   6.906  19.859  0.00  0.00    +0.000 N 
ATOM      4  H   UNL     1       2.056   6.611  20.798  0.00  0.00    +0.000 HD
ENDROOT
BRANCH   3   5
ATOM      5  C   UNL     1       2.884   5.955  18.974  0.00  0.00    +0.000 A 
ATOM      6  C   UNL     1       3.969   6.323  18.168  0.00  0.00    +0.000 A 
ATOM      7  C   UNL     1       4.543   5.430  17.273  0.00  0.00    +0.000 A 
ATOM      8  C   UNL     1       4.054   4.135  17.189  0.00  0.00    +0.000 A 
ATOM      9  C   UNL     1       3.005   3.708  17.981  0.00  0.00    +0.000 A 
ATOM     10  N   UNL     1       2.615   2.435  17.812  0.00  0.00    +0.000 NA
ATOM     11  C   UNL     1       1.584   1.978  18.545  0.00  0.00    +0.000 A 
ATOM     12  C   UNL     1       0.904   2.754  19.457  0.00  0.00    +0.000 A 
ATOM     13  C   UNL     1       1.312   4.076  19.635  0.00  0.00    +0.000 A 
ATOM     14  C   UNL     1       2.393   4.611  18.893  0.00  0.00    +0.000 A 
ENDBRANCH   3   5
BRANCH   1  16
ATOM     15  C   UNL     1       0.413  10.100  20.298  0.00  0.00    +0.000 A 
ATOM     16  C   UNL     1       1.148   8.934  20.534  0.00  0.00    +0.000 A 
ATOM     17  C   UNL     1       1.202   8.773  21.949  0.00  0.00    +0.000 A 
ATOM     18  C   UNL     1       0.505   9.817  22.520  0.00  0.00    +0.000 A 
ATOM     19  N   UNL     1      -0.006  10.592  21.514  0.00  0.00    +0.000 N 
ATOM     20  C   UNL     1      -0.847  11.754  21.708  0.00  0.00    +0.000 C 
BRANCH  15  22
ATOM     21  C   UNL     1      -1.228  10.302  18.420  0.00  0.00    +0.000 C 
ATOM     22  C   UNL     1       0.103  10.777  18.991  0.00  0.00    +0.000 C 
ENDBRANCH  15  22
ENDBRANCH   1  16
TORSDOF 3
ENDMDL
MODEL 4
REMARK VINA RESULT:      -6.7      2.018      7.028
REMARK  Name = 
REMARK  5 active torsions:
REMARK  status: ('A' for Active; 'I' for Inactive)
REMARK    1  A    between atoms: C_1  and  C_2
REMARK    2  A    between atoms: C_2  and  C_3
REMARK    3  A    between atoms: C_4  and  C_5
REMARK    4  A    between atoms: N_7  and  C_8
REMARK    5  A    between atoms: N_20  and  C_21
REMARK                            x       y       z     vdW  Elec       q    Type
REMARK                         _______ _______ _______ _____ _____    ______ ____
ROOT
ATOM      1  C   UNL     1       2.186   7.911  19.155  0.00  0.00    +0.000 C 
ATOM      2  O   UNL     1       2.455   7.363  20.220  0.00  0.00    +0.000 OA
ATOM      3  N   UNL     1       2.669   7.509  17.913  0.00  0.00    +0.000 N 
ATOM      4  H   UNL     1       2.523   8.158  17.151  0.00  0.00    +0.000 HD
ENDROOT
BRANCH   3   5
ATOM      5  C   UNL     1       3.533   6.390  17.696  0.00  0.00    +0.000 A 
ATOM      6  C   UNL     1       4.882   6.589  17.374  0.00  0.00    +0.000 A 
ATOM      7  C   UNL     1       5.733   5.522  17.121  0.00  0.00    +0.000 A 
ATOM      8  C   UNL     1       5.250   4.225  17.212  0.00  0.00    +0.000 A 
ATOM      9  C   UNL     1       3.935   3.967  17.554  0.00  0.00    +0.000 A 
ATOM     10  N   UNL     1       3.580   2.675  17.609  0.00  0.00    +0.000 NA
ATOM     11  C   UNL     1       2.306   2.373  17.916  0.00  0.00    +0.000 A 
ATOM     12  C   UNL     1       1.345   3.326  18.172  0.00  0.00    +0.000 A 
ATOM     13  C   UNL     1       1.716   4.670  18.118  0.00  0.00    +0.000 A 
ATOM     14  C   UNL     1       3.044   5.047  17.802  0.00  0.00    +0.000 A 
ENDBRANCH   3   5
BRANCH   1  16
ATOM     15  C   UNL     1       0.455   9.447  20.166  0.00  0.00    +0.000 A 
ATOM     16  C   UNL     1       1.366   9.128  19.155  0.00  0.00    +0.000 A 
ATOM     17  C   UNL     1       1.241  10.147  18.166  0.00  0.00    +0.000 A 
ATOM     18  C   UNL     1       0.285  11.042  18.600  0.00  0.00    +0.000 A 
ATOM     19  N   UNL     1      -0.155  10.635  19.831  0.00  0.00    +0.000 N 
ATOM     20  C   UNL     1      -1.121  11.345  20.641  0.00  0.00    +0.000 C 
BRANCH  15  22
ATOM     21  C   UNL     1       0.858   9.242  22.627  0.00  0.00    +0.000 C 
ATOM     22  C   UNL     1       0.121   8.681  21.417  0.00  0.00    +0.000 C 
ENDBRANCH  15  22
ENDBRANCH   1  16
TORSDOF 3
ENDMDL
MODEL 5
REMARK VINA RESULT:      -6.7      2.311      3.837
REMARK  Name = 
REMARK  5 active torsions:
REMARK  status: ('A' for Active; 'I' for Inactive)
REMARK    1  A    between atoms: C_1  and  C_2
REMARK    2  A    between atoms: C_2  and  C_3
REMARK    3  A    between atoms: C_4  and  C_5
REMARK    4  A    between atoms: N_7  and  C_8
REMARK    5  A    between atoms: N_20  and  C_21
REMARK                            x       y       z     vdW  Elec       q    Type
REMARK                         _______ _______ _______ _____ _____    ______ ____
ROOT
ATOM      1  C   UNL     1       1.738   7.952  19.791  0.00  0.00    +0.000 C 
ATOM      2  O   UNL     1       1.360   7.666  20.923  0.00  0.00    +0.000 OA
ATOM      3  N   UNL     1       1.362   9.098  19.095  0.00  0.00    +0.000 N 
ATOM      4  H   UNL     1       1.592   9.111  18.111  0.00  0.00    +0.000 HD
ENDROOT
BRANCH   3   5
ATOM      5  C   UNL     1       0.495  10.115  19.605  0.00  0.00    +0.000 A 
ATOM      6  C   UNL     1       0.802  10.771  20.804  0.00  0.00    +0.000 A 
ATOM      7  C   UNL     1      -0.041  11.735  21.340  0.00  0.00    +0.000 A 
ATOM      8  C   UNL     1      -1.203  12.079  20.665  0.00  0.00    +0.000 A 
ATOM      9  C   UNL     1      -1.543  11.485  19.463  0.00  0.00    +0.000 A 
ATOM     10  N   UNL     1      -2.690  11.896  18.904  0.00  0.00    +0.000 NA
ATOM     11  C   UNL     1      -3.075  11.333  17.744  0.00  0.00    +0.000 A 
ATOM     12  C   UNL     1      -2.351  10.350  17.106  0.00  0.00    +0.000 A 
ATOM     13  C   UNL     1      -1.155   9.926  17.687  0.00  0.00    +0.000 A 
ATOM     14  C   UNL     1      -0.700  10.486  18.906  0.00  0.00    +0.000 A 
ENDBRANCH   3   5
BRANCH   1  16
ATOM     15  C   UNL     1       2.815   5.691  19.462  0.00  0.00    +0.000 A 
ATOM     16  C   UNL     1       2.583   7.007  19.051  0.00  0.00    +0.000 A 
ATOM     17  C   UNL     1       3.377   7.209  17.885  0.00  0.00    +0.000 A 
ATOM     18  C   UNL     1       4.047   6.033  17.621  0.00  0.00    +0.000 A 
ATOM     19  N   UNL     1       3.668   5.106  18.554  0.00  0.00    +0.000 N 
ATOM     20  C   UNL     1       4.112   3.728  18.581  0.00  0.00    +0.000 C 
BRANCH  15  22
ATOM     21  C   UNL     1       1.017   4.193  20.347  0.00  0.00    +0.000 C 
ATOM     22  C   UNL     1       2.288   4.969  20.672  0.00  0.00    +0.000 C 
ENDBRANCH  15  22
ENDBRANCH   1  16
TORSDOF 3
ENDMDL
MODEL 6
REMARK VINA RESULT:      -6.7      1.885      6.880
REMARK  Name = 
REMARK  5 active torsions:
REMARK  status: ('A' for Active; 'I' for Inactive)
REMARK    1  A    between atoms: C_1  and  C_2
REMARK    2  A    between atoms: C_2  and  C_3
REMARK    3  A    between atoms: C_4  and  C_5
REMARK    4  A    between atoms: N_7  and  C_8
REMARK    5  A    between atoms: N_20  and  C_21
REMARK                            x       y       z     vdW  Elec       q    Type
REMARK                         _______ _______ _______ _____ _____    ______ ____
ROOT
ATOM      1  C   UNL     1       1.694   8.457  18.998  0.00  0.00    +0.000 C 
ATOM      2  O   UNL     1       1.488   8.763  17.828  0.00  0.00    +0.000 OA
ATOM      3  N   UNL     1       2.422   7.344  19.410  0.00  0.00    +0.000 N 
ATOM      4  H   UNL     1       2.352   7.109  20.391  0.00  0.00    +0.000 HD
ENDROOT
BRANCH   3   5
ATOM      5  C   UNL     1       3.048   6.406  18.531  0.00  0.00    +0.000 A 
ATOM      6  C   UNL     1       4.102   6.808  17.701  0.00  0.00    +0.000 A 
ATOM      7  C   UNL     1       4.701   5.927  16.810  0.00  0.00    +0.000 A 
ATOM      8  C   UNL     1       4.268   4.611  16.753  0.00  0.00    +0.000 A 
ATOM      9  C   UNL     1       3.251   4.151  17.569  0.00  0.00    +0.000 A 
ATOM     10  N   UNL     1       2.915   2.860  17.426  0.00  0.00    +0.000 NA
ATOM     11  C   UNL     1       1.917   2.370  18.182  0.00  0.00    +0.000 A 
ATOM     12  C   UNL     1       1.218   3.130  19.094  0.00  0.00    +0.000 A 
ATOM     13  C   UNL     1       1.570   4.471  19.245  0.00  0.00    +0.000 A 
ATOM     14  C   UNL     1       2.615   5.041  18.477  0.00  0.00    +0.000 A 
ENDBRANCH   3   5
BRANCH   1  16
ATOM     15  C   UNL     1       0.675  10.577  19.917  0.00  0.00    +0.000 A 
ATOM     16  C   UNL     1       1.081   9.249  20.072  0.00  0.00    +0.000 A 
ATOM     17  C   UNL     1       0.855   8.916  21.439  0.00  0.00    +0.000 A 
ATOM     18  C   UNL     1       0.320  10.025  22.060  0.00  0.00    +0.000 A 
ATOM     19  N   UNL     1       0.173  11.012  21.123  0.00  0.00    +0.000 N 
ATOM     20  C   UNL     1      -0.409  12.313  21.374  0.00  0.00    +0.000 C 
BRANCH  15  22
ATOM     21  C   UNL     1       2.068  12.221  18.646  0.00  0.00    +0.000 C 
ATOM     22  C   UNL     1       0.752  11.456  18.699  0.00  0.00    +0.000 C 
ENDBRANCH  15  22
ENDBRANCH   1  16
TORSDOF 3
ENDMDL
MODEL 7
REMARK VINA RESULT:      -6.7      1.472      2.252
REMARK  Name = 
REMARK  5 active torsions:
REMARK  status: ('A' for Active; 'I' for Inactive)
REMARK    1  A    between atoms: C_1  and  C_2
REMARK    2  A    between atoms: C_2  and  C_3
REMARK    3  A    between atoms: C_4  and  C_5
REMARK    4  A    between atoms: N_7  and  C_8
REMARK    5  A    between atoms: N_20  and  C_21
REMARK                            x       y       z     vdW  Elec       q    Type
REMARK                         _______ _______ _______ _____ _____    ______ ____
ROOT
ATOM      1  C   UNL     1       2.963   7.061  18.472  0.00  0.00    +0.000 C 
ATOM      2  O   UNL     1       3.139   7.646  17.408  0.00  0.00    +0.000 OA
ATOM      3  N   UNL     1       2.157   7.524  19.508  0.00  0.00    +0.000 N 
ATOM      4  H   UNL     1       2.253   7.043  20.392  0.00  0.00    +0.000 HD
ENDROOT
BRANCH   3   5
ATOM      5  C   UNL     1       1.404   8.740  19.476  0.00  0.00    +0.000 A 
ATOM      6  C   UNL     1       1.272   9.460  18.281  0.00  0.00    +0.000 A 
ATOM      7  C   UNL     1       0.580  10.662  18.231  0.00  0.00    +0.000 A 
ATOM      8  C   UNL     1      -0.019  11.156  19.381  0.00  0.00    +0.000 A 
ATOM      9  C   UNL     1       0.054  10.474  20.582  0.00  0.00    +0.000 A 
ATOM     10  N   UNL     1      -0.562  11.048  21.626  0.00  0.00    +0.000 NA
ATOM     11  C   UNL     1      -0.501  10.433  22.822  0.00  0.00    +0.000 A 
ATOM     12  C   UNL     1       0.167   9.247  23.027  0.00  0.00    +0.000 A 
ATOM     13  C   UNL     1       0.803   8.649  21.940  0.00  0.00    +0.000 A 
ATOM     14  C   UNL     1       0.771   9.249  20.657  0.00  0.00    +0.000 A 
ENDBRANCH   3   5
BRANCH   1  16
ATOM     15  C   UNL     1       3.081   4.585  18.959  0.00  0.00    +0.000 A 
ATOM     16  C   UNL     1       3.699   5.820  18.745  0.00  0.00    +0.000 A 
ATOM     17  C   UNL     1       5.095   5.609  18.936  0.00  0.00    +0.000 A 
ATOM     18  C   UNL     1       5.283   4.278  19.242  0.00  0.00    +0.000 A 
ATOM     19  N   UNL     1       4.064   3.655  19.212  0.00  0.00    +0.000 N 
ATOM     20  C   UNL     1       3.851   2.240  19.425  0.00  0.00    +0.000 C 
BRANCH  15  22
ATOM     21  C   UNL     1       1.040   4.233  20.363  0.00  0.00    +0.000 C 
ATOM     22  C   UNL     1       1.616   4.245  18.952  0.00  0.00    +0.000 C 
ENDBRANCH  15  22
ENDBRANCH   1  16
TORSDOF 3
ENDMDL
MODEL 8
REMARK VINA RESULT:      -6.6      1.652      6.771
REMARK  Name = 
REMARK  5 active torsions:
REMARK  status: ('A' for Active; 'I' for Inactive)
REMARK    1  A    between atoms: C_1  and  C_2
REMARK    2  A    between atoms: C_2  and  C_3
REMARK    3  A    between atoms: C_4  and  C_5
REMARK    4  A    between atoms: N_7  and  C_8
REMARK    5  A    between atoms: N_20  and  C_21
REMARK                            x       y       z     vdW  Elec       q    Type
REMARK                         _______ _______ _______ _____ _____    ______ ____
ROOT
ATOM      1  C   UNL     1       1.779   8.945  18.251  0.00  0.00    +0.000 C 
ATOM      2  O   UNL     1       1.243   8.675  17.180  0.00  0.00    +0.000 OA
ATOM      3  N   UNL     1       2.663   8.110  18.928  0.00  0.00    +0.000 N 
ATOM      4  H   UNL     1       2.876   8.373  19.881  0.00  0.00    +0.000 HD
ENDROOT
BRANCH   3   5
ATOM      5  C   UNL     1       3.088   6.825  18.467  0.00  0.00    +0.000 A 
ATOM      6  C   UNL     1       4.001   6.718  17.409  0.00  0.00    +0.000 A 
ATOM      7  C   UNL     1       4.400   5.483  16.917  0.00  0.00    +0.000 A 
ATOM      8  C   UNL     1       3.908   4.323  17.498  0.00  0.00    +0.000 A 
ATOM      9  C   UNL     1       3.027   4.367  18.562  0.00  0.00    +0.000 A 
ATOM     10  N   UNL     1       2.616   3.183  19.040  0.00  0.00    +0.000 NA
ATOM     11  C   UNL     1       1.742   3.173  20.063  0.00  0.00    +0.000 A 
ATOM     12  C   UNL     1       1.243   4.320  20.640  0.00  0.00    +0.000 A 
ATOM     13  C   UNL     1       1.673   5.551  20.144  0.00  0.00    +0.000 A 
ATOM     14  C   UNL     1       2.594   5.622  19.071  0.00  0.00    +0.000 A 
ENDBRANCH   3   5
BRANCH   1  16
ATOM     15  C   UNL     1       0.653  10.242  20.103  0.00  0.00    +0.000 A 
ATOM     16  C   UNL     1       1.427  10.193  18.940  0.00  0.00    +0.000 A 
ATOM     17  C   UNL     1       1.687  11.545  18.573  0.00  0.00    +0.000 A 
ATOM     18  C   UNL     1       1.086  12.360  19.509  0.00  0.00    +0.000 A 
ATOM     19  N   UNL     1       0.499  11.564  20.456  0.00  0.00    +0.000 N 
ATOM     20  C   UNL     1      -0.186  12.047  21.635  0.00  0.00    +0.000 C 
BRANCH  15  22
ATOM     21  C   UNL     1       0.943   8.678  22.034  0.00  0.00    +0.000 C 
ATOM     22  C   UNL     1       0.042   9.111  20.884  0.00  0.00    +0.000 C 
ENDBRANCH  15  22
ENDBRANCH   1  16
TORSDOF 3
ENDMDL
MODEL 9
REMARK VINA RESULT:      -6.6      2.031      7.039
REMARK  Name = 
REMARK  5 active torsions:
REMARK  status: ('A' for Active; 'I' for Inactive)
REMARK    1  A    between atoms: C_1  and  C_2
REMARK    2  A    between atoms: C_2  and  C_3
REMARK    3  A    between atoms: C_4  and  C_5
REMARK    4  A    between atoms: N_7  and  C_8
REMARK    5  A    between atoms: N_20  and  C_21
REMARK                            x       y       z     vdW  Elec       q    Type
REMARK                         _______ _______ _______ _____ _____    ______ ____
ROOT
ATOM      1  C   UNL     1       1.440   9.242  18.739  0.00  0.00    +0.000 C 
ATOM      2  O   UNL     1       1.685   9.455  17.555  0.00  0.00    +0.000 OA
ATOM      3  N   UNL     1       1.834   8.104  19.437  0.00  0.00    +0.000 N 
ATOM      4  H   UNL     1       1.405   7.972  20.343  0.00  0.00    +0.000 HD
ENDROOT
BRANCH   3   5
ATOM      5  C   UNL     1       2.595   7.028  18.882  0.00  0.00    +0.000 A 
ATOM      6  C   UNL     1       3.483   7.260  17.824  0.00  0.00    +0.000 A 
ATOM      7  C   UNL     1       4.204   6.227  17.242  0.00  0.00    +0.000 A 
ATOM      8  C   UNL     1       4.067   4.936  17.731  0.00  0.00    +0.000 A 
ATOM      9  C   UNL     1       3.227   4.652  18.792  0.00  0.00    +0.000 A 
ATOM     10  N   UNL     1       3.174   3.369  19.177  0.00  0.00    +0.000 NA
ATOM     11  C   UNL     1       2.355   3.038  20.192  0.00  0.00    +0.000 A 
ATOM     12  C   UNL     1       1.564   3.952  20.852  0.00  0.00    +0.000 A 
ATOM     13  C   UNL     1       1.623   5.288  20.453  0.00  0.00    +0.000 A 
ATOM     14  C   UNL     1       2.469   5.694  19.392  0.00  0.00    +0.000 A 
ENDBRANCH   3   5
BRANCH   1  16
ATOM     15  C   UNL     1      -0.579  10.739  18.989  0.00  0.00    +0.000 A 
ATOM     16  C   UNL     1       0.606  10.191  19.487  0.00  0.00    +0.000 A 
ATOM     17  C   UNL     1       0.830  10.803  20.755  0.00  0.00    +0.000 A 
ATOM     18  C   UNL     1      -0.209  11.679  20.990  0.00  0.00    +0.000 A 
ATOM     19  N   UNL     1      -1.080  11.603  19.936  0.00  0.00    +0.000 N 
ATOM     20  C   UNL     1      -2.327  12.331  19.838  0.00  0.00    +0.000 C 
BRANCH  15  22
ATOM     21  C   UNL     1      -2.529   9.691  17.823  0.00  0.00    +0.000 C 
ATOM     22  C   UNL     1      -1.249  10.502  17.663  0.00  0.00    +0.000 C 
ENDBRANCH  15  22
ENDBRANCH   1  16
TORSDOF 3
ENDMDL
