MODEL 1
REMARK VINA RESULT:      -7.5      0.000      0.000
REMARK  Name = 
REMARK  10 active torsions:
REMARK  status: ('A' for Active; 'I' for Inactive)
REMARK    1  A    between atoms: C_2  and  C_3
REMARK    2  A    between atoms: C_3  and  C_4
REMARK    3  A    between atoms: C_4  and  C_5
REMARK    4  A    between atoms: N_7  and  C_8
REMARK    5  A    between atoms: N_7  and  C_14
REMARK    6  A    between atoms: C_8  and  C_9
REMARK    7  A    between atoms: C_14  and  C_15
REMARK    8  A    between atoms: C_14  and  C_23
REMARK    9  A    between atoms: N_17  and  C_18
REMARK   10  A    between atoms: N_29  and  C_30
REMARK                            x       y       z     vdW  Elec       q    Type
REMARK                         _______ _______ _______ _____ _____    ______ ____
ROOT
ATOM      1  C   UNL     1       1.924  10.236  18.163  0.00  0.00    +0.000 C 
ATOM      2  O   UNL     1       2.777  10.740  17.430  0.00  0.00    +0.000 OA
ATOM      3  N   UNL     1       0.958  10.983  18.877  0.00  0.00    +0.000 N 
ENDROOT
BRANCH   1   4
ATOM      4  C   UNL     1       1.891   8.720  18.336  0.00  0.00    +0.000 C 
BRANCH   4   5
ATOM      5  C   UNL     1       3.055   7.957  17.712  0.00  0.00    +0.000 C 
BRANCH   5   7
ATOM      6  O   UNL     1       4.257   5.984  18.271  0.00  0.00    +0.000 OA
ATOM      7  C   UNL     1       3.187   6.584  18.331  0.00  0.00    +0.000 C 
ATOM      8  N   UNL     1       2.011   6.106  18.872  0.00  0.00    +0.000 N 
ATOM      9  H   UNL     1       1.153   6.564  18.564  0.00  0.00    +0.000 HD
BRANCH   8  10
ATOM     10  C   UNL     1       1.874   4.885  19.566  0.00  0.00    +0.000 A 
ATOM     11  C   UNL     1       1.336   3.733  18.996  0.00  0.00    +0.000 A 
ATOM     12  C   UNL     1       1.154   2.589  19.773  0.00  0.00    +0.000 A 
ATOM     13  C   UNL     1       1.549   2.628  21.098  0.00  0.00    +0.000 A 
ATOM     14  N   UNL     1       2.127   3.703  21.677  0.00  0.00    +0.000 NA
ATOM     15  C   UNL     1       2.286   4.800  20.894  0.00  0.00    +0.000 A 
ENDBRANCH   8  10
ENDBRANCH   5   7
ENDBRANCH   4   5
ENDBRANCH   1   4
BRANCH   3  16
ATOM     16  C   UNL     1       0.872  12.433  18.620  0.00  0.00    +0.000 C 
BRANCH  16  17
ATOM     17  C   UNL     1       1.913  13.269  19.287  0.00  0.00    +0.000 A 
ATOM     18  C   UNL     1       2.811  14.240  18.891  0.00  0.00    +0.000 A 
ATOM     19  C   UNL     1       3.450  14.702  20.070  0.00  0.00    +0.000 A 
ATOM     20  C   UNL     1       2.972  13.926  21.097  0.00  0.00    +0.000 A 
ATOM     21  O   UNL     1       2.057  13.041  20.630  0.00  0.00    +0.000 OA
ENDBRANCH  16  17
ENDBRANCH   3  16
BRANCH   3  22
ATOM     22  C   UNL     1      -0.270  10.337  19.441  0.00  0.00    +0.000 C 
BRANCH  22  23
ATOM     23  C   UNL     1      -1.498  10.460  18.542  0.00  0.00    +0.000 A 
ATOM     24  C   UNL     1      -2.520  11.373  18.844  0.00  0.00    +0.000 A 
ATOM     25  C   UNL     1      -3.545  11.561  17.926  0.00  0.00    +0.000 A 
ATOM     26  N   UNL     1      -3.638  10.897  16.757  0.00  0.00    +0.000 NA
ATOM     27  C   UNL     1      -2.648  10.028  16.476  0.00  0.00    +0.000 A 
ATOM     28  C   UNL     1      -1.578   9.780  17.321  0.00  0.00    +0.000 A 
ENDBRANCH  22  23
BRANCH  22  29
ATOM     29  C   UNL     1      -0.629  10.692  20.925  0.00  0.00    +0.000 C 
ATOM     30  O   UNL     1      -0.530   9.879  21.836  0.00  0.00    +0.000 OA
ATOM     31  N   UNL     1      -0.920  12.018  21.157  0.00  0.00    +0.000 N 
ATOM     32  H   UNL     1      -0.792  12.680  20.400  0.00  0.00    +0.000 HD
BRANCH  31  33
ATOM     33  C   UNL     1      -1.105  12.509  22.508  0.00  0.00    +0.000 C 
ATOM     34  C   UNL     1      -0.624  13.944  22.649  0.00  0.00    +0.000 C 
ATOM     35  C   UNL     1      -1.318  14.458  23.902  0.00  0.00    +0.000 C 
ATOM     36  C   UNL     1      -2.608  13.652  24.033  0.00  0.00    +0.000 C 
ATOM     37  C   UNL     1      -2.572  12.591  22.937  0.00  0.00    +0.000 C 
ENDBRANCH  31  33
ENDBRANCH  22  29
ENDBRANCH   3  22
TORSDOF 10
ENDMDL
MODEL 2
REMARK VINA RESULT:      -7.4      1.822      4.835
REMARK  Name = 
REMARK  10 active torsions:
REMARK  status: ('A' for Active; 'I' for Inactive)
REMARK    1  A    between atoms: C_2  and  C_3
REMARK    2  A    between atoms: C_3  and  C_4
REMARK    3  A    between atoms: C_4  and  C_5
REMARK    4  A    between atoms: N_7  and  C_8
REMARK    5  A    between atoms: N_7  and  C_14
REMARK    6  A    between atoms: C_8  and  C_9
REMARK    7  A    between atoms: C_14  and  C_15
REMARK    8  A    between atoms: C_14  and  C_23
REMARK    9  A    between atoms: N_17  and  C_18
REMARK   10  A    between atoms: N_29  and  C_30
REMARK                            x       y       z     vdW  Elec       q    Type
REMARK                         _______ _______ _______ _____ _____    ______ ____
ROOT
ATOM      1  C   UNL     1       1.377   9.087  19.677  0.00  0.00    +0.000 C 
ATOM      2  O   UNL     1       1.586   8.283  20.588  0.00  0.00    +0.000 OA
ATOM      3  N   UNL     1       0.988  10.431  19.887  0.00  0.00    +0.000 N 
ENDROOT
BRANCH   1   4
ATOM      4  C   UNL     1       1.528   8.631  18.229  0.00  0.00    +0.000 C 
BRANCH   4   5
ATOM      5  C   UNL     1       2.926   8.175  17.821  0.00  0.00    +0.000 C 
BRANCH   5   7
ATOM      6  O   UNL     1       4.274   6.286  18.336  0.00  0.00    +0.000 OA
ATOM      7  C   UNL     1       3.136   6.719  18.173  0.00  0.00    +0.000 C 
ATOM      8  N   UNL     1       1.967   5.987  18.217  0.00  0.00    +0.000 N 
ATOM      9  H   UNL     1       1.159   6.398  17.751  0.00  0.00    +0.000 HD
BRANCH   8  10
ATOM     10  C   UNL     1       1.876   4.627  18.584  0.00  0.00    +0.000 A 
ATOM     11  C   UNL     1       1.451   4.196  19.838  0.00  0.00    +0.000 A 
ATOM     12  C   UNL     1       1.471   2.838  20.154  0.00  0.00    +0.000 A 
ATOM     13  C   UNL     1       1.890   1.946  19.183  0.00  0.00    +0.000 A 
ATOM     14  N   UNL     1       2.255   2.314  17.935  0.00  0.00    +0.000 NA
ATOM     15  C   UNL     1       2.229   3.643  17.663  0.00  0.00    +0.000 A 
ENDBRANCH   8  10
ENDBRANCH   5   7
ENDBRANCH   4   5
ENDBRANCH   1   4
BRANCH   3  16
ATOM     16  C   UNL     1       0.973  10.942  21.272  0.00  0.00    +0.000 C 
BRANCH  16  17
ATOM     17  C   UNL     1      -0.359  11.386  21.780  0.00  0.00    +0.000 A 
ATOM     18  C   UNL     1      -1.460  12.028  21.251  0.00  0.00    +0.000 A 
ATOM     19  C   UNL     1      -2.443  12.050  22.275  0.00  0.00    +0.000 A 
ATOM     20  C   UNL     1      -1.851  11.506  23.388  0.00  0.00    +0.000 A 
ATOM     21  O   UNL     1      -0.582  11.121  23.105  0.00  0.00    +0.000 OA
ENDBRANCH  16  17
ENDBRANCH   3  16
BRANCH   3  22
ATOM     22  C   UNL     1       1.108  11.459  18.804  0.00  0.00    +0.000 C 
BRANCH  22  23
ATOM     23  C   UNL     1       2.090  12.583  19.129  0.00  0.00    +0.000 A 
ATOM     24  C   UNL     1       2.954  13.087  18.146  0.00  0.00    +0.000 A 
ATOM     25  C   UNL     1       3.724  14.205  18.439  0.00  0.00    +0.000 A 
ATOM     26  N   UNL     1       3.714  14.833  19.631  0.00  0.00    +0.000 NA
ATOM     27  C   UNL     1       2.876  14.343  20.565  0.00  0.00    +0.000 A 
ATOM     28  C   UNL     1       2.060  13.241  20.365  0.00  0.00    +0.000 A 
ENDBRANCH  22  23
BRANCH  22  29
ATOM     29  C   UNL     1      -0.233  12.038  18.237  0.00  0.00    +0.000 C 
ATOM     30  O   UNL     1      -0.419  13.240  18.094  0.00  0.00    +0.000 OA
ATOM     31  N   UNL     1      -1.127  11.099  17.773  0.00  0.00    +0.000 N 
ATOM     32  H   UNL     1      -0.834  10.130  17.734  0.00  0.00    +0.000 HD
BRANCH  31  33
ATOM     33  C   UNL     1      -2.330  11.507  17.073  0.00  0.00    +0.000 C 
ATOM     34  C   UNL     1      -2.652  10.564  15.925  0.00  0.00    +0.000 C 
ATOM     35  C   UNL     1      -4.126  10.805  15.635  0.00  0.00    +0.000 C 
ATOM     36  C   UNL     1      -4.744  11.284  16.946  0.00  0.00    +0.000 C 
ATOM     37  C   UNL     1      -3.592  11.448  17.935  0.00  0.00    +0.000 C 
ENDBRANCH  31  33
ENDBRANCH  22  29
ENDBRANCH   3  22
TORSDOF 10
ENDMDL
MODEL 3
REMARK VINA RESULT:      -7.2      2.081      5.313
REMARK  Name = 
REMARK  10 active torsions:
REMARK  status: ('A' for Active; 'I' for Inactive)
REMARK    1  A    between atoms: C_2  and  C_3
REMARK    2  A    between atoms: C_3  and  C_4
REMARK    3  A    between atoms: C_4  and  C_5
REMARK    4  A    between atoms: N_7  and  C_8
REMARK    5  A    between atoms: N_7  and  C_14
REMARK    6  A    between atoms: C_8  and  C_9
REMARK    7  A    between atoms: C_14  and  C_15
REMARK    8  A    between atoms: C_14  and  C_23
REMARK    9  A    between atoms: N_17  and  C_18
REMARK   10  A    between atoms: N_29  and  C_30
REMARK                            x       y       z     vdW  Elec       q    Type
REMARK                         _______ _______ _______ _____ _____    ______ ____
ROOT
ATOM      1  C   UNL     1      -0.328  10.062  22.537  0.00  0.00    +0.000 C 
ATOM      2  O   UNL     1      -0.348   9.996  23.768  0.00  0.00    +0.000 OA
ATOM      3  N   UNL     1      -0.614  11.240  21.807  0.00  0.00    +0.000 N 
ENDROOT
BRANCH   1   4
ATOM      4  C   UNL     1       0.012   8.814  21.727  0.00  0.00    +0.000 C 
BRANCH   4   5
ATOM      5  C   UNL     1       1.497   8.484  21.613  0.00  0.00    +0.000 C 
BRANCH   5   7
ATOM      6  O   UNL     1       1.597   8.479  19.238  0.00  0.00    +0.000 OA
ATOM      7  C   UNL     1       1.802   7.852  20.273  0.00  0.00    +0.000 C 
ATOM      8  N   UNL     1       2.245   6.548  20.366  0.00  0.00    +0.000 N 
ATOM      9  H   UNL     1       2.057   6.068  21.246  0.00  0.00    +0.000 HD
BRANCH   8  10
ATOM     10  C   UNL     1       2.660   5.753  19.276  0.00  0.00    +0.000 A 
ATOM     11  C   UNL     1       1.848   4.801  18.665  0.00  0.00    +0.000 A 
ATOM     12  C   UNL     1       2.360   3.994  17.649  0.00  0.00    +0.000 A 
ATOM     13  C   UNL     1       3.671   4.190  17.255  0.00  0.00    +0.000 A 
ATOM     14  N   UNL     1       4.477   5.140  17.780  0.00  0.00    +0.000 NA
ATOM     15  C   UNL     1       3.949   5.904  18.768  0.00  0.00    +0.000 A 
ENDBRANCH   8  10
ENDBRANCH   5   7
ENDBRANCH   4   5
ENDBRANCH   1   4
BRANCH   3  16
ATOM     16  C   UNL     1      -0.804  12.495  22.559  0.00  0.00    +0.000 C 
BRANCH  16  17
ATOM     17  C   UNL     1      -2.221  12.869  22.840  0.00  0.00    +0.000 A 
ATOM     18  C   UNL     1      -3.265  12.331  23.566  0.00  0.00    +0.000 A 
ATOM     19  C   UNL     1      -4.331  13.265  23.491  0.00  0.00    +0.000 A 
ATOM     20  C   UNL     1      -3.907  14.267  22.652  0.00  0.00    +0.000 A 
ATOM     21  O   UNL     1      -2.639  14.025  22.236  0.00  0.00    +0.000 OA
ENDBRANCH  16  17
ENDBRANCH   3  16
BRANCH   3  22
ATOM     22  C   UNL     1      -0.220  11.383  20.369  0.00  0.00    +0.000 C 
BRANCH  22  23
ATOM     23  C   UNL     1       0.512  12.688  20.059  0.00  0.00    +0.000 A 
ATOM     24  C   UNL     1       1.880  12.826  20.338  0.00  0.00    +0.000 A 
ATOM     25  C   UNL     1       2.540  13.970  19.906  0.00  0.00    +0.000 A 
ATOM     26  N   UNL     1       1.940  14.982  19.249  0.00  0.00    +0.000 NA
ATOM     27  C   UNL     1       0.627  14.833  18.983  0.00  0.00    +0.000 A 
ATOM     28  C   UNL     1      -0.115  13.726  19.360  0.00  0.00    +0.000 A 
ENDBRANCH  22  23
BRANCH  22  29
ATOM     29  C   UNL     1      -1.338  11.107  19.306  0.00  0.00    +0.000 C 
ATOM     30  O   UNL     1      -2.414  11.692  19.319  0.00  0.00    +0.000 OA
ATOM     31  N   UNL     1      -0.971  10.273  18.273  0.00  0.00    +0.000 N 
ATOM     32  H   UNL     1      -0.004   9.978  18.210  0.00  0.00    +0.000 HD
BRANCH  31  33
ATOM     33  C   UNL     1      -1.853  10.069  17.140  0.00  0.00    +0.000 C 
ATOM     34  C   UNL     1      -3.217   9.562  17.581  0.00  0.00    +0.000 C 
ATOM     35  C   UNL     1      -4.136   9.874  16.410  0.00  0.00    +0.000 C 
ATOM     36  C   UNL     1      -3.525  11.079  15.700  0.00  0.00    +0.000 C 
ATOM     37  C   UNL     1      -2.190  11.355  16.384  0.00  0.00    +0.000 C 
ENDBRANCH  31  33
ENDBRANCH  22  29
ENDBRANCH   3  22
TORSDOF 10
ENDMDL
MODEL 4
REMARK VINA RESULT:      -7.1      2.275      5.102
REMARK  Name = 
REMARK  10 active torsions:
REMARK  status: ('A' for Active; 'I' for Inactive)
REMARK    1  A    between atoms: C_2  and  C_3
REMARK    2  A    between atoms: C_3  and  C_4
REMARK    3  A    between atoms: C_4  and  C_5
REMARK    4  A    between atoms: N_7  and  C_8
REMARK    5  A    between atoms: N_7  and  C_14
REMARK    6  A    between atoms: C_8  and  C_9
REMARK    7  A    between atoms: C_14  and  C_15
REMARK    8  A    between atoms: C_14  and  C_23
REMARK    9  A    between atoms: N_17  and  C_18
REMARK   10  A    between atoms: N_29  and  C_30
REMARK                            x       y       z     vdW  Elec       q    Type
REMARK                         _______ _______ _______ _____ _____    ______ ____
ROOT
ATOM      1  C   UNL     1      -0.263  10.282  22.447  0.00  0.00    +0.000 C 
ATOM      2  O   UNL     1       0.071  10.094  23.619  0.00  0.00    +0.000 OA
ATOM      3  N   UNL     1      -0.914  11.453  21.992  0.00  0.00    +0.000 N 
ENDROOT
BRANCH   1   4
ATOM      4  C   UNL     1       0.019   9.201  21.408  0.00  0.00    +0.000 C 
BRANCH   4   5
ATOM      5  C   UNL     1       1.294   8.391  21.626  0.00  0.00    +0.000 C 
BRANCH   5   7
ATOM      6  O   UNL     1       1.702   8.412  19.285  0.00  0.00    +0.000 OA
ATOM      7  C   UNL     1       1.760   7.769  20.329  0.00  0.00    +0.000 C 
ATOM      8  N   UNL     1       2.165   6.456  20.460  0.00  0.00    +0.000 N 
ATOM      9  H   UNL     1       1.855   5.970  21.301  0.00  0.00    +0.000 HD
BRANCH   8  10
ATOM     10  C   UNL     1       2.705   5.667  19.422  0.00  0.00    +0.000 A 
ATOM     11  C   UNL     1       1.926   4.947  18.518  0.00  0.00    +0.000 A 
ATOM     12  C   UNL     1       2.536   4.121  17.574  0.00  0.00    +0.000 A 
ATOM     13  C   UNL     1       3.918   4.065  17.548  0.00  0.00    +0.000 A 
ATOM     14  N   UNL     1       4.713   4.789  18.366  0.00  0.00    +0.000 NA
ATOM     15  C   UNL     1       4.088   5.579  19.275  0.00  0.00    +0.000 A 
ENDBRANCH   8  10
ENDBRANCH   5   7
ENDBRANCH   4   5
ENDBRANCH   1   4
BRANCH   3  16
ATOM     16  C   UNL     1      -1.071  12.574  22.939  0.00  0.00    +0.000 C 
BRANCH  16  17
ATOM     17  C   UNL     1      -2.476  12.901  23.323  0.00  0.00    +0.000 A 
ATOM     18  C   UNL     1      -3.248  14.043  23.387  0.00  0.00    +0.000 A 
ATOM     19  C   UNL     1      -4.556  13.626  23.744  0.00  0.00    +0.000 A 
ATOM     20  C   UNL     1      -4.482  12.273  23.964  0.00  0.00    +0.000 A 
ATOM     21  O   UNL     1      -3.222  11.827  23.733  0.00  0.00    +0.000 OA
ENDBRANCH  16  17
ENDBRANCH   3  16
BRANCH   3  22
ATOM     22  C   UNL     1      -0.962  11.805  20.537  0.00  0.00    +0.000 C 
BRANCH  22  23
ATOM     23  C   UNL     1       0.319  12.454  20.018  0.00  0.00    +0.000 A 
ATOM     24  C   UNL     1       1.053  13.337  20.824  0.00  0.00    +0.000 A 
ATOM     25  C   UNL     1       2.287  13.790  20.374  0.00  0.00    +0.000 A 
ATOM     26  N   UNL     1       2.823  13.451  19.185  0.00  0.00    +0.000 NA
ATOM     27  C   UNL     1       2.110  12.598  18.423  0.00  0.00    +0.000 A 
ATOM     28  C   UNL     1       0.878  12.083  18.790  0.00  0.00    +0.000 A 
ENDBRANCH  22  23
BRANCH  22  29
ATOM     29  C   UNL     1      -2.224  12.597  20.050  0.00  0.00    +0.000 C 
ATOM     30  O   UNL     1      -2.202  13.805  19.848  0.00  0.00    +0.000 OA
ATOM     31  N   UNL     1      -3.314  11.821  19.725  0.00  0.00    +0.000 N 
ATOM     32  H   UNL     1      -3.207  10.813  19.724  0.00  0.00    +0.000 HD
BRANCH  31  33
ATOM     33  C   UNL     1      -4.484  12.412  19.106  0.00  0.00    +0.000 C 
ATOM     34  C   UNL     1      -5.096  11.482  18.071  0.00  0.00    +0.000 C 
ATOM     35  C   UNL     1      -6.520  11.989  17.897  0.00  0.00    +0.000 C 
ATOM     36  C   UNL     1      -6.896  12.659  19.216  0.00  0.00    +0.000 C 
ATOM     37  C   UNL     1      -5.639  12.654  20.080  0.00  0.00    +0.000 C 
ENDBRANCH  31  33
ENDBRANCH  22  29
ENDBRANCH   3  22
TORSDOF 10
ENDMDL
MODEL 5
REMARK VINA RESULT:      -7.1      2.004      4.989
REMARK  Name = 
REMARK  10 active torsions:
REMARK  status: ('A' for Active; 'I' for Inactive)
REMARK    1  A    between atoms: C_2  and  C_3
REMARK    2  A    between atoms: C_3  and  C_4
REMARK    3  A    between atoms: C_4  and  C_5
REMARK    4  A    between atoms: N_7  and  C_8
REMARK    5  A    between atoms: N_7  and  C_14
REMARK    6  A    between atoms: C_8  and  C_9
REMARK    7  A    between atoms: C_14  and  C_15
REMARK    8  A    between atoms: C_14  and  C_23
REMARK    9  A    between atoms: N_17  and  C_18
REMARK   10  A    between atoms: N_29  and  C_30
REMARK                            x       y       z     vdW  Elec       q    Type
REMARK                         _______ _______ _______ _____ _____    ______ ____
ROOT
ATOM      1  C   UNL     1       0.714  10.118  21.520  0.00  0.00    +0.000 C 
ATOM      2  O   UNL     1       0.843   9.931  22.731  0.00  0.00    +0.000 OA
ATOM      3  N   UNL     1       0.116  11.271  20.960  0.00  0.00    +0.000 N 
ENDROOT
BRANCH   1   4
ATOM      4  C   UNL     1       1.211   9.054  20.544  0.00  0.00    +0.000 C 
BRANCH   4   5
ATOM      5  C   UNL     1       1.271   7.631  21.091  0.00  0.00    +0.000 C 
BRANCH   5   7
ATOM      6  O   UNL     1       2.572   7.169  19.157  0.00  0.00    +0.000 OA
ATOM      7  C   UNL     1       1.936   6.705  20.098  0.00  0.00    +0.000 C 
ATOM      8  N   UNL     1       1.689   5.368  20.341  0.00  0.00    +0.000 N 
ATOM      9  H   UNL     1       0.897   5.157  20.947  0.00  0.00    +0.000 HD
BRANCH   8  10
ATOM     10  C   UNL     1       2.242   4.296  19.607  0.00  0.00    +0.000 A 
ATOM     11  C   UNL     1       1.718   3.840  18.399  0.00  0.00    +0.000 A 
ATOM     12  C   UNL     1       2.269   2.719  17.778  0.00  0.00    +0.000 A 
ATOM     13  C   UNL     1       3.354   2.106  18.377  0.00  0.00    +0.000 A 
ATOM     14  N   UNL     1       3.931   2.548  19.516  0.00  0.00    +0.000 NA
ATOM     15  C   UNL     1       3.368   3.637  20.096  0.00  0.00    +0.000 A 
ENDBRANCH   8  10
ENDBRANCH   5   7
ENDBRANCH   4   5
ENDBRANCH   1   4
BRANCH   3  16
ATOM     16  C   UNL     1      -0.243  12.378  21.866  0.00  0.00    +0.000 C 
BRANCH  16  17
ATOM     17  C   UNL     1      -1.700  12.528  22.156  0.00  0.00    +0.000 A 
ATOM     18  C   UNL     1      -2.820  12.907  21.444  0.00  0.00    +0.000 A 
ATOM     19  C   UNL     1      -3.928  12.729  22.312  0.00  0.00    +0.000 A 
ATOM     20  C   UNL     1      -3.409  12.342  23.524  0.00  0.00    +0.000 A 
ATOM     21  O   UNL     1      -2.059  12.239  23.446  0.00  0.00    +0.000 OA
ENDBRANCH  16  17
ENDBRANCH   3  16
BRANCH   3  22
ATOM     22  C   UNL     1       0.312  11.632  19.520  0.00  0.00    +0.000 C 
BRANCH  22  23
ATOM     23  C   UNL     1       1.112  12.918  19.312  0.00  0.00    +0.000 A 
ATOM     24  C   UNL     1       2.413  12.876  18.790  0.00  0.00    +0.000 A 
ATOM     25  C   UNL     1       3.049  14.071  18.477  0.00  0.00    +0.000 A 
ATOM     26  N   UNL     1       2.500  15.287  18.667  0.00  0.00    +0.000 NA
ATOM     27  C   UNL     1       1.247  15.312  19.163  0.00  0.00    +0.000 A 
ATOM     28  C   UNL     1       0.526  14.176  19.494  0.00  0.00    +0.000 A 
ENDBRANCH  22  23
BRANCH  22  29
ATOM     29  C   UNL     1      -0.967  11.620  18.614  0.00  0.00    +0.000 C 
ATOM     30  O   UNL     1      -1.186  12.488  17.778  0.00  0.00    +0.000 OA
ATOM     31  N   UNL     1      -1.749  10.492  18.719  0.00  0.00    +0.000 N 
ATOM     32  H   UNL     1      -1.410   9.719  19.281  0.00  0.00    +0.000 HD
BRANCH  31  33
ATOM     33  C   UNL     1      -2.865  10.280  17.819  0.00  0.00    +0.000 C 
ATOM     34  C   UNL     1      -3.818  11.465  17.826  0.00  0.00    +0.000 C 
ATOM     35  C   UNL     1      -4.605  11.330  16.531  0.00  0.00    +0.000 C 
ATOM     36  C   UNL     1      -3.697  10.582  15.559  0.00  0.00    +0.000 C 
ATOM     37  C   UNL     1      -2.457  10.173  16.349  0.00  0.00    +0.000 C 
ENDBRANCH  31  33
ENDBRANCH  22  29
ENDBRANCH   3  22
TORSDOF 10
ENDMDL
MODEL 6
REMARK VINA RESULT:      -7.1      2.214      5.385
REMARK  Name = 
REMARK  10 active torsions:
REMARK  status: ('A' for Active; 'I' for Inactive)
REMARK    1  A    between atoms: C_2  and  C_3
REMARK    2  A    between atoms: C_3  and  C_4
REMARK    3  A    between atoms: C_4  and  C_5
REMARK    4  A    between atoms: N_7  and  C_8
REMARK    5  A    between atoms: N_7  and  C_14
REMARK    6  A    between atoms: C_8  and  C_9
REMARK    7  A    between atoms: C_14  and  C_15
REMARK    8  A    between atoms: C_14  and  C_23
REMARK    9  A    between atoms: N_17  and  C_18
REMARK   10  A    between atoms: N_29  and  C_30
REMARK                            x       y       z     vdW  Elec       q    Type
REMARK                         _______ _______ _______ _____ _____    ______ ____
ROOT
ATOM      1  C   UNL     1       0.208  10.710  22.038  0.00  0.00    +0.000 C 
ATOM      2  O   UNL     1      -0.005  10.227  23.152  0.00  0.00    +0.000 OA
ATOM      3  N   UNL     1      -0.263  11.979  21.627  0.00  0.00    +0.000 N 
ENDROOT
BRANCH   1   4
ATOM      4  C   UNL     1       1.014   9.910  21.019  0.00  0.00    +0.000 C 
BRANCH   4   5
ATOM      5  C   UNL     1       1.265   8.448  21.375  0.00  0.00    +0.000 C 
BRANCH   5   7
ATOM      6  O   UNL     1       1.996   8.277  19.120  0.00  0.00    +0.000 OA
ATOM      7  C   UNL     1       1.840   7.701  20.193  0.00  0.00    +0.000 C 
ATOM      8  N   UNL     1       2.082   6.366  20.448  0.00  0.00    +0.000 N 
ATOM      9  H   UNL     1       1.610   5.968  21.259  0.00  0.00    +0.000 HD
BRANCH   8  10
ATOM     10  C   UNL     1       2.676   5.462  19.541  0.00  0.00    +0.000 A 
ATOM     11  C   UNL     1       1.947   4.667  18.659  0.00  0.00    +0.000 A 
ATOM     12  C   UNL     1       2.602   3.735  17.854  0.00  0.00    +0.000 A 
ATOM     13  C   UNL     1       3.979   3.650  17.939  0.00  0.00    +0.000 A 
ATOM     14  N   UNL     1       4.732   4.440  18.737  0.00  0.00    +0.000 NA
ATOM     15  C   UNL     1       4.063   5.333  19.509  0.00  0.00    +0.000 A 
ENDBRANCH   8  10
ENDBRANCH   5   7
ENDBRANCH   4   5
ENDBRANCH   1   4
BRANCH   3  16
ATOM     16  C   UNL     1      -0.921  12.836  22.633  0.00  0.00    +0.000 C 
BRANCH  16  17
ATOM     17  C   UNL     1      -2.314  13.259  22.308  0.00  0.00    +0.000 A 
ATOM     18  C   UNL     1      -2.942  14.444  21.984  0.00  0.00    +0.000 A 
ATOM     19  C   UNL     1      -4.292  14.119  21.693  0.00  0.00    +0.000 A 
ATOM     20  C   UNL     1      -4.427  12.775  21.946  0.00  0.00    +0.000 A 
ATOM     21  O   UNL     1      -3.241  12.250  22.340  0.00  0.00    +0.000 OA
ENDBRANCH  16  17
ENDBRANCH   3  16
BRANCH   3  22
ATOM     22  C   UNL     1       0.317  12.681  20.438  0.00  0.00    +0.000 C 
BRANCH  22  23
ATOM     23  C   UNL     1       0.920  14.046  20.764  0.00  0.00    +0.000 A 
ATOM     24  C   UNL     1       2.262  14.162  21.155  0.00  0.00    +0.000 A 
ATOM     25  C   UNL     1       2.813  15.430  21.297  0.00  0.00    +0.000 A 
ATOM     26  N   UNL     1       2.125  16.573  21.106  0.00  0.00    +0.000 NA
ATOM     27  C   UNL     1       0.839  16.447  20.725  0.00  0.00    +0.000 A 
ATOM     28  C   UNL     1       0.205  15.229  20.545  0.00  0.00    +0.000 A 
ENDBRANCH  22  23
BRANCH  22  29
ATOM     29  C   UNL     1      -0.590  12.764  19.163  0.00  0.00    +0.000 C 
ATOM     30  O   UNL     1      -0.410  13.597  18.284  0.00  0.00    +0.000 OA
ATOM     31  N   UNL     1      -1.507  11.745  19.028  0.00  0.00    +0.000 N 
ATOM     32  H   UNL     1      -1.473  10.974  19.686  0.00  0.00    +0.000 HD
BRANCH  31  33
ATOM     33  C   UNL     1      -2.290  11.611  17.815  0.00  0.00    +0.000 C 
ATOM     34  C   UNL     1      -2.070  10.258  17.157  0.00  0.00    +0.000 C 
ATOM     35  C   UNL     1      -3.273  10.077  16.245  0.00  0.00    +0.000 C 
ATOM     36  C   UNL     1      -4.405  10.888  16.870  0.00  0.00    +0.000 C 
ATOM     37  C   UNL     1      -3.801  11.638  18.053  0.00  0.00    +0.000 C 
ENDBRANCH  31  33
ENDBRANCH  22  29
ENDBRANCH   3  22
TORSDOF 10
ENDMDL
MODEL 7
REMARK VINA RESULT:      -7.1      2.111      5.461
REMARK  Name = 
REMARK  10 active torsions:
REMARK  status: ('A' for Active; 'I' for Inactive)
REMARK    1  A    between atoms: C_2  and  C_3
REMARK    2  A    between atoms: C_3  and  C_4
REMARK    3  A    between atoms: C_4  and  C_5
REMARK    4  A    between atoms: N_7  and  C_8
REMARK    5  A    between atoms: N_7  and  C_14
REMARK    6  A    between atoms: C_8  and  C_9
REMARK    7  A    between atoms: C_14  and  C_15
REMARK    8  A    between atoms: C_14  and  C_23
REMARK    9  A    between atoms: N_17  and  C_18
REMARK   10  A    between atoms: N_29  and  C_30
REMARK                            x       y       z     vdW  Elec       q    Type
REMARK                         _______ _______ _______ _____ _____    ______ ____
ROOT
ATOM      1  C   UNL     1      -0.251   9.998  21.862  0.00  0.00    +0.000 C 
ATOM      2  O   UNL     1      -0.531   9.460  22.935  0.00  0.00    +0.000 OA
ATOM      3  N   UNL     1      -0.514  11.358  21.571  0.00  0.00    +0.000 N 
ENDROOT
BRANCH   1   4
ATOM      4  C   UNL     1       0.406   9.171  20.761  0.00  0.00    +0.000 C 
BRANCH   4   5
ATOM      5  C   UNL     1       1.455   8.166  21.226  0.00  0.00    +0.000 C 
BRANCH   5   7
ATOM      6  O   UNL     1       2.284   7.953  19.008  0.00  0.00    +0.000 OA
ATOM      7  C   UNL     1       1.997   7.378  20.054  0.00  0.00    +0.000 C 
ATOM      8  N   UNL     1       2.057   6.019  20.284  0.00  0.00    +0.000 N 
ATOM      9  H   UNL     1       1.494   5.665  21.057  0.00  0.00    +0.000 HD
BRANCH   8  10
ATOM     10  C   UNL     1       2.583   5.067  19.384  0.00  0.00    +0.000 A 
ATOM     11  C   UNL     1       3.930   4.715  19.337  0.00  0.00    +0.000 A 
ATOM     12  C   UNL     1       4.387   3.830  18.360  0.00  0.00    +0.000 A 
ATOM     13  C   UNL     1       3.467   3.300  17.475  0.00  0.00    +0.000 A 
ATOM     14  N   UNL     1       2.143   3.568  17.520  0.00  0.00    +0.000 NA
ATOM     15  C   UNL     1       1.733   4.435  18.478  0.00  0.00    +0.000 A 
ENDBRANCH   8  10
ENDBRANCH   5   7
ENDBRANCH   4   5
ENDBRANCH   1   4
BRANCH   3  16
ATOM     16  C   UNL     1      -1.015  12.218  22.661  0.00  0.00    +0.000 C 
BRANCH  16  17
ATOM     17  C   UNL     1      -2.479  12.507  22.631  0.00  0.00    +0.000 A 
ATOM     18  C   UNL     1      -3.404  12.851  21.665  0.00  0.00    +0.000 A 
ATOM     19  C   UNL     1      -4.667  12.880  22.311  0.00  0.00    +0.000 A 
ATOM     20  C   UNL     1      -4.425  12.645  23.642  0.00  0.00    +0.000 A 
ATOM     21  O   UNL     1      -3.100  12.440  23.850  0.00  0.00    +0.000 OA
ENDBRANCH  16  17
ENDBRANCH   3  16
BRANCH   3  22
ATOM     22  C   UNL     1       0.164  12.058  20.434  0.00  0.00    +0.000 C 
BRANCH  22  23
ATOM     23  C   UNL     1       0.984  13.274  20.861  0.00  0.00    +0.000 A 
ATOM     24  C   UNL     1       0.365  14.382  21.460  0.00  0.00    +0.000 A 
ATOM     25  C   UNL     1       1.160  15.401  21.968  0.00  0.00    +0.000 A 
ATOM     26  N   UNL     1       2.506  15.408  21.902  0.00  0.00    +0.000 NA
ATOM     27  C   UNL     1       3.088  14.336  21.330  0.00  0.00    +0.000 A 
ATOM     28  C   UNL     1       2.382  13.265  20.805  0.00  0.00    +0.000 A 
ENDBRANCH  22  23
BRANCH  22  29
ATOM     29  C   UNL     1      -0.728  12.398  19.190  0.00  0.00    +0.000 C 
ATOM     30  O   UNL     1      -0.565  13.414  18.525  0.00  0.00    +0.000 OA
ATOM     31  N   UNL     1      -1.607  11.408  18.811  0.00  0.00    +0.000 N 
ATOM     32  H   UNL     1      -1.556  10.511  19.279  0.00  0.00    +0.000 HD
BRANCH  31  33
ATOM     33  C   UNL     1      -2.368  11.527  17.583  0.00  0.00    +0.000 C 
ATOM     34  C   UNL     1      -2.215  10.290  16.712  0.00  0.00    +0.000 C 
ATOM     35  C   UNL     1      -3.406  10.339  15.767  0.00  0.00    +0.000 C 
ATOM     36  C   UNL     1      -4.501  11.107  16.503  0.00  0.00    +0.000 C 
ATOM     37  C   UNL     1      -3.879  11.611  17.802  0.00  0.00    +0.000 C 
ENDBRANCH  31  33
ENDBRANCH  22  29
ENDBRANCH   3  22
TORSDOF 10
ENDMDL
MODEL 8
REMARK VINA RESULT:      -6.9      1.871      4.780
REMARK  Name = 
REMARK  10 active torsions:
REMARK  status: ('A' for Active; 'I' for Inactive)
REMARK    1  A    between atoms: C_2  and  C_3
REMARK    2  A    between atoms: C_3  and  C_4
REMARK    3  A    between atoms: C_4  and  C_5
REMARK    4  A    between atoms: N_7  and  C_8
REMARK    5  A    between atoms: N_7  and  C_14
REMARK    6  A    between atoms: C_8  and  C_9
REMARK    7  A    between atoms: C_14  and  C_15
REMARK    8  A    between atoms: C_14  and  C_23
REMARK    9  A    between atoms: N_17  and  C_18
REMARK   10  A    between atoms: N_29  and  C_30
REMARK                            x       y       z     vdW  Elec       q    Type
REMARK                         _______ _______ _______ _____ _____    ______ ____
ROOT
ATOM      1  C   UNL     1       0.635   9.322  17.873  0.00  0.00    +0.000 C 
ATOM      2  O   UNL     1       0.185   8.296  17.359  0.00  0.00    +0.000 OA
ATOM      3  N   UNL     1      -0.170  10.345  18.426  0.00  0.00    +0.000 N 
ENDROOT
BRANCH   1   4
ATOM      4  C   UNL     1       2.146   9.532  17.918  0.00  0.00    +0.000 C 
BRANCH   4   5
ATOM      5  C   UNL     1       2.995   8.290  17.662  0.00  0.00    +0.000 C 
BRANCH   5   7
ATOM      6  O   UNL     1       2.311   7.469  19.785  0.00  0.00    +0.000 OA
ATOM      7  C   UNL     1       2.637   7.189  18.635  0.00  0.00    +0.000 C 
ATOM      8  N   UNL     1       2.783   5.921  18.111  0.00  0.00    +0.000 N 
ATOM      9  H   UNL     1       3.360   5.841  17.274  0.00  0.00    +0.000 HD
BRANCH   8  10
ATOM     10  C   UNL     1       2.455   4.723  18.783  0.00  0.00    +0.000 A 
ATOM     11  C   UNL     1       1.293   3.996  18.536  0.00  0.00    +0.000 A 
ATOM     12  C   UNL     1       0.998   2.869  19.302  0.00  0.00    +0.000 A 
ATOM     13  C   UNL     1       1.899   2.487  20.280  0.00  0.00    +0.000 A 
ATOM     14  N   UNL     1       3.065   3.129  20.516  0.00  0.00    +0.000 NA
ATOM     15  C   UNL     1       3.319   4.223  19.755  0.00  0.00    +0.000 A 
ENDBRANCH   8  10
ENDBRANCH   5   7
ENDBRANCH   4   5
ENDBRANCH   1   4
BRANCH   3  16
ATOM     16  C   UNL     1      -1.623  10.108  18.527  0.00  0.00    +0.000 C 
BRANCH  16  17
ATOM     17  C   UNL     1      -2.417  10.442  17.308  0.00  0.00    +0.000 A 
ATOM     18  C   UNL     1      -2.404  10.065  15.980  0.00  0.00    +0.000 A 
ATOM     19  C   UNL     1      -3.518  10.698  15.371  0.00  0.00    +0.000 A 
ATOM     20  C   UNL     1      -4.086  11.491  16.338  0.00  0.00    +0.000 A 
ATOM     21  O   UNL     1      -3.414  11.360  17.508  0.00  0.00    +0.000 OA
ENDBRANCH  16  17
ENDBRANCH   3  16
BRANCH   3  22
ATOM     22  C   UNL     1       0.399  11.370  19.357  0.00  0.00    +0.000 C 
BRANCH  22  23
ATOM     23  C   UNL     1      -0.237  11.359  20.747  0.00  0.00    +0.000 A 
ATOM     24  C   UNL     1      -0.098  10.247  21.590  0.00  0.00    +0.000 A 
ATOM     25  C   UNL     1      -0.561  10.334  22.897  0.00  0.00    +0.000 A 
ATOM     26  N   UNL     1      -1.167  11.424  23.409  0.00  0.00    +0.000 NA
ATOM     27  C   UNL     1      -1.288  12.487  22.590  0.00  0.00    +0.000 A 
ATOM     28  C   UNL     1      -0.847  12.502  21.276  0.00  0.00    +0.000 A 
ENDBRANCH  22  23
BRANCH  22  29
ATOM     29  C   UNL     1       0.506  12.834  18.806  0.00  0.00    +0.000 C 
ATOM     30  O   UNL     1      -0.454  13.427  18.332  0.00  0.00    +0.000 OA
ATOM     31  N   UNL     1       1.715  13.456  19.026  0.00  0.00    +0.000 N 
ATOM     32  H   UNL     1       2.404  12.984  19.600  0.00  0.00    +0.000 HD
BRANCH  31  33
ATOM     33  C   UNL     1       1.890  14.861  18.717  0.00  0.00    +0.000 C 
ATOM     34  C   UNL     1       2.116  15.684  19.975  0.00  0.00    +0.000 C 
ATOM     35  C   UNL     1       2.760  16.970  19.479  0.00  0.00    +0.000 C 
ATOM     36  C   UNL     1       3.488  16.609  18.187  0.00  0.00    +0.000 C 
ATOM     37  C   UNL     1       3.137  15.156  17.881  0.00  0.00    +0.000 C 
ENDBRANCH  31  33
ENDBRANCH  22  29
ENDBRANCH   3  22
TORSDOF 10
ENDMDL
MODEL 9
REMARK VINA RESULT:      -6.9      2.140      5.211
REMARK  Name = 
REMARK  10 active torsions:
REMARK  status: ('A' for Active; 'I' for Inactive)
REMARK    1  A    between atoms: C_2  and  C_3
REMARK    2  A    between atoms: C_3  and  C_4
REMARK    3  A    between atoms: C_4  and  C_5
REMARK    4  A    between atoms: N_7  and  C_8
REMARK    5  A    between atoms: N_7  and  C_14
REMARK    6  A    between atoms: C_8  and  C_9
REMARK    7  A    between atoms: C_14  and  C_15
REMARK    8  A    between atoms: C_14  and  C_23
REMARK    9  A    between atoms: N_17  and  C_18
REMARK   10  A    between atoms: N_29  and  C_30
REMARK                            x       y       z     vdW  Elec       q    Type
REMARK                         _______ _______ _______ _____ _____    ______ ____
ROOT
ATOM      1  C   UNL     1       0.286  10.227  21.667  0.00  0.00    +0.000 C 
ATOM      2  O   UNL     1       0.311   9.909  22.858  0.00  0.00    +0.000 OA
ATOM      3  N   UNL     1      -0.234  11.453  21.191  0.00  0.00    +0.000 N 
ENDROOT
BRANCH   1   4
ATOM      4  C   UNL     1       0.829   9.255  20.623  0.00  0.00    +0.000 C 
BRANCH   4   5
ATOM      5  C   UNL     1       1.607   8.063  21.172  0.00  0.00    +0.000 C 
BRANCH   5   7
ATOM      6  O   UNL     1       2.451   7.682  18.983  0.00  0.00    +0.000 OA
ATOM      7  C   UNL     1       2.096   7.180  20.045  0.00  0.00    +0.000 C 
ATOM      8  N   UNL     1       2.029   5.832  20.332  0.00  0.00    +0.000 N 
ATOM      9  H   UNL     1       1.423   5.564  21.107  0.00  0.00    +0.000 HD
BRANCH   8  10
ATOM     10  C   UNL     1       2.483   4.799  19.483  0.00  0.00    +0.000 A 
ATOM     11  C   UNL     1       3.809   4.376  19.428  0.00  0.00    +0.000 A 
ATOM     12  C   UNL     1       4.196   3.409  18.500  0.00  0.00    +0.000 A 
ATOM     13  C   UNL     1       3.227   2.872  17.672  0.00  0.00    +0.000 A 
ATOM     14  N   UNL     1       1.920   3.210  17.729  0.00  0.00    +0.000 NA
ATOM     15  C   UNL     1       1.579   4.157  18.640  0.00  0.00    +0.000 A 
ENDBRANCH   8  10
ENDBRANCH   5   7
ENDBRANCH   4   5
ENDBRANCH   1   4
BRANCH   3  16
ATOM     16  C   UNL     1      -0.634  12.471  22.182  0.00  0.00    +0.000 C 
BRANCH  16  17
ATOM     17  C   UNL     1      -2.099  12.570  22.448  0.00  0.00    +0.000 A 
ATOM     18  C   UNL     1      -2.904  12.614  23.569  0.00  0.00    +0.000 A 
ATOM     19  C   UNL     1      -4.230  12.816  23.105  0.00  0.00    +0.000 A 
ATOM     20  C   UNL     1      -4.165  12.790  21.733  0.00  0.00    +0.000 A 
ATOM     21  O   UNL     1      -2.883  12.620  21.326  0.00  0.00    +0.000 OA
ENDBRANCH  16  17
ENDBRANCH   3  16
BRANCH   3  22
ATOM     22  C   UNL     1       0.088  11.958  19.818  0.00  0.00    +0.000 C 
BRANCH  22  23
ATOM     23  C   UNL     1       0.663  13.373  19.802  0.00  0.00    +0.000 A 
ATOM     24  C   UNL     1       2.050  13.583  19.806  0.00  0.00    +0.000 A 
ATOM     25  C   UNL     1       2.533  14.876  19.640  0.00  0.00    +0.000 A 
ATOM     26  N   UNL     1       1.745  15.960  19.499  0.00  0.00    +0.000 NA
ATOM     27  C   UNL     1       0.415  15.743  19.492  0.00  0.00    +0.000 A 
ATOM     28  C   UNL     1      -0.162  14.492  19.637  0.00  0.00    +0.000 A 
ENDBRANCH  22  23
BRANCH  22  29
ATOM     29  C   UNL     1      -1.034  11.801  18.734  0.00  0.00    +0.000 C 
ATOM     30  O   UNL     1      -1.064  12.486  17.719  0.00  0.00    +0.000 OA
ATOM     31  N   UNL     1      -1.893  10.743  18.929  0.00  0.00    +0.000 N 
ATOM     32  H   UNL     1      -1.696  10.092  19.680  0.00  0.00    +0.000 HD
BRANCH  31  33
ATOM     33  C   UNL     1      -2.867  10.387  17.916  0.00  0.00    +0.000 C 
ATOM     34  C   UNL     1      -3.814  11.540  17.625  0.00  0.00    +0.000 C 
ATOM     35  C   UNL     1      -4.406  11.214  16.262  0.00  0.00    +0.000 C 
ATOM     36  C   UNL     1      -3.365  10.362  15.541  0.00  0.00    +0.000 C 
ATOM     37  C   UNL     1      -2.251  10.091  16.548  0.00  0.00    +0.000 C 
ENDBRANCH  31  33
ENDBRANCH  22  29
ENDBRANCH   3  22
TORSDOF 10
ENDMDL
