MODEL 1
REMARK VINA RESULT:      -6.5      0.000      0.000
REMARK  Name = 
REMARK  3 active torsions:
REMARK  status: ('A' for Active; 'I' for Inactive)
REMARK    1  A    between atoms: C_1  and  C_2
REMARK    2  A    between atoms: C_2  and  N_3
REMARK    3  A    between atoms: C_13  and  C_15
REMARK                            x       y       z     vdW  Elec       q    Type
REMARK                         _______ _______ _______ _____ _____    ______ ____
ROOT
ATOM      1  N   UNL     1       2.980   2.048  19.125  0.00  0.00    +0.000 NA
ATOM      2  C   UNL     1       2.858   2.294  17.688  0.00  0.00    +0.000 C 
ATOM      3  C   UNL     1       3.371   3.679  17.284  0.00  0.00    +0.000 C 
ATOM      4  C   UNL     1       2.722   4.827  18.050  0.00  0.00    +0.000 C 
ATOM      5  C   UNL     1       2.674   4.518  19.571  0.00  0.00    +0.000 C 
ATOM      6  C   UNL     1       2.203   3.076  19.841  0.00  0.00    +0.000 C 
ATOM      7  O   UNL     1       1.773   5.431  20.221  0.00  0.00    +0.000 OA
ATOM      8  C   UNL     1       2.244   6.779  20.096  0.00  0.00    +0.000 C 
ATOM      9  C   UNL     1       2.367   7.194  18.620  0.00  0.00    +0.000 C 
ATOM     10  N   UNL     1       3.197   6.243  17.847  0.00  0.00    +0.000 N 
ATOM     11  C   UNL     1       4.364   6.797  17.281  0.00  0.00    +0.000 C 
ATOM     12  O   UNL     1       4.655   7.990  17.412  0.00  0.00    +0.000 OA
ENDROOT
BRANCH  11  13
ATOM     13  C   UNL     1       5.353   6.015  16.515  0.00  0.00    +0.000 A 
ATOM     14  C   UNL     1       5.248   5.751  15.158  0.00  0.00    +0.000 A 
ATOM     15  C   UNL     1       6.118   4.826  14.576  0.00  0.00    +0.000 A 
ATOM     16  C   UNL     1       7.157   4.329  15.342  0.00  0.00    +0.000 A 
ATOM     17  N   UNL     1       7.394   4.717  16.615  0.00  0.00    +0.000 NA
ATOM     18  C   UNL     1       6.489   5.563  17.170  0.00  0.00    +0.000 A 
ENDBRANCH  11  13
BRANCH   1  20
ATOM     19  C   UNL     1       4.508   1.685  21.108  0.00  0.00    +0.000 C 
ATOM     20  C   UNL     1       4.366   1.973  19.618  0.00  0.00    +0.000 C 
ENDBRANCH   1  20
TORSDOF 2
ENDMDL
MODEL 2
REMARK VINA RESULT:      -6.0      0.708      1.101
REMARK  Name = 
REMARK  3 active torsions:
REMARK  status: ('A' for Active; 'I' for Inactive)
REMARK    1  A    between atoms: C_1  and  C_2
REMARK    2  A    between atoms: C_2  and  N_3
REMARK    3  A    between atoms: C_13  and  C_15
REMARK                            x       y       z     vdW  Elec       q    Type
REMARK                         _______ _______ _______ _____ _____    ______ ____
ROOT
ATOM      1  N   UNL     1       2.641   1.880  18.949  0.00  0.00    +0.000 NA
ATOM      2  C   UNL     1       2.581   2.227  17.529  0.00  0.00    +0.000 C 
ATOM      3  C   UNL     1       3.182   3.605  17.236  0.00  0.00    +0.000 C 
ATOM      4  C   UNL     1       2.572   4.734  18.059  0.00  0.00    +0.000 C 
ATOM      5  C   UNL     1       2.456   4.328  19.553  0.00  0.00    +0.000 C 
ATOM      6  C   UNL     1       1.899   2.900  19.710  0.00  0.00    +0.000 C 
ATOM      7  O   UNL     1       1.585   5.245  20.236  0.00  0.00    +0.000 OA
ATOM      8  C   UNL     1       2.132   6.569  20.218  0.00  0.00    +0.000 C 
ATOM      9  C   UNL     1       2.328   7.074  18.778  0.00  0.00    +0.000 C 
ATOM     10  N   UNL     1       3.129   6.132  17.967  0.00  0.00    +0.000 N 
ATOM     11  C   UNL     1       4.344   6.655  17.474  0.00  0.00    +0.000 C 
ATOM     12  O   UNL     1       4.695   7.817  17.695  0.00  0.00    +0.000 OA
ENDROOT
BRANCH  11  13
ATOM     13  C   UNL     1       5.313   5.871  16.688  0.00  0.00    +0.000 A 
ATOM     14  C   UNL     1       6.273   5.040  17.247  0.00  0.00    +0.000 A 
ATOM     15  C   UNL     1       7.276   4.513  16.430  0.00  0.00    +0.000 A 
ATOM     16  C   UNL     1       7.181   4.709  15.063  0.00  0.00    +0.000 A 
ATOM     17  N   UNL     1       6.150   5.355  14.475  0.00  0.00    +0.000 NA
ATOM     18  C   UNL     1       5.232   5.914  15.304  0.00  0.00    +0.000 A 
ENDBRANCH  11  13
BRANCH   1  20
ATOM     19  C   UNL     1       4.182   2.049  20.948  0.00  0.00    +0.000 C 
ATOM     20  C   UNL     1       4.004   1.694  19.477  0.00  0.00    +0.000 C 
ENDBRANCH   1  20
TORSDOF 2
ENDMDL
MODEL 3
REMARK VINA RESULT:      -5.8      1.085      4.841
REMARK  Name = 
REMARK  3 active torsions:
REMARK  status: ('A' for Active; 'I' for Inactive)
REMARK    1  A    between atoms: C_1  and  C_2
REMARK    2  A    between atoms: C_2  and  N_3
REMARK    3  A    between atoms: C_13  and  C_15
REMARK                            x       y       z     vdW  Elec       q    Type
REMARK                         _______ _______ _______ _____ _____    ______ ____
ROOT
ATOM      1  N   UNL     1       6.151   5.935  16.111  0.00  0.00    +0.000 NA
ATOM      2  C   UNL     1       6.593   5.372  17.386  0.00  0.00    +0.000 C 
ATOM      3  C   UNL     1       5.423   4.985  18.294  0.00  0.00    +0.000 C 
ATOM      4  C   UNL     1       4.443   6.123  18.558  0.00  0.00    +0.000 C 
ATOM      5  C   UNL     1       4.087   6.862  17.239  0.00  0.00    +0.000 C 
ATOM      6  C   UNL     1       5.341   7.135  16.387  0.00  0.00    +0.000 C 
ATOM      7  O   UNL     1       3.449   8.114  17.544  0.00  0.00    +0.000 OA
ATOM      8  C   UNL     1       2.212   7.896  18.232  0.00  0.00    +0.000 C 
ATOM      9  C   UNL     1       2.432   7.135  19.552  0.00  0.00    +0.000 C 
ATOM     10  N   UNL     1       3.180   5.876  19.343  0.00  0.00    +0.000 N 
ATOM     11  C   UNL     1       2.481   4.703  19.701  0.00  0.00    +0.000 C 
ATOM     12  O   UNL     1       1.338   4.736  20.166  0.00  0.00    +0.000 OA
ENDROOT
BRANCH  11  13
ATOM     13  C   UNL     1       3.023   3.343  19.528  0.00  0.00    +0.000 A 
ATOM     14  C   UNL     1       3.784   2.685  20.483  0.00  0.00    +0.000 A 
ATOM     15  C   UNL     1       4.426   1.493  20.139  0.00  0.00    +0.000 A 
ATOM     16  C   UNL     1       4.149   0.930  18.906  0.00  0.00    +0.000 A 
ATOM     17  N   UNL     1       3.263   1.455  18.031  0.00  0.00    +0.000 NA
ATOM     18  C   UNL     1       2.711   2.648  18.369  0.00  0.00    +0.000 A 
ENDBRANCH  11  13
BRANCH   1  20
ATOM     19  C   UNL     1       6.315   4.224  14.254  0.00  0.00    +0.000 C 
ATOM     20  C   UNL     1       5.436   4.989  15.237  0.00  0.00    +0.000 C 
ENDBRANCH   1  20
TORSDOF 2
ENDMDL
MODEL 4
REMARK VINA RESULT:      -5.5      1.243      4.772
REMARK  Name = 
REMARK  3 active torsions:
REMARK  status: ('A' for Active; 'I' for Inactive)
REMARK    1  A    between atoms: C_1  and  C_2
REMARK    2  A    between atoms: C_2  and  N_3
REMARK    3  A    between atoms: C_13  and  C_15
REMARK                            x       y       z     vdW  Elec       q    Type
REMARK                         _______ _______ _______ _____ _____    ______ ____
ROOT
ATOM      1  N   UNL     1       6.187   6.035  15.946  0.00  0.00    +0.000 NA
ATOM      2  C   UNL     1       6.726   5.523  17.206  0.00  0.00    +0.000 C 
ATOM      3  C   UNL     1       5.629   5.053  18.165  0.00  0.00    +0.000 C 
ATOM      4  C   UNL     1       4.571   6.110  18.461  0.00  0.00    +0.000 C 
ATOM      5  C   UNL     1       4.103   6.803  17.153  0.00  0.00    +0.000 C 
ATOM      6  C   UNL     1       5.294   7.168  16.248  0.00  0.00    +0.000 C 
ATOM      7  O   UNL     1       3.379   8.003  17.475  0.00  0.00    +0.000 OA
ATOM      8  C   UNL     1       2.192   7.693  18.216  0.00  0.00    +0.000 C 
ATOM      9  C   UNL     1       2.527   6.966  19.531  0.00  0.00    +0.000 C 
ATOM     10  N   UNL     1       3.366   5.769  19.300  0.00  0.00    +0.000 N 
ATOM     11  C   UNL     1       2.781   4.548  19.695  0.00  0.00    +0.000 C 
ATOM     12  O   UNL     1       1.659   4.493  20.208  0.00  0.00    +0.000 OA
ENDROOT
BRANCH  11  13
ATOM     13  C   UNL     1       3.424   3.234  19.510  0.00  0.00    +0.000 A 
ATOM     14  C   UNL     1       3.206   2.413  18.413  0.00  0.00    +0.000 A 
ATOM     15  C   UNL     1       3.693   1.104  18.436  0.00  0.00    +0.000 A 
ATOM     16  C   UNL     1       4.513   0.726  19.485  0.00  0.00    +0.000 A 
ATOM     17  N   UNL     1       4.896   1.568  20.470  0.00  0.00    +0.000 NA
ATOM     18  C   UNL     1       4.348   2.810  20.453  0.00  0.00    +0.000 A 
ENDBRANCH  11  13
BRANCH   1  20
ATOM     19  C   UNL     1       6.434   4.247  14.173  0.00  0.00    +0.000 C 
ATOM     20  C   UNL     1       5.517   5.024  15.110  0.00  0.00    +0.000 C 
ENDBRANCH   1  20
TORSDOF 2
ENDMDL
MODEL 5
REMARK VINA RESULT:      -5.5      9.617     11.819
REMARK  Name = 
REMARK  3 active torsions:
REMARK  status: ('A' for Active; 'I' for Inactive)
REMARK    1  A    between atoms: C_1  and  C_2
REMARK    2  A    between atoms: C_2  and  N_3
REMARK    3  A    between atoms: C_13  and  C_15
REMARK                            x       y       z     vdW  Elec       q    Type
REMARK                         _______ _______ _______ _____ _____    ______ ____
ROOT
ATOM      1  N   UNL     1       6.625  16.155  19.610  0.00  0.00    +0.000 NA
ATOM      2  C   UNL     1       6.534  14.975  18.751  0.00  0.00    +0.000 C 
ATOM      3  C   UNL     1       7.907  14.389  18.411  0.00  0.00    +0.000 C 
ATOM      4  C   UNL     1       8.871  15.394  17.788  0.00  0.00    +0.000 C 
ATOM      5  C   UNL     1       8.859  16.731  18.577  0.00  0.00    +0.000 C 
ATOM      6  C   UNL     1       7.424  17.179  18.912  0.00  0.00    +0.000 C 
ATOM      7  O   UNL     1       9.496  17.757  17.795  0.00  0.00    +0.000 OA
ATOM      8  C   UNL     1      10.873  17.435  17.565  0.00  0.00    +0.000 C 
ATOM      9  C   UNL     1      11.017  16.099  16.814  0.00  0.00    +0.000 C 
ATOM     10  N   UNL     1      10.297  15.002  17.497  0.00  0.00    +0.000 N 
ATOM     11  C   UNL     1      11.113  13.937  17.934  0.00  0.00    +0.000 C 
ATOM     12  O   UNL     1      12.332  13.924  17.743  0.00  0.00    +0.000 OA
ENDROOT
BRANCH  11  13
ATOM     13  C   UNL     1      10.606  12.770  18.678  0.00  0.00    +0.000 A 
ATOM     14  C   UNL     1      10.104  11.626  18.075  0.00  0.00    +0.000 A 
ATOM     15  C   UNL     1       9.454  10.672  18.862  0.00  0.00    +0.000 A 
ATOM     16  C   UNL     1       9.476  10.827  20.237  0.00  0.00    +0.000 A 
ATOM     17  N   UNL     1      10.124  11.836  20.860  0.00  0.00    +0.000 NA
ATOM     18  C   UNL     1      10.685  12.781  20.063  0.00  0.00    +0.000 A 
ENDBRANCH  11  13
BRANCH   1  20
ATOM     19  C   UNL     1       6.301  14.942  21.806  0.00  0.00    +0.000 C 
ATOM     20  C   UNL     1       7.145  15.891  20.962  0.00  0.00    +0.000 C 
ENDBRANCH   1  20
TORSDOF 2
ENDMDL
MODEL 6
REMARK VINA RESULT:      -5.4      9.402     11.563
REMARK  Name = 
REMARK  3 active torsions:
REMARK  status: ('A' for Active; 'I' for Inactive)
REMARK    1  A    between atoms: C_1  and  C_2
REMARK    2  A    between atoms: C_2  and  N_3
REMARK    3  A    between atoms: C_13  and  C_15
REMARK                            x       y       z     vdW  Elec       q    Type
REMARK                         _______ _______ _______ _____ _____    ______ ____
ROOT
ATOM      1  N   UNL     1       5.162  15.613  19.002  0.00  0.00    +0.000 NA
ATOM      2  C   UNL     1       5.567  14.632  17.995  0.00  0.00    +0.000 C 
ATOM      3  C   UNL     1       7.080  14.399  17.977  0.00  0.00    +0.000 C 
ATOM      4  C   UNL     1       7.900  15.672  17.801  0.00  0.00    +0.000 C 
ATOM      5  C   UNL     1       7.379  16.799  18.735  0.00  0.00    +0.000 C 
ATOM      6  C   UNL     1       5.841  16.888  18.710  0.00  0.00    +0.000 C 
ATOM      7  O   UNL     1       7.925  18.062  18.318  0.00  0.00    +0.000 OA
ATOM      8  C   UNL     1       9.353  18.061  18.444  0.00  0.00    +0.000 C 
ATOM      9  C   UNL     1       9.988  16.955  17.582  0.00  0.00    +0.000 C 
ATOM     10  N   UNL     1       9.405  15.627  17.872  0.00  0.00    +0.000 N 
ATOM     11  C   UNL     1      10.318  14.671  18.367  0.00  0.00    +0.000 C 
ATOM     12  O   UNL     1      11.514  14.929  18.528  0.00  0.00    +0.000 OA
ENDROOT
BRANCH  11  13
ATOM     13  C   UNL     1       9.936  13.304  18.765  0.00  0.00    +0.000 A 
ATOM     14  C   UNL     1       9.561  12.947  20.052  0.00  0.00    +0.000 A 
ATOM     15  C   UNL     1       9.428  11.594  20.372  0.00  0.00    +0.000 A 
ATOM     16  C   UNL     1       9.518  10.665  19.350  0.00  0.00    +0.000 A 
ATOM     17  N   UNL     1       9.695  11.002  18.053  0.00  0.00    +0.000 NA
ATOM     18  C   UNL     1       9.889  12.319  17.789  0.00  0.00    +0.000 A 
ENDBRANCH  11  13
BRANCH   1  20
ATOM     19  C   UNL     1       4.826  16.129  21.456  0.00  0.00    +0.000 C 
ATOM     20  C   UNL     1       5.383  15.187  20.395  0.00  0.00    +0.000 C 
ENDBRANCH   1  20
TORSDOF 2
ENDMDL
MODEL 7
REMARK VINA RESULT:      -5.3     10.274     12.222
REMARK  Name = 
REMARK  3 active torsions:
REMARK  status: ('A' for Active; 'I' for Inactive)
REMARK    1  A    between atoms: C_1  and  C_2
REMARK    2  A    between atoms: C_2  and  N_3
REMARK    3  A    between atoms: C_13  and  C_15
REMARK                            x       y       z     vdW  Elec       q    Type
REMARK                         _______ _______ _______ _____ _____    ______ ____
ROOT
ATOM      1  N   UNL     1       6.007  15.789  19.304  0.00  0.00    +0.000 NA
ATOM      2  C   UNL     1       6.378  14.822  18.271  0.00  0.00    +0.000 C 
ATOM      3  C   UNL     1       7.894  14.733  18.067  0.00  0.00    +0.000 C 
ATOM      4  C   UNL     1       8.556  16.073  17.766  0.00  0.00    +0.000 C 
ATOM      5  C   UNL     1       8.047  17.172  18.738  0.00  0.00    +0.000 C 
ATOM      6  C   UNL     1       6.517  17.114  18.906  0.00  0.00    +0.000 C 
ATOM      7  O   UNL     1       8.411  18.469  18.234  0.00  0.00    +0.000 OA
ATOM      8  C   UNL     1       9.836  18.607  18.178  0.00  0.00    +0.000 C 
ATOM      9  C   UNL     1      10.466  17.541  17.263  0.00  0.00    +0.000 C 
ATOM     10  N   UNL     1      10.056  16.173  17.648  0.00  0.00    +0.000 N 
ATOM     11  C   UNL     1      11.112  15.323  18.041  0.00  0.00    +0.000 C 
ATOM     12  O   UNL     1      12.288  15.698  18.045  0.00  0.00    +0.000 OA
ENDROOT
BRANCH  11  13
ATOM     13  C   UNL     1      10.919  13.938  18.507  0.00  0.00    +0.000 A 
ATOM     14  C   UNL     1      10.813  13.578  19.843  0.00  0.00    +0.000 A 
ATOM     15  C   UNL     1      10.848  12.225  20.187  0.00  0.00    +0.000 A 
ATOM     16  C   UNL     1      10.824  11.287  19.171  0.00  0.00    +0.000 A 
ATOM     17  N   UNL     1      10.734  11.612  17.862  0.00  0.00    +0.000 NA
ATOM     18  C   UNL     1      10.773  12.935  17.561  0.00  0.00    +0.000 A 
ENDBRANCH  11  13
BRANCH   1  20
ATOM     19  C   UNL     1       5.898  16.323  21.774  0.00  0.00    +0.000 C 
ATOM     20  C   UNL     1       6.439  15.428  20.665  0.00  0.00    +0.000 C 
ENDBRANCH   1  20
TORSDOF 2
ENDMDL
MODEL 8
REMARK VINA RESULT:      -5.3      8.614     10.923
REMARK  Name = 
REMARK  3 active torsions:
REMARK  status: ('A' for Active; 'I' for Inactive)
REMARK    1  A    between atoms: C_1  and  C_2
REMARK    2  A    between atoms: C_2  and  N_3
REMARK    3  A    between atoms: C_13  and  C_15
REMARK                            x       y       z     vdW  Elec       q    Type
REMARK                         _______ _______ _______ _____ _____    ______ ____
ROOT
ATOM      1  N   UNL     1      10.346  11.276  19.234  0.00  0.00    +0.000 NA
ATOM      2  C   UNL     1      10.905  11.943  20.410  0.00  0.00    +0.000 C 
ATOM      3  C   UNL     1       9.880  12.831  21.123  0.00  0.00    +0.000 C 
ATOM      4  C   UNL     1       9.225  13.868  20.218  0.00  0.00    +0.000 C 
ATOM      5  C   UNL     1       8.777  13.226  18.877  0.00  0.00    +0.000 C 
ATOM      6  C   UNL     1       9.869  12.308  18.296  0.00  0.00    +0.000 C 
ATOM      7  O   UNL     1       8.481  14.260  17.922  0.00  0.00    +0.000 OA
ATOM      8  C   UNL     1       7.384  15.064  18.371  0.00  0.00    +0.000 C 
ATOM      9  C   UNL     1       7.697  15.732  19.722  0.00  0.00    +0.000 C 
ATOM     10  N   UNL     1       8.116  14.745  20.741  0.00  0.00    +0.000 N 
ATOM     11  C   UNL     1       7.276  14.665  21.872  0.00  0.00    +0.000 C 
ATOM     12  O   UNL     1       6.278  15.380  22.000  0.00  0.00    +0.000 OA
ENDROOT
BRANCH  11  13
ATOM     13  C   UNL     1       7.484  13.716  22.981  0.00  0.00    +0.000 A 
ATOM     14  C   UNL     1       8.172  14.023  24.145  0.00  0.00    +0.000 A 
ATOM     15  C   UNL     1       8.497  12.996  25.035  0.00  0.00    +0.000 A 
ATOM     16  C   UNL     1       7.980  11.734  24.799  0.00  0.00    +0.000 A 
ATOM     17  N   UNL     1       7.149  11.452  23.771  0.00  0.00    +0.000 NA
ATOM     18  C   UNL     1       6.911  12.456  22.889  0.00  0.00    +0.000 A 
ENDBRANCH  11  13
BRANCH   1  20
ATOM     19  C   UNL     1       8.661   9.630  18.311  0.00  0.00    +0.000 C 
ATOM     20  C   UNL     1       9.297  10.287  19.532  0.00  0.00    +0.000 C 
ENDBRANCH   1  20
TORSDOF 2
ENDMDL
MODEL 9
REMARK VINA RESULT:      -5.1     10.098     12.206
REMARK  Name = 
REMARK  3 active torsions:
REMARK  status: ('A' for Active; 'I' for Inactive)
REMARK    1  A    between atoms: C_1  and  C_2
REMARK    2  A    between atoms: C_2  and  N_3
REMARK    3  A    between atoms: C_13  and  C_15
REMARK                            x       y       z     vdW  Elec       q    Type
REMARK                         _______ _______ _______ _____ _____    ______ ____
ROOT
ATOM      1  N   UNL     1       8.401  16.570  21.327  0.00  0.00    +0.000 NA
ATOM      2  C   UNL     1       7.630  15.608  20.540  0.00  0.00    +0.000 C 
ATOM      3  C   UNL     1       8.499  14.833  19.546  0.00  0.00    +0.000 C 
ATOM      4  C   UNL     1       9.308  15.721  18.607  0.00  0.00    +0.000 C 
ATOM      5  C   UNL     1      10.001  16.867  19.393  0.00  0.00    +0.000 C 
ATOM      6  C   UNL     1       9.040  17.523  20.402  0.00  0.00    +0.000 C 
ATOM      7  O   UNL     1      10.465  17.870  18.473  0.00  0.00    +0.000 OA
ATOM      8  C   UNL     1      11.456  17.327  17.591  0.00  0.00    +0.000 C 
ATOM      9  C   UNL     1      10.893  16.150  16.775  0.00  0.00    +0.000 C 
ATOM     10  N   UNL     1      10.295  15.113  17.644  0.00  0.00    +0.000 N 
ATOM     11  C   UNL     1      10.909  13.845  17.565  0.00  0.00    +0.000 C 
ATOM     12  O   UNL     1      11.863  13.624  16.813  0.00  0.00    +0.000 OA
ENDROOT
BRANCH  11  13
ATOM     13  C   UNL     1      10.502  12.686  18.381  0.00  0.00    +0.000 A 
ATOM     14  C   UNL     1       9.634  11.697  17.942  0.00  0.00    +0.000 A 
ATOM     15  C   UNL     1       9.147  10.764  18.860  0.00  0.00    +0.000 A 
ATOM     16  C   UNL     1       9.673  10.764  20.140  0.00  0.00    +0.000 A 
ATOM     17  N   UNL     1      10.660  11.597  20.537  0.00  0.00    +0.000 NA
ATOM     18  C   UNL     1      11.060  12.535  19.641  0.00  0.00    +0.000 A 
ENDBRANCH  11  13
BRANCH   1  20
ATOM     19  C   UNL     1       8.792  15.033  23.298  0.00  0.00    +0.000 C 
ATOM     20  C   UNL     1       9.381  15.965  22.245  0.00  0.00    +0.000 C 
ENDBRANCH   1  20
TORSDOF 2
ENDMDL
