MODEL 1
REMARK VINA RESULT:      -7.4      0.000      0.000
REMARK  Name = 
REMARK  7 active torsions:
REMARK  status: ('A' for Active; 'I' for Inactive)
REMARK    1  A    between atoms: C_2  and  C_16
REMARK    2  A    between atoms: N_3  and  C_4
REMARK    3  A    between atoms: C_4  and  C_5
REMARK    4  A    between atoms: C_4  and  C_11
REMARK    5  A    between atoms: C_13  and  O_14
REMARK    6  A    between atoms: C_16  and  C_17
REMARK    7  A    between atoms: C_17  and  O_18
REMARK                            x       y       z     vdW  Elec       q    Type
REMARK                         _______ _______ _______ _____ _____    ______ ____
ROOT
ATOM      1  C   UNL     1       3.726   4.739  19.814  0.00  0.00    +0.000 C 
ENDROOT
BRANCH   1   2
ATOM      2  C   UNL     1       3.586   3.202  20.017  0.00  0.00    +0.000 C 
ATOM      3  C   UNL     1       3.803   2.404  18.717  0.00  0.00    +0.000 C 
ATOM      4  C   UNL     1       2.565   2.335  17.830  0.00  0.00    +0.000 C 
ATOM      5  N   UNL     1       1.377   1.856  18.538  0.00  0.00    +0.000 NA
ATOM      6  C   UNL     1       1.099   2.620  19.752  0.00  0.00    +0.000 C 
ATOM      7  C   UNL     1       2.300   2.704  20.695  0.00  0.00    +0.000 C 
ATOM      8  H   UNL     1       1.524   0.878  18.789  0.00  0.00    +0.000 HD
ENDBRANCH   1   2
BRANCH   1  11
ATOM      9  O   UNL     1       6.557   5.311  19.916  0.00  0.00    +0.000 OA
ATOM     10  C   UNL     1       5.937   5.373  18.862  0.00  0.00    +0.000 C 
ATOM     11  N   UNL     1       4.597   5.125  18.717  0.00  0.00    +0.000 N 
ATOM     12  H   UNL     1       4.195   5.284  17.803  0.00  0.00    +0.000 HD
BRANCH  10  13
ATOM     13  C   UNL     1       6.634   5.714  17.569  0.00  0.00    +0.000 C 
ATOM     14  C   UNL     1       6.020   6.820  16.715  0.00  0.00    +0.000 C 
ATOM     15  C   UNL     1       7.296   7.082  17.458  0.00  0.00    +0.000 C 
BRANCH  13  16
ATOM     16  C   UNL     1       7.315   4.549  16.875  0.00  0.00    +0.000 C 
BRANCH  16  17
ATOM     17  O   UNL     1       8.331   3.971  17.691  0.00  0.00    +0.000 OA
ATOM     18  H   UNL     1       7.985   3.123  18.017  0.00  0.00    +0.000 HD
ENDBRANCH  16  17
ENDBRANCH  13  16
ENDBRANCH  10  13
ENDBRANCH   1  11
BRANCH   1  19
ATOM     19  C   UNL     1       2.386   5.426  19.491  0.00  0.00    +0.000 C 
ATOM     20  C   UNL     1       2.116   6.884  19.968  0.00  0.00    +0.000 C 
ATOM     21  C   UNL     1       2.663   7.384  18.616  0.00  0.00    +0.000 C 
ATOM     22  C   UNL     1       2.302   5.996  18.040  0.00  0.00    +0.000 C 
BRANCH  21  23
ATOM     23  O   UNL     1       1.996   8.519  18.038  0.00  0.00    +0.000 OA
ATOM     24  H   UNL     1       1.801   8.275  17.117  0.00  0.00    +0.000 HD
ENDBRANCH  21  23
ENDBRANCH   1  19
TORSDOF 7
ENDMDL
MODEL 2
REMARK VINA RESULT:      -7.4      0.893      1.333
REMARK  Name = 
REMARK  7 active torsions:
REMARK  status: ('A' for Active; 'I' for Inactive)
REMARK    1  A    between atoms: C_2  and  C_16
REMARK    2  A    between atoms: N_3  and  C_4
REMARK    3  A    between atoms: C_4  and  C_5
REMARK    4  A    between atoms: C_4  and  C_11
REMARK    5  A    between atoms: C_13  and  O_14
REMARK    6  A    between atoms: C_16  and  C_17
REMARK    7  A    between atoms: C_17  and  O_18
REMARK                            x       y       z     vdW  Elec       q    Type
REMARK                         _______ _______ _______ _____ _____    ______ ____
ROOT
ATOM      1  C   UNL     1       3.764   4.765  19.702  0.00  0.00    +0.000 C 
ENDROOT
BRANCH   1   2
ATOM      2  C   UNL     1       3.714   3.220  19.887  0.00  0.00    +0.000 C 
ATOM      3  C   UNL     1       3.828   2.453  18.555  0.00  0.00    +0.000 C 
ATOM      4  C   UNL     1       2.508   2.342  17.801  0.00  0.00    +0.000 C 
ATOM      5  N   UNL     1       1.422   1.798  18.620  0.00  0.00    +0.000 NA
ATOM      6  C   UNL     1       1.241   2.529  19.871  0.00  0.00    +0.000 C 
ATOM      7  C   UNL     1       2.530   2.654  20.686  0.00  0.00    +0.000 C 
ATOM      8  H   UNL     1       1.638   0.824  18.834  0.00  0.00    +0.000 HD
ENDBRANCH   1   2
BRANCH   1  11
ATOM      9  O   UNL     1       6.617   5.213  19.837  0.00  0.00    +0.000 OA
ATOM     10  C   UNL     1       5.997   5.397  18.798  0.00  0.00    +0.000 C 
ATOM     11  N   UNL     1       4.648   5.216  18.639  0.00  0.00    +0.000 N 
ATOM     12  H   UNL     1       4.250   5.475  17.746  0.00  0.00    +0.000 HD
BRANCH  10  13
ATOM     13  C   UNL     1       6.703   5.828  17.536  0.00  0.00    +0.000 C 
ATOM     14  C   UNL     1       7.194   4.727  16.599  0.00  0.00    +0.000 C 
ATOM     15  C   UNL     1       6.008   5.557  16.207  0.00  0.00    +0.000 C 
BRANCH  13  16
ATOM     16  C   UNL     1       7.516   7.103  17.653  0.00  0.00    +0.000 C 
BRANCH  16  17
ATOM     17  O   UNL     1       8.331   7.103  18.823  0.00  0.00    +0.000 OA
ATOM     18  H   UNL     1       8.231   6.232  19.239  0.00  0.00    +0.000 HD
ENDBRANCH  16  17
ENDBRANCH  13  16
ENDBRANCH  10  13
ENDBRANCH   1  11
BRANCH   1  19
ATOM     19  C   UNL     1       2.396   5.371  19.337  0.00  0.00    +0.000 C 
ATOM     20  C   UNL     1       1.630   6.256  20.364  0.00  0.00    +0.000 C 
ATOM     21  C   UNL     1       2.309   7.494  19.742  0.00  0.00    +0.000 C 
ATOM     22  C   UNL     1       2.489   6.656  18.456  0.00  0.00    +0.000 C 
BRANCH  21  23
ATOM     23  O   UNL     1       1.502   8.678  19.636  0.00  0.00    +0.000 OA
ATOM     24  H   UNL     1       2.120   9.409  19.467  0.00  0.00    +0.000 HD
ENDBRANCH  21  23
ENDBRANCH   1  19
TORSDOF 7
ENDMDL
MODEL 3
REMARK VINA RESULT:      -7.2      0.889      1.150
REMARK  Name = 
REMARK  7 active torsions:
REMARK  status: ('A' for Active; 'I' for Inactive)
REMARK    1  A    between atoms: C_2  and  C_16
REMARK    2  A    between atoms: N_3  and  C_4
REMARK    3  A    between atoms: C_4  and  C_5
REMARK    4  A    between atoms: C_4  and  C_11
REMARK    5  A    between atoms: C_13  and  O_14
REMARK    6  A    between atoms: C_16  and  C_17
REMARK    7  A    between atoms: C_17  and  O_18
REMARK                            x       y       z     vdW  Elec       q    Type
REMARK                         _______ _______ _______ _____ _____    ______ ____
ROOT
ATOM      1  C   UNL     1       3.426   4.873  19.803  0.00  0.00    +0.000 C 
ENDROOT
BRANCH   1   2
ATOM      2  C   UNL     1       3.043   3.475  20.370  0.00  0.00    +0.000 C 
ATOM      3  C   UNL     1       3.716   2.315  19.611  0.00  0.00    +0.000 C 
ATOM      4  C   UNL     1       2.990   1.923  18.329  0.00  0.00    +0.000 C 
ATOM      5  N   UNL     1       1.567   1.649  18.536  0.00  0.00    +0.000 NA
ATOM      6  C   UNL     1       0.873   2.747  19.205  0.00  0.00    +0.000 C 
ATOM      7  C   UNL     1       1.544   3.170  20.514  0.00  0.00    +0.000 C 
ATOM      8  H   UNL     1       1.480   0.807  19.106  0.00  0.00    +0.000 HD
ENDBRANCH   1   2
BRANCH   1  11
ATOM      9  O   UNL     1       6.286   4.995  19.395  0.00  0.00    +0.000 OA
ATOM     10  C   UNL     1       5.515   4.894  18.448  0.00  0.00    +0.000 C 
ATOM     11  N   UNL     1       4.150   4.834  18.542  0.00  0.00    +0.000 N 
ATOM     12  H   UNL     1       3.627   4.825  17.677  0.00  0.00    +0.000 HD
BRANCH  10  13
ATOM     13  C   UNL     1       6.029   4.791  17.034  0.00  0.00    +0.000 C 
ATOM     14  C   UNL     1       5.260   3.887  16.074  0.00  0.00    +0.000 C 
ATOM     15  C   UNL     1       5.168   5.376  15.921  0.00  0.00    +0.000 C 
BRANCH  13  16
ATOM     16  C   UNL     1       7.535   4.901  16.883  0.00  0.00    +0.000 C 
BRANCH  16  17
ATOM     17  O   UNL     1       8.220   4.022  17.772  0.00  0.00    +0.000 OA
ATOM     18  H   UNL     1       8.999   4.500  18.102  0.00  0.00    +0.000 HD
ENDBRANCH  16  17
ENDBRANCH  13  16
ENDBRANCH  10  13
ENDBRANCH   1  11
BRANCH   1  19
ATOM     19  C   UNL     1       2.201   5.758  19.507  0.00  0.00    +0.000 C 
ATOM     20  C   UNL     1       2.252   7.289  19.785  0.00  0.00    +0.000 C 
ATOM     21  C   UNL     1       2.715   7.497  18.328  0.00  0.00    +0.000 C 
ATOM     22  C   UNL     1       2.048   6.141  18.001  0.00  0.00    +0.000 C 
BRANCH  21  23
ATOM     23  O   UNL     1       2.195   8.654  17.653  0.00  0.00    +0.000 OA
ATOM     24  H   UNL     1       2.949   9.054  17.188  0.00  0.00    +0.000 HD
ENDBRANCH  21  23
ENDBRANCH   1  19
TORSDOF 7
ENDMDL
MODEL 4
REMARK VINA RESULT:      -7.1      1.034      1.216
REMARK  Name = 
REMARK  7 active torsions:
REMARK  status: ('A' for Active; 'I' for Inactive)
REMARK    1  A    between atoms: C_2  and  C_16
REMARK    2  A    between atoms: N_3  and  C_4
REMARK    3  A    between atoms: C_4  and  C_5
REMARK    4  A    between atoms: C_4  and  C_11
REMARK    5  A    between atoms: C_13  and  O_14
REMARK    6  A    between atoms: C_16  and  C_17
REMARK    7  A    between atoms: C_17  and  O_18
REMARK                            x       y       z     vdW  Elec       q    Type
REMARK                         _______ _______ _______ _____ _____    ______ ____
ROOT
ATOM      1  C   UNL     1       3.344   4.838  19.981  0.00  0.00    +0.000 C 
ENDROOT
BRANCH   1   2
ATOM      2  C   UNL     1       2.935   3.423  20.485  0.00  0.00    +0.000 C 
ATOM      3  C   UNL     1       3.730   2.292  19.806  0.00  0.00    +0.000 C 
ATOM      4  C   UNL     1       3.179   1.894  18.440  0.00  0.00    +0.000 C 
ATOM      5  N   UNL     1       1.750   1.578  18.467  0.00  0.00    +0.000 NA
ATOM      6  C   UNL     1       0.948   2.648  19.055  0.00  0.00    +0.000 C 
ATOM      7  C   UNL     1       1.439   3.074  20.440  0.00  0.00    +0.000 C 
ATOM      8  H   UNL     1       1.619   0.727  19.016  0.00  0.00    +0.000 HD
ENDBRANCH   1   2
BRANCH   1  11
ATOM      9  O   UNL     1       6.213   5.170  19.857  0.00  0.00    +0.000 OA
ATOM     10  C   UNL     1       5.552   4.997  18.841  0.00  0.00    +0.000 C 
ATOM     11  N   UNL     1       4.192   4.835  18.800  0.00  0.00    +0.000 N 
ATOM     12  H   UNL     1       3.762   4.773  17.887  0.00  0.00    +0.000 HD
BRANCH  10  13
ATOM     13  C   UNL     1       6.213   4.911  17.488  0.00  0.00    +0.000 C 
ATOM     14  C   UNL     1       7.231   5.994  17.138  0.00  0.00    +0.000 C 
ATOM     15  C   UNL     1       7.705   4.605  17.446  0.00  0.00    +0.000 C 
BRANCH  13  16
ATOM     16  C   UNL     1       5.349   4.336  16.381  0.00  0.00    +0.000 C 
BRANCH  16  17
ATOM     17  O   UNL     1       5.850   3.084  15.919  0.00  0.00    +0.000 OA
ATOM     18  H   UNL     1       5.510   2.957  15.017  0.00  0.00    +0.000 HD
ENDBRANCH  16  17
ENDBRANCH  13  16
ENDBRANCH  10  13
ENDBRANCH   1  11
BRANCH   1  19
ATOM     19  C   UNL     1       2.136   5.703  19.574  0.00  0.00    +0.000 C 
ATOM     20  C   UNL     1       2.127   7.231  19.877  0.00  0.00    +0.000 C 
ATOM     21  C   UNL     1       2.729   7.470  18.477  0.00  0.00    +0.000 C 
ATOM     22  C   UNL     1       2.127   6.107  18.066  0.00  0.00    +0.000 C 
BRANCH  21  23
ATOM     23  O   UNL     1       2.256   8.627  17.768  0.00  0.00    +0.000 OA
ATOM     24  H   UNL     1       1.567   9.022  18.329  0.00  0.00    +0.000 HD
ENDBRANCH  21  23
ENDBRANCH   1  19
TORSDOF 7
ENDMDL
MODEL 5
REMARK VINA RESULT:      -7.1      1.346      2.165
REMARK  Name = 
REMARK  7 active torsions:
REMARK  status: ('A' for Active; 'I' for Inactive)
REMARK    1  A    between atoms: C_2  and  C_16
REMARK    2  A    between atoms: N_3  and  C_4
REMARK    3  A    between atoms: C_4  and  C_5
REMARK    4  A    between atoms: C_4  and  C_11
REMARK    5  A    between atoms: C_13  and  O_14
REMARK    6  A    between atoms: C_16  and  C_17
REMARK    7  A    between atoms: C_17  and  O_18
REMARK                            x       y       z     vdW  Elec       q    Type
REMARK                         _______ _______ _______ _____ _____    ______ ____
ROOT
ATOM      1  C   UNL     1       3.280   5.430  18.990  0.00  0.00    +0.000 C 
ENDROOT
BRANCH   1   2
ATOM      2  C   UNL     1       1.866   4.815  18.775  0.00  0.00    +0.000 C 
ATOM      3  C   UNL     1       1.334   4.087  20.025  0.00  0.00    +0.000 C 
ATOM      4  C   UNL     1       1.861   2.664  20.173  0.00  0.00    +0.000 C 
ATOM      5  N   UNL     1       1.658   1.849  18.974  0.00  0.00    +0.000 NA
ATOM      6  C   UNL     1       2.197   2.475  17.769  0.00  0.00    +0.000 C 
ATOM      7  C   UNL     1       1.684   3.900  17.554  0.00  0.00    +0.000 C 
ATOM      8  H   UNL     1       0.656   1.702  18.850  0.00  0.00    +0.000 HD
ENDBRANCH   1   2
BRANCH   1  11
ATOM      9  O   UNL     1       5.788   3.993  18.950  0.00  0.00    +0.000 OA
ATOM     10  C   UNL     1       5.362   4.549  17.945  0.00  0.00    +0.000 C 
ATOM     11  N   UNL     1       4.190   5.255  17.869  0.00  0.00    +0.000 N 
ATOM     12  H   UNL     1       3.991   5.727  16.997  0.00  0.00    +0.000 HD
BRANCH  10  13
ATOM     13  C   UNL     1       6.109   4.474  16.638  0.00  0.00    +0.000 C 
ATOM     14  C   UNL     1       5.638   3.435  15.622  0.00  0.00    +0.000 C 
ATOM     15  C   UNL     1       5.368   4.889  15.372  0.00  0.00    +0.000 C 
BRANCH  13  16
ATOM     16  C   UNL     1       7.590   4.796  16.719  0.00  0.00    +0.000 C 
BRANCH  16  17
ATOM     17  O   UNL     1       8.245   4.018  17.718  0.00  0.00    +0.000 OA
ATOM     18  H   UNL     1       9.150   3.858  17.405  0.00  0.00    +0.000 HD
ENDBRANCH  16  17
ENDBRANCH  13  16
ENDBRANCH  10  13
ENDBRANCH   1  11
BRANCH   1  19
ATOM     19  C   UNL     1       3.245   6.954  19.211  0.00  0.00    +0.000 C 
ATOM     20  C   UNL     1       3.524   7.926  18.027  0.00  0.00    +0.000 C 
ATOM     21  C   UNL     1       2.006   7.963  17.754  0.00  0.00    +0.000 C 
ATOM     22  C   UNL     1       1.805   7.557  19.231  0.00  0.00    +0.000 C 
BRANCH  21  23
ATOM     23  O   UNL     1       1.461   9.230  17.350  0.00  0.00    +0.000 OA
ATOM     24  H   UNL     1       0.544   9.054  17.080  0.00  0.00    +0.000 HD
ENDBRANCH  21  23
ENDBRANCH   1  19
TORSDOF 7
ENDMDL
MODEL 6
REMARK VINA RESULT:      -7.0      1.153      1.604
REMARK  Name = 
REMARK  7 active torsions:
REMARK  status: ('A' for Active; 'I' for Inactive)
REMARK    1  A    between atoms: C_2  and  C_16
REMARK    2  A    between atoms: N_3  and  C_4
REMARK    3  A    between atoms: C_4  and  C_5
REMARK    4  A    between atoms: C_4  and  C_11
REMARK    5  A    between atoms: C_13  and  O_14
REMARK    6  A    between atoms: C_16  and  C_17
REMARK    7  A    between atoms: C_17  and  O_18
REMARK                            x       y       z     vdW  Elec       q    Type
REMARK                         _______ _______ _______ _____ _____    ______ ____
ROOT
ATOM      1  C   UNL     1       3.550   4.668  19.848  0.00  0.00    +0.000 C 
ENDROOT
BRANCH   1   2
ATOM      2  C   UNL     1       3.398   3.158  20.195  0.00  0.00    +0.000 C 
ATOM      3  C   UNL     1       3.830   2.232  19.042  0.00  0.00    +0.000 C 
ATOM      4  C   UNL     1       2.751   2.032  17.984  0.00  0.00    +0.000 C 
ATOM      5  N   UNL     1       1.470   1.597  18.544  0.00  0.00    +0.000 NA
ATOM      6  C   UNL     1       0.992   2.478  19.607  0.00  0.00    +0.000 C 
ATOM      7  C   UNL     1       2.025   2.698  20.713  0.00  0.00    +0.000 C 
ATOM      8  H   UNL     1       1.586   0.656  18.922  0.00  0.00    +0.000 HD
ENDBRANCH   1   2
BRANCH   1  11
ATOM      9  O   UNL     1       6.389   5.213  19.841  0.00  0.00    +0.000 OA
ATOM     10  C   UNL     1       5.748   5.185  18.798  0.00  0.00    +0.000 C 
ATOM     11  N   UNL     1       4.403   4.940  18.703  0.00  0.00    +0.000 N 
ATOM     12  H   UNL     1       3.983   5.018  17.786  0.00  0.00    +0.000 HD
BRANCH  10  13
ATOM     13  C   UNL     1       6.420   5.395  17.465  0.00  0.00    +0.000 C 
ATOM     14  C   UNL     1       7.653   4.547  17.163  0.00  0.00    +0.000 C 
ATOM     15  C   UNL     1       6.364   4.256  16.454  0.00  0.00    +0.000 C 
BRANCH  13  16
ATOM     16  C   UNL     1       6.359   6.812  16.926  0.00  0.00    +0.000 C 
BRANCH  16  17
ATOM     17  O   UNL     1       5.438   6.925  15.844  0.00  0.00    +0.000 OA
ATOM     18  H   UNL     1       5.350   7.871  15.643  0.00  0.00    +0.000 HD
ENDBRANCH  16  17
ENDBRANCH  13  16
ENDBRANCH  10  13
ENDBRANCH   1  11
BRANCH   1  19
ATOM     19  C   UNL     1       2.211   5.340  19.489  0.00  0.00    +0.000 C 
ATOM     20  C   UNL     1       1.526   6.312  20.494  0.00  0.00    +0.000 C 
ATOM     21  C   UNL     1       2.261   7.479  19.803  0.00  0.00    +0.000 C 
ATOM     22  C   UNL     1       2.358   6.578  18.551  0.00  0.00    +0.000 C 
BRANCH  21  23
ATOM     23  O   UNL     1       1.523   8.704  19.664  0.00  0.00    +0.000 OA
ATOM     24  H   UNL     1       0.628   8.518  19.997  0.00  0.00    +0.000 HD
ENDBRANCH  21  23
ENDBRANCH   1  19
TORSDOF 7
ENDMDL
MODEL 7
REMARK VINA RESULT:      -6.9      2.322      5.277
REMARK  Name = 
REMARK  7 active torsions:
REMARK  status: ('A' for Active; 'I' for Inactive)
REMARK    1  A    between atoms: C_2  and  C_16
REMARK    2  A    between atoms: N_3  and  C_4
REMARK    3  A    between atoms: C_4  and  C_5
REMARK    4  A    between atoms: C_4  and  C_11
REMARK    5  A    between atoms: C_13  and  O_14
REMARK    6  A    between atoms: C_16  and  C_17
REMARK    7  A    between atoms: C_17  and  O_18
REMARK                            x       y       z     vdW  Elec       q    Type
REMARK                         _______ _______ _______ _____ _____    ______ ____
ROOT
ATOM      1  C   UNL     1       3.969   4.471  17.261  0.00  0.00    +0.000 C 
ENDROOT
BRANCH   1   2
ATOM      2  C   UNL     1       4.906   4.734  16.046  0.00  0.00    +0.000 C 
ATOM      3  C   UNL     1       6.230   3.951  16.128  0.00  0.00    +0.000 C 
ATOM      4  C   UNL     1       7.282   4.622  17.003  0.00  0.00    +0.000 C 
ATOM      5  N   UNL     1       7.530   6.018  16.636  0.00  0.00    +0.000 NA
ATOM      6  C   UNL     1       6.306   6.815  16.598  0.00  0.00    +0.000 C 
ATOM      7  C   UNL     1       5.218   6.202  15.714  0.00  0.00    +0.000 C 
ATOM      8  H   UNL     1       7.964   6.036  15.713  0.00  0.00    +0.000 HD
ENDBRANCH   1   2
BRANCH   1  11
ATOM      9  O   UNL     1       4.203   6.122  19.623  0.00  0.00    +0.000 OA
ATOM     10  C   UNL     1       3.334   6.334  18.787  0.00  0.00    +0.000 C 
ATOM     11  N   UNL     1       3.143   5.604  17.642  0.00  0.00    +0.000 N 
ATOM     12  H   UNL     1       2.341   5.841  17.073  0.00  0.00    +0.000 HD
BRANCH  10  13
ATOM     13  C   UNL     1       2.375   7.487  18.937  0.00  0.00    +0.000 C 
ATOM     14  C   UNL     1       2.636   8.729  18.088  0.00  0.00    +0.000 C 
ATOM     15  C   UNL     1       1.485   7.830  17.747  0.00  0.00    +0.000 C 
BRANCH  13  16
ATOM     16  C   UNL     1       1.784   7.662  20.324  0.00  0.00    +0.000 C 
BRANCH  16  17
ATOM     17  O   UNL     1       1.856   6.458  21.083  0.00  0.00    +0.000 OA
ATOM     18  H   UNL     1       2.713   6.459  21.539  0.00  0.00    +0.000 HD
ENDBRANCH  16  17
ENDBRANCH  13  16
ENDBRANCH  10  13
ENDBRANCH   1  11
BRANCH   1  19
ATOM     19  C   UNL     1       2.959   3.337  17.007  0.00  0.00    +0.000 C 
ATOM     20  C   UNL     1       3.141   1.953  17.697  0.00  0.00    +0.000 C 
ATOM     21  C   UNL     1       2.242   2.454  18.846  0.00  0.00    +0.000 C 
ATOM     22  C   UNL     1       1.644   3.463  17.839  0.00  0.00    +0.000 C 
BRANCH  21  23
ATOM     23  O   UNL     1       1.336   1.492  19.413  0.00  0.00    +0.000 OA
ATOM     24  H   UNL     1       1.800   0.638  19.385  0.00  0.00    +0.000 HD
ENDBRANCH  21  23
ENDBRANCH   1  19
TORSDOF 7
ENDMDL
MODEL 8
REMARK VINA RESULT:      -6.7      2.263      5.038
REMARK  Name = 
REMARK  7 active torsions:
REMARK  status: ('A' for Active; 'I' for Inactive)
REMARK    1  A    between atoms: C_2  and  C_16
REMARK    2  A    between atoms: N_3  and  C_4
REMARK    3  A    between atoms: C_4  and  C_5
REMARK    4  A    between atoms: C_4  and  C_11
REMARK    5  A    between atoms: C_13  and  O_14
REMARK    6  A    between atoms: C_16  and  C_17
REMARK    7  A    between atoms: C_17  and  O_18
REMARK                            x       y       z     vdW  Elec       q    Type
REMARK                         _______ _______ _______ _____ _____    ______ ____
ROOT
ATOM      1  C   UNL     1       3.933   5.166  17.364  0.00  0.00    +0.000 C 
ENDROOT
BRANCH   1   2
ATOM      2  C   UNL     1       5.286   4.401  17.282  0.00  0.00    +0.000 C 
ATOM      3  C   UNL     1       6.469   5.214  17.843  0.00  0.00    +0.000 C 
ATOM      4  C   UNL     1       7.047   6.214  16.848  0.00  0.00    +0.000 C 
ATOM      5  N   UNL     1       7.400   5.609  15.563  0.00  0.00    +0.000 NA
ATOM      6  C   UNL     1       6.290   4.871  14.965  0.00  0.00    +0.000 C 
ATOM      7  C   UNL     1       5.682   3.833  15.910  0.00  0.00    +0.000 C 
ATOM      8  H   UNL     1       8.180   4.968  15.712  0.00  0.00    +0.000 HD
ENDBRANCH   1   2
BRANCH   1  11
ATOM      9  O   UNL     1       4.174   3.405  19.644  0.00  0.00    +0.000 OA
ATOM     10  C   UNL     1       3.085   3.631  19.131  0.00  0.00    +0.000 C 
ATOM     11  N   UNL     1       2.873   4.444  18.049  0.00  0.00    +0.000 N 
ATOM     12  H   UNL     1       1.933   4.486  17.680  0.00  0.00    +0.000 HD
BRANCH  10  13
ATOM     13  C   UNL     1       1.822   3.029  19.692  0.00  0.00    +0.000 C 
ATOM     14  C   UNL     1       1.767   2.799  21.201  0.00  0.00    +0.000 C 
ATOM     15  C   UNL     1       0.957   3.904  20.591  0.00  0.00    +0.000 C 
BRANCH  13  16
ATOM     16  C   UNL     1       1.110   2.048  18.778  0.00  0.00    +0.000 C 
BRANCH  16  17
ATOM     17  O   UNL     1       1.908   1.709  17.647  0.00  0.00    +0.000 OA
ATOM     18  H   UNL     1       2.305   2.533  17.320  0.00  0.00    +0.000 HD
ENDBRANCH  16  17
ENDBRANCH  13  16
ENDBRANCH  10  13
ENDBRANCH   1  11
BRANCH   1  19
ATOM     19  C   UNL     1       4.040   6.497  18.133  0.00  0.00    +0.000 C 
ATOM     20  C   UNL     1       3.819   7.850  17.395  0.00  0.00    +0.000 C 
ATOM     21  C   UNL     1       2.330   7.776  17.794  0.00  0.00    +0.000 C 
ATOM     22  C   UNL     1       2.764   6.855  18.957  0.00  0.00    +0.000 C 
BRANCH  21  23
ATOM     23  O   UNL     1       1.703   9.019  18.151  0.00  0.00    +0.000 OA
ATOM     24  H   UNL     1       0.762   8.816  18.283  0.00  0.00    +0.000 HD
ENDBRANCH  21  23
ENDBRANCH   1  19
TORSDOF 7
ENDMDL
MODEL 9
REMARK VINA RESULT:      -6.7      1.154      1.459
REMARK  Name = 
REMARK  7 active torsions:
REMARK  status: ('A' for Active; 'I' for Inactive)
REMARK    1  A    between atoms: C_2  and  C_16
REMARK    2  A    between atoms: N_3  and  C_4
REMARK    3  A    between atoms: C_4  and  C_5
REMARK    4  A    between atoms: C_4  and  C_11
REMARK    5  A    between atoms: C_13  and  O_14
REMARK    6  A    between atoms: C_16  and  C_17
REMARK    7  A    between atoms: C_17  and  O_18
REMARK                            x       y       z     vdW  Elec       q    Type
REMARK                         _______ _______ _______ _____ _____    ______ ____
ROOT
ATOM      1  C   UNL     1       3.444   5.132  19.361  0.00  0.00    +0.000 C 
ENDROOT
BRANCH   1   2
ATOM      2  C   UNL     1       3.106   3.615  19.279  0.00  0.00    +0.000 C 
ATOM      3  C   UNL     1       1.632   3.349  18.915  0.00  0.00    +0.000 C 
ATOM      4  C   UNL     1       0.685   3.431  20.108  0.00  0.00    +0.000 C 
ATOM      5  N   UNL     1       1.101   2.589  21.230  0.00  0.00    +0.000 NA
ATOM      6  C   UNL     1       2.478   2.845  21.647  0.00  0.00    +0.000 C 
ATOM      7  C   UNL     1       3.480   2.753  20.495  0.00  0.00    +0.000 C 
ATOM      8  H   UNL     1       1.018   1.611  20.948  0.00  0.00    +0.000 HD
ENDBRANCH   1   2
BRANCH   1  11
ATOM      9  O   UNL     1       6.295   5.054  19.837  0.00  0.00    +0.000 OA
ATOM     10  C   UNL     1       5.841   5.481  18.782  0.00  0.00    +0.000 C 
ATOM     11  N   UNL     1       4.509   5.561  18.469  0.00  0.00    +0.000 N 
ATOM     12  H   UNL     1       4.268   6.002  17.592  0.00  0.00    +0.000 HD
BRANCH  10  13
ATOM     13  C   UNL     1       6.753   5.947  17.675  0.00  0.00    +0.000 C 
ATOM     14  C   UNL     1       6.678   7.420  17.281  0.00  0.00    +0.000 C 
ATOM     15  C   UNL     1       7.871   6.917  18.038  0.00  0.00    +0.000 C 
BRANCH  13  16
ATOM     16  C   UNL     1       7.042   4.917  16.598  0.00  0.00    +0.000 C 
BRANCH  16  17
ATOM     17  O   UNL     1       6.320   3.708  16.818  0.00  0.00    +0.000 OA
ATOM     18  H   UNL     1       6.629   3.067  16.157  0.00  0.00    +0.000 HD
ENDBRANCH  16  17
ENDBRANCH  13  16
ENDBRANCH  10  13
ENDBRANCH   1  11
BRANCH   1  19
ATOM     19  C   UNL     1       2.254   6.035  18.986  0.00  0.00    +0.000 C 
ATOM     20  C   UNL     1       2.203   7.512  19.477  0.00  0.00    +0.000 C 
ATOM     21  C   UNL     1       2.892   7.929  18.161  0.00  0.00    +0.000 C 
ATOM     22  C   UNL     1       2.338   6.625  17.544  0.00  0.00    +0.000 C 
BRANCH  21  23
ATOM     23  O   UNL     1       2.450   9.164  17.573  0.00  0.00    +0.000 OA
ATOM     24  H   UNL     1       1.484   9.182  17.683  0.00  0.00    +0.000 HD
ENDBRANCH  21  23
ENDBRANCH   1  19
TORSDOF 7
ENDMDL
