MODEL 1
REMARK VINA RESULT:      -8.3      0.000      0.000
REMARK  Name = 
REMARK  5 active torsions:
REMARK  status: ('A' for Active; 'I' for Inactive)
REMARK    1  A    between atoms: C_1  and  N_2
REMARK    2  A    between atoms: C_4  and  S_5
REMARK    3  A    between atoms: S_5  and  N_8
REMARK    4  A    between atoms: C_15  and  C_16
REMARK    5  A    between atoms: N_18  and  C_19
REMARK                            x       y       z     vdW  Elec       q    Type
REMARK                         _______ _______ _______ _____ _____    ______ ____
ROOT
ATOM      1  C   UNL     1       1.964   4.622  17.857  0.00  0.00    +0.000 C 
ATOM      2  N   UNL     1       3.212   5.324  17.617  0.00  0.00    +0.000 N 
ATOM      3  C   UNL     1       4.287   4.730  16.997  0.00  0.00    +0.000 A 
ATOM      4  C   UNL     1       5.305   5.652  16.932  0.00  0.00    +0.000 A 
ATOM      5  C   UNL     1       4.835   6.837  17.541  0.00  0.00    +0.000 A 
ATOM      6  C   UNL     1       3.515   6.644  17.943  0.00  0.00    +0.000 A 
ENDROOT
BRANCH   6   7
ATOM      7  C   UNL     1       2.607   7.600  18.575  0.00  0.00    +0.000 C 
ATOM      8  O   UNL     1       2.367   7.551  19.779  0.00  0.00    +0.000 OA
ATOM      9  N   UNL     1       2.035   8.517  17.693  0.00  0.00    +0.000 N 
ATOM     10  H   UNL     1       2.172   8.350  16.708  0.00  0.00    +0.000 HD
BRANCH   9  11
ATOM     11  C   UNL     1       1.130   9.556  18.009  0.00  0.00    +0.000 A 
ATOM     12  C   UNL     1       1.525  10.727  18.678  0.00  0.00    +0.000 A 
ATOM     13  C   UNL     1       0.588  11.700  19.045  0.00  0.00    +0.000 A 
ATOM     14  C   UNL     1      -0.731  11.473  18.738  0.00  0.00    +0.000 A 
ATOM     15  C   UNL     1      -1.126  10.354  18.049  0.00  0.00    +0.000 A 
ATOM     16  C   UNL     1      -0.219   9.390  17.649  0.00  0.00    +0.000 A 
ATOM     17  O   UNL     1      -2.475  10.320  17.862  0.00  0.00    +0.000 OA
ATOM     18  C   UNL     1      -2.880  11.503  18.587  0.00  0.00    +0.000 C 
ATOM     19  O   UNL     1      -1.770  12.285  19.068  0.00  0.00    +0.000 OA
ENDBRANCH   9  11
ENDBRANCH   6   7
BRANCH   4  20
ATOM     20  S   UNL     1       6.881   5.434  16.232  0.00  0.00    +0.000 S 
ATOM     21  O   UNL     1       7.499   6.738  16.357  0.00  0.00    +0.000 OA
ATOM     22  O   UNL     1       7.395   4.268  16.908  0.00  0.00    +0.000 OA
BRANCH  20  23
ATOM     23  N   UNL     1       6.683   5.071  14.570  0.00  0.00    +0.000 NA
ATOM     24  C   UNL     1       7.856   5.408  13.722  0.00  0.00    +0.000 C 
ATOM     25  C   UNL     1       7.553   5.196  12.242  0.00  0.00    +0.000 C 
ATOM     26  C   UNL     1       7.034   3.790  11.982  0.00  0.00    +0.000 C 
ATOM     27  C   UNL     1       5.789   3.544  12.821  0.00  0.00    +0.000 C 
ATOM     28  C   UNL     1       6.074   3.743  14.305  0.00  0.00    +0.000 C 
ENDBRANCH  20  23
ENDBRANCH   4  20
TORSDOF 4
ENDMDL
MODEL 2
REMARK VINA RESULT:      -8.2      2.000      2.213
REMARK  Name = 
REMARK  5 active torsions:
REMARK  status: ('A' for Active; 'I' for Inactive)
REMARK    1  A    between atoms: C_1  and  N_2
REMARK    2  A    between atoms: C_4  and  S_5
REMARK    3  A    between atoms: S_5  and  N_8
REMARK    4  A    between atoms: C_15  and  C_16
REMARK    5  A    between atoms: N_18  and  C_19
REMARK                            x       y       z     vdW  Elec       q    Type
REMARK                         _______ _______ _______ _____ _____    ______ ____
ROOT
ATOM      1  C   UNL     1       2.555   4.864  18.840  0.00  0.00    +0.000 C 
ATOM      2  N   UNL     1       3.624   5.536  18.123  0.00  0.00    +0.000 N 
ATOM      3  C   UNL     1       4.738   4.871  17.664  0.00  0.00    +0.000 A 
ATOM      4  C   UNL     1       5.554   5.787  17.043  0.00  0.00    +0.000 A 
ATOM      5  C   UNL     1       4.919   7.045  17.137  0.00  0.00    +0.000 A 
ATOM      6  C   UNL     1       3.696   6.885  17.785  0.00  0.00    +0.000 A 
ENDROOT
BRANCH   6   7
ATOM      7  C   UNL     1       2.679   7.895  18.070  0.00  0.00    +0.000 C 
ATOM      8  O   UNL     1       2.297   8.679  17.204  0.00  0.00    +0.000 OA
ATOM      9  N   UNL     1       2.230   7.900  19.392  0.00  0.00    +0.000 N 
ATOM     10  H   UNL     1       2.740   7.330  20.049  0.00  0.00    +0.000 HD
BRANCH   9  11
ATOM     11  C   UNL     1       1.254   8.752  19.959  0.00  0.00    +0.000 A 
ATOM     12  C   UNL     1       0.612   9.762  19.225  0.00  0.00    +0.000 A 
ATOM     13  C   UNL     1      -0.291  10.638  19.838  0.00  0.00    +0.000 A 
ATOM     14  C   UNL     1      -0.526  10.484  21.182  0.00  0.00    +0.000 A 
ATOM     15  C   UNL     1       0.061   9.475  21.903  0.00  0.00    +0.000 A 
ATOM     16  C   UNL     1       0.936   8.578  21.318  0.00  0.00    +0.000 A 
ATOM     17  O   UNL     1      -0.298   9.512  23.216  0.00  0.00    +0.000 OA
ATOM     18  C   UNL     1      -1.108  10.708  23.244  0.00  0.00    +0.000 C 
ATOM     19  O   UNL     1      -1.329  11.277  21.940  0.00  0.00    +0.000 OA
ENDBRANCH   9  11
ENDBRANCH   6   7
BRANCH   4  20
ATOM     20  S   UNL     1       7.081   5.482  16.269  0.00  0.00    +0.000 S 
ATOM     21  O   UNL     1       7.767   6.755  16.345  0.00  0.00    +0.000 OA
ATOM     22  O   UNL     1       7.570   4.300  16.936  0.00  0.00    +0.000 OA
BRANCH  20  23
ATOM     23  N   UNL     1       6.783   5.109  14.624  0.00  0.00    +0.000 NA
ATOM     24  C   UNL     1       7.940   5.340  13.721  0.00  0.00    +0.000 C 
ATOM     25  C   UNL     1       7.557   5.129  12.260  0.00  0.00    +0.000 C 
ATOM     26  C   UNL     1       6.920   3.763  12.049  0.00  0.00    +0.000 C 
ATOM     27  C   UNL     1       5.698   3.628  12.945  0.00  0.00    +0.000 C 
ATOM     28  C   UNL     1       6.062   3.829  14.411  0.00  0.00    +0.000 C 
ENDBRANCH  20  23
ENDBRANCH   4  20
TORSDOF 4
ENDMDL
MODEL 3
REMARK VINA RESULT:      -8.1      1.083      1.131
REMARK  Name = 
REMARK  5 active torsions:
REMARK  status: ('A' for Active; 'I' for Inactive)
REMARK    1  A    between atoms: C_1  and  N_2
REMARK    2  A    between atoms: C_4  and  S_5
REMARK    3  A    between atoms: S_5  and  N_8
REMARK    4  A    between atoms: C_15  and  C_16
REMARK    5  A    between atoms: N_18  and  C_19
REMARK                            x       y       z     vdW  Elec       q    Type
REMARK                         _______ _______ _______ _____ _____    ______ ____
ROOT
ATOM      1  C   UNL     1       2.163   3.977  17.625  0.00  0.00    +0.000 C 
ATOM      2  N   UNL     1       3.376   4.770  17.534  0.00  0.00    +0.000 N 
ATOM      3  C   UNL     1       4.457   4.382  16.776  0.00  0.00    +0.000 A 
ATOM      4  C   UNL     1       5.436   5.338  16.911  0.00  0.00    +0.000 A 
ATOM      5  C   UNL     1       4.936   6.329  17.784  0.00  0.00    +0.000 A 
ATOM      6  C   UNL     1       3.635   5.991  18.151  0.00  0.00    +0.000 A 
ENDROOT
BRANCH   6   7
ATOM      7  C   UNL     1       2.708   6.735  19.002  0.00  0.00    +0.000 C 
ATOM      8  O   UNL     1       2.313   6.275  20.070  0.00  0.00    +0.000 OA
ATOM      9  N   UNL     1       2.304   7.962  18.473  0.00  0.00    +0.000 N 
ATOM     10  H   UNL     1       2.556   8.152  17.516  0.00  0.00    +0.000 HD
BRANCH   9  11
ATOM     11  C   UNL     1       1.423   8.897  19.064  0.00  0.00    +0.000 A 
ATOM     12  C   UNL     1       1.212   8.968  20.451  0.00  0.00    +0.000 A 
ATOM     13  C   UNL     1       0.274   9.853  20.995  0.00  0.00    +0.000 A 
ATOM     14  C   UNL     1      -0.438  10.647  20.131  0.00  0.00    +0.000 A 
ATOM     15  C   UNL     1      -0.214  10.619  18.778  0.00  0.00    +0.000 A 
ATOM     16  C   UNL     1       0.725   9.775  18.215  0.00  0.00    +0.000 A 
ATOM     17  O   UNL     1      -1.036  11.473  18.107  0.00  0.00    +0.000 OA
ATOM     18  C   UNL     1      -1.854  11.971  19.190  0.00  0.00    +0.000 C 
ATOM     19  O   UNL     1      -1.420  11.518  20.486  0.00  0.00    +0.000 OA
ENDBRANCH   9  11
ENDBRANCH   6   7
BRANCH   4  20
ATOM     20  S   UNL     1       7.002   5.356  16.154  0.00  0.00    +0.000 S 
ATOM     21  O   UNL     1       7.459   6.718  16.338  0.00  0.00    +0.000 OA
ATOM     22  O   UNL     1       7.678   4.228  16.746  0.00  0.00    +0.000 OA
BRANCH  20  23
ATOM     23  N   UNL     1       6.791   5.063  14.480  0.00  0.00    +0.000 NA
ATOM     24  C   UNL     1       7.943   5.469  13.634  0.00  0.00    +0.000 C 
ATOM     25  C   UNL     1       7.625   5.315  12.150  0.00  0.00    +0.000 C 
ATOM     26  C   UNL     1       7.141   3.908  11.833  0.00  0.00    +0.000 C 
ATOM     27  C   UNL     1       5.914   3.591  12.676  0.00  0.00    +0.000 C 
ATOM     28  C   UNL     1       6.213   3.732  14.163  0.00  0.00    +0.000 C 
ENDBRANCH  20  23
ENDBRANCH   4  20
TORSDOF 4
ENDMDL
MODEL 4
REMARK VINA RESULT:      -7.5      2.398      2.636
REMARK  Name = 
REMARK  5 active torsions:
REMARK  status: ('A' for Active; 'I' for Inactive)
REMARK    1  A    between atoms: C_1  and  N_2
REMARK    2  A    between atoms: C_4  and  S_5
REMARK    3  A    between atoms: S_5  and  N_8
REMARK    4  A    between atoms: C_15  and  C_16
REMARK    5  A    between atoms: N_18  and  C_19
REMARK                            x       y       z     vdW  Elec       q    Type
REMARK                         _______ _______ _______ _____ _____    ______ ____
ROOT
ATOM      1  C   UNL     1       2.906   3.277  20.334  0.00  0.00    +0.000 C 
ATOM      2  N   UNL     1       3.717   4.285  19.676  0.00  0.00    +0.000 N 
ATOM      3  C   UNL     1       4.904   3.985  19.048  0.00  0.00    +0.000 A 
ATOM      4  C   UNL     1       5.423   5.152  18.540  0.00  0.00    +0.000 A 
ATOM      5  C   UNL     1       4.529   6.191  18.879  0.00  0.00    +0.000 A 
ATOM      6  C   UNL     1       3.445   5.647  19.564  0.00  0.00    +0.000 A 
ENDROOT
BRANCH   6   7
ATOM      7  C   UNL     1       2.255   6.327  20.072  0.00  0.00    +0.000 C 
ATOM      8  O   UNL     1       1.316   5.698  20.552  0.00  0.00    +0.000 OA
ATOM      9  N   UNL     1       2.282   7.715  19.926  0.00  0.00    +0.000 N 
ATOM     10  H   UNL     1       3.024   8.101  19.362  0.00  0.00    +0.000 HD
BRANCH   9  11
ATOM     11  C   UNL     1       1.285   8.636  20.324  0.00  0.00    +0.000 A 
ATOM     12  C   UNL     1       0.547   9.397  19.403  0.00  0.00    +0.000 A 
ATOM     13  C   UNL     1      -0.377  10.356  19.835  0.00  0.00    +0.000 A 
ATOM     14  C   UNL     1      -0.536  10.534  21.187  0.00  0.00    +0.000 A 
ATOM     15  C   UNL     1       0.147   9.768  22.099  0.00  0.00    +0.000 A 
ATOM     16  C   UNL     1       1.046   8.795  21.701  0.00  0.00    +0.000 A 
ATOM     17  O   UNL     1      -0.148  10.118  23.381  0.00  0.00    +0.000 OA
ATOM     18  C   UNL     1      -1.028  11.243  23.161  0.00  0.00    +0.000 C 
ATOM     19  O   UNL     1      -1.347  11.454  21.773  0.00  0.00    +0.000 OA
ENDBRANCH   9  11
ENDBRANCH   6   7
BRANCH   4  20
ATOM     20  S   UNL     1       6.897   5.343  17.636  0.00  0.00    +0.000 S 
ATOM     21  O   UNL     1       7.262   6.727  17.858  0.00  0.00    +0.000 OA
ATOM     22  O   UNL     1       7.718   4.247  18.089  0.00  0.00    +0.000 OA
BRANCH  20  23
ATOM     23  N   UNL     1       6.540   5.123  15.976  0.00  0.00    +0.000 NA
ATOM     24  C   UNL     1       7.734   5.020  15.098  0.00  0.00    +0.000 C 
ATOM     25  C   UNL     1       7.340   4.974  13.625  0.00  0.00    +0.000 C 
ATOM     26  C   UNL     1       6.329   3.869  13.360  0.00  0.00    +0.000 C 
ATOM     27  C   UNL     1       5.101   4.083  14.233  0.00  0.00    +0.000 C 
ATOM     28  C   UNL     1       5.473   4.124  15.710  0.00  0.00    +0.000 C 
ENDBRANCH  20  23
ENDBRANCH   4  20
TORSDOF 4
ENDMDL
MODEL 5
REMARK VINA RESULT:      -7.5      2.855      3.889
REMARK  Name = 
REMARK  5 active torsions:
REMARK  status: ('A' for Active; 'I' for Inactive)
REMARK    1  A    between atoms: C_1  and  N_2
REMARK    2  A    between atoms: C_4  and  S_5
REMARK    3  A    between atoms: S_5  and  N_8
REMARK    4  A    between atoms: C_15  and  C_16
REMARK    5  A    between atoms: N_18  and  C_19
REMARK                            x       y       z     vdW  Elec       q    Type
REMARK                         _______ _______ _______ _____ _____    ______ ____
ROOT
ATOM      1  C   UNL     1       1.512   7.779  21.188  0.00  0.00    +0.000 C 
ATOM      2  N   UNL     1       1.963   7.065  20.007  0.00  0.00    +0.000 N 
ATOM      3  C   UNL     1       2.285   5.728  20.029  0.00  0.00    +0.000 A 
ATOM      4  C   UNL     1       2.680   5.364  18.764  0.00  0.00    +0.000 A 
ATOM      5  C   UNL     1       2.605   6.519  17.954  0.00  0.00    +0.000 A 
ATOM      6  C   UNL     1       2.127   7.578  18.722  0.00  0.00    +0.000 A 
ENDROOT
BRANCH   6   7
ATOM      7  C   UNL     1       1.844   8.950  18.305  0.00  0.00    +0.000 C 
ATOM      8  O   UNL     1       2.319   9.414  17.272  0.00  0.00    +0.000 OA
ATOM      9  N   UNL     1       1.037   9.664  19.192  0.00  0.00    +0.000 N 
ATOM     10  H   UNL     1       0.853   9.237  20.087  0.00  0.00    +0.000 HD
BRANCH   9  11
ATOM     11  C   UNL     1       0.593  11.000  19.057  0.00  0.00    +0.000 A 
ATOM     12  C   UNL     1      -0.654  11.331  18.501  0.00  0.00    +0.000 A 
ATOM     13  C   UNL     1      -1.028  12.666  18.310  0.00  0.00    +0.000 A 
ATOM     14  C   UNL     1      -0.137  13.643  18.678  0.00  0.00    +0.000 A 
ATOM     15  C   UNL     1       1.067  13.337  19.261  0.00  0.00    +0.000 A 
ATOM     16  C   UNL     1       1.451  12.028  19.486  0.00  0.00    +0.000 A 
ATOM     17  O   UNL     1       1.801  14.451  19.533  0.00  0.00    +0.000 OA
ATOM     18  C   UNL     1       0.951  15.479  18.976  0.00  0.00    +0.000 C 
ATOM     19  O   UNL     1      -0.318  14.981  18.513  0.00  0.00    +0.000 OA
ENDBRANCH   9  11
ENDBRANCH   6   7
BRANCH   4  20
ATOM     20  S   UNL     1       3.177   3.786  18.228  0.00  0.00    +0.000 S 
ATOM     21  O   UNL     1       3.215   3.003  19.446  0.00  0.00    +0.000 OA
ATOM     22  O   UNL     1       2.266   3.492  17.149  0.00  0.00    +0.000 OA
BRANCH  20  23
ATOM     23  N   UNL     1       4.764   3.909  17.597  0.00  0.00    +0.000 NA
ATOM     24  C   UNL     1       4.828   4.155  16.133  0.00  0.00    +0.000 C 
ATOM     25  C   UNL     1       6.264   4.105  15.622  0.00  0.00    +0.000 C 
ATOM     26  C   UNL     1       7.162   5.049  16.409  0.00  0.00    +0.000 C 
ATOM     27  C   UNL     1       7.109   4.688  17.885  0.00  0.00    +0.000 C 
ATOM     28  C   UNL     1       5.682   4.740  18.417  0.00  0.00    +0.000 C 
ENDBRANCH  20  23
ENDBRANCH   4  20
TORSDOF 4
ENDMDL
MODEL 6
REMARK VINA RESULT:      -7.4      2.150      2.621
REMARK  Name = 
REMARK  5 active torsions:
REMARK  status: ('A' for Active; 'I' for Inactive)
REMARK    1  A    between atoms: C_1  and  N_2
REMARK    2  A    between atoms: C_4  and  S_5
REMARK    3  A    between atoms: S_5  and  N_8
REMARK    4  A    between atoms: C_15  and  C_16
REMARK    5  A    between atoms: N_18  and  C_19
REMARK                            x       y       z     vdW  Elec       q    Type
REMARK                         _______ _______ _______ _____ _____    ______ ____
ROOT
ATOM      1  C   UNL     1       3.587   3.197  19.957  0.00  0.00    +0.000 C 
ATOM      2  N   UNL     1       4.207   4.155  19.061  0.00  0.00    +0.000 N 
ATOM      3  C   UNL     1       5.361   3.878  18.365  0.00  0.00    +0.000 A 
ATOM      4  C   UNL     1       5.687   4.988  17.621  0.00  0.00    +0.000 A 
ATOM      5  C   UNL     1       4.707   5.970  17.884  0.00  0.00    +0.000 A 
ATOM      6  C   UNL     1       3.762   5.441  18.761  0.00  0.00    +0.000 A 
ENDROOT
BRANCH   6   7
ATOM      7  C   UNL     1       2.549   6.070  19.279  0.00  0.00    +0.000 C 
ATOM      8  O   UNL     1       1.538   5.412  19.512  0.00  0.00    +0.000 OA
ATOM      9  N   UNL     1       2.645   7.453  19.441  0.00  0.00    +0.000 N 
ATOM     10  H   UNL     1       3.460   7.903  19.054  0.00  0.00    +0.000 HD
BRANCH   9  11
ATOM     11  C   UNL     1       1.644   8.328  19.925  0.00  0.00    +0.000 A 
ATOM     12  C   UNL     1       1.011   9.279  19.107  0.00  0.00    +0.000 A 
ATOM     13  C   UNL     1       0.082  10.182  19.636  0.00  0.00    +0.000 A 
ATOM     14  C   UNL     1      -0.189  10.114  20.980  0.00  0.00    +0.000 A 
ATOM     15  C   UNL     1       0.390   9.163  21.783  0.00  0.00    +0.000 A 
ATOM     16  C   UNL     1       1.291   8.241  21.283  0.00  0.00    +0.000 A 
ATOM     17  O   UNL     1      -0.006   9.282  23.081  0.00  0.00    +0.000 OA
ATOM     18  C   UNL     1      -0.830  10.467  23.007  0.00  0.00    +0.000 C 
ATOM     19  O   UNL     1      -1.021  10.945  21.662  0.00  0.00    +0.000 OA
ENDBRANCH   9  11
ENDBRANCH   6   7
BRANCH   4  20
ATOM     20  S   UNL     1       7.040   5.174  16.545  0.00  0.00    +0.000 S 
ATOM     21  O   UNL     1       7.119   6.605  16.333  0.00  0.00    +0.000 OA
ATOM     22  O   UNL     1       8.094   4.430  17.191  0.00  0.00    +0.000 OA
BRANCH  20  23
ATOM     23  N   UNL     1       6.652   4.414  15.060  0.00  0.00    +0.000 NA
ATOM     24  C   UNL     1       5.196   4.256  14.811  0.00  0.00    +0.000 C 
ATOM     25  C   UNL     1       4.932   3.443  13.548  0.00  0.00    +0.000 C 
ATOM     26  C   UNL     1       5.665   4.031  12.351  0.00  0.00    +0.000 C 
ATOM     27  C   UNL     1       7.156   4.088  12.646  0.00  0.00    +0.000 C 
ATOM     28  C   UNL     1       7.442   4.903  13.901  0.00  0.00    +0.000 C 
ENDBRANCH  20  23
ENDBRANCH   4  20
TORSDOF 4
ENDMDL
MODEL 7
REMARK VINA RESULT:      -7.3      3.066      4.462
REMARK  Name = 
REMARK  5 active torsions:
REMARK  status: ('A' for Active; 'I' for Inactive)
REMARK    1  A    between atoms: C_1  and  N_2
REMARK    2  A    between atoms: C_4  and  S_5
REMARK    3  A    between atoms: S_5  and  N_8
REMARK    4  A    between atoms: C_15  and  C_16
REMARK    5  A    between atoms: N_18  and  C_19
REMARK                            x       y       z     vdW  Elec       q    Type
REMARK                         _______ _______ _______ _____ _____    ______ ____
ROOT
ATOM      1  C   UNL     1       1.740   9.969  18.036  0.00  0.00    +0.000 C 
ATOM      2  N   UNL     1       1.959   8.707  18.717  0.00  0.00    +0.000 N 
ATOM      3  C   UNL     1       2.541   7.624  18.098  0.00  0.00    +0.000 A 
ATOM      4  C   UNL     1       2.594   6.593  19.006  0.00  0.00    +0.000 A 
ATOM      5  C   UNL     1       2.019   7.062  20.208  0.00  0.00    +0.000 A 
ATOM      6  C   UNL     1       1.649   8.395  20.039  0.00  0.00    +0.000 A 
ENDROOT
BRANCH   6   7
ATOM      7  C   UNL     1       1.058   9.305  21.018  0.00  0.00    +0.000 C 
ATOM      8  O   UNL     1       1.540   9.438  22.140  0.00  0.00    +0.000 OA
ATOM      9  N   UNL     1      -0.093   9.957  20.572  0.00  0.00    +0.000 N 
ATOM     10  H   UNL     1      -0.490   9.638  19.701  0.00  0.00    +0.000 HD
BRANCH   9  11
ATOM     11  C   UNL     1      -0.876  10.893  21.287  0.00  0.00    +0.000 A 
ATOM     12  C   UNL     1      -1.077  10.808  22.675  0.00  0.00    +0.000 A 
ATOM     13  C   UNL     1      -1.921  11.705  23.338  0.00  0.00    +0.000 A 
ATOM     14  C   UNL     1      -2.554  12.668  22.591  0.00  0.00    +0.000 A 
ATOM     15  C   UNL     1      -2.335  12.789  21.241  0.00  0.00    +0.000 A 
ATOM     16  C   UNL     1      -1.485  11.934  20.564  0.00  0.00    +0.000 A 
ATOM     17  O   UNL     1      -3.070  13.797  20.694  0.00  0.00    +0.000 OA
ATOM     18  C   UNL     1      -3.832  14.232  21.842  0.00  0.00    +0.000 C 
ATOM     19  O   UNL     1      -3.443  13.580  23.065  0.00  0.00    +0.000 OA
ENDBRANCH   9  11
ENDBRANCH   6   7
BRANCH   4  20
ATOM     20  S   UNL     1       3.249   5.001  18.755  0.00  0.00    +0.000 S 
ATOM     21  O   UNL     1       3.293   4.431  20.085  0.00  0.00    +0.000 OA
ATOM     22  O   UNL     1       2.422   4.455  17.707  0.00  0.00    +0.000 OA
BRANCH  20  23
ATOM     23  N   UNL     1       4.850   5.167  18.169  0.00  0.00    +0.000 NA
ATOM     24  C   UNL     1       5.882   5.313  19.228  0.00  0.00    +0.000 C 
ATOM     25  C   UNL     1       7.255   5.603  18.632  0.00  0.00    +0.000 C 
ATOM     26  C   UNL     1       7.635   4.560  17.592  0.00  0.00    +0.000 C 
ATOM     27  C   UNL     1       6.578   4.522  16.499  0.00  0.00    +0.000 C 
ATOM     28  C   UNL     1       5.198   4.226  17.074  0.00  0.00    +0.000 C 
ENDBRANCH  20  23
ENDBRANCH   4  20
TORSDOF 4
ENDMDL
MODEL 8
REMARK VINA RESULT:      -7.3      1.407      1.797
REMARK  Name = 
REMARK  5 active torsions:
REMARK  status: ('A' for Active; 'I' for Inactive)
REMARK    1  A    between atoms: C_1  and  N_2
REMARK    2  A    between atoms: C_4  and  S_5
REMARK    3  A    between atoms: S_5  and  N_8
REMARK    4  A    between atoms: C_15  and  C_16
REMARK    5  A    between atoms: N_18  and  C_19
REMARK                            x       y       z     vdW  Elec       q    Type
REMARK                         _______ _______ _______ _____ _____    ______ ____
ROOT
ATOM      1  C   UNL     1       2.648   3.192  18.268  0.00  0.00    +0.000 C 
ATOM      2  N   UNL     1       3.701   4.143  17.964  0.00  0.00    +0.000 N 
ATOM      3  C   UNL     1       4.805   3.809  17.212  0.00  0.00    +0.000 A 
ATOM      4  C   UNL     1       5.608   4.921  17.117  0.00  0.00    +0.000 A 
ATOM      5  C   UNL     1       4.976   5.956  17.842  0.00  0.00    +0.000 A 
ATOM      6  C   UNL     1       3.768   5.481  18.347  0.00  0.00    +0.000 A 
ENDROOT
BRANCH   6   7
ATOM      7  C   UNL     1       2.758   6.201  19.120  0.00  0.00    +0.000 C 
ATOM      8  O   UNL     1       2.113   5.643  20.004  0.00  0.00    +0.000 OA
ATOM      9  N   UNL     1       2.585   7.532  18.736  0.00  0.00    +0.000 N 
ATOM     10  H   UNL     1       3.043   7.826  17.888  0.00  0.00    +0.000 HD
BRANCH   9  11
ATOM     11  C   UNL     1       1.691   8.473  19.298  0.00  0.00    +0.000 A 
ATOM     12  C   UNL     1       1.348   8.471  20.660  0.00  0.00    +0.000 A 
ATOM     13  C   UNL     1       0.400   9.367  21.167  0.00  0.00    +0.000 A 
ATOM     14  C   UNL     1      -0.189  10.246  20.292  0.00  0.00    +0.000 A 
ATOM     15  C   UNL     1       0.166  10.287  18.967  0.00  0.00    +0.000 A 
ATOM     16  C   UNL     1       1.119   9.432  18.444  0.00  0.00    +0.000 A 
ATOM     17  O   UNL     1      -0.548  11.219  18.276  0.00  0.00    +0.000 OA
ATOM     18  C   UNL     1      -1.446  11.691  19.306  0.00  0.00    +0.000 C 
ATOM     19  O   UNL     1      -1.162  11.142  20.606  0.00  0.00    +0.000 OA
ENDBRANCH   9  11
ENDBRANCH   6   7
BRANCH   4  20
ATOM     20  S   UNL     1       7.117   5.061  16.265  0.00  0.00    +0.000 S 
ATOM     21  O   UNL     1       7.328   6.491  16.167  0.00  0.00    +0.000 OA
ATOM     22  O   UNL     1       8.006   4.198  17.004  0.00  0.00    +0.000 OA
BRANCH  20  23
ATOM     23  N   UNL     1       6.904   4.422  14.690  0.00  0.00    +0.000 NA
ATOM     24  C   UNL     1       5.495   4.111  14.337  0.00  0.00    +0.000 C 
ATOM     25  C   UNL     1       5.401   3.412  12.984  0.00  0.00    +0.000 C 
ATOM     26  C   UNL     1       6.108   4.213  11.901  0.00  0.00    +0.000 C 
ATOM     27  C   UNL     1       7.563   4.423  12.291  0.00  0.00    +0.000 C 
ATOM     28  C   UNL     1       7.678   5.128  13.637  0.00  0.00    +0.000 C 
ENDBRANCH  20  23
ENDBRANCH   4  20
TORSDOF 4
ENDMDL
MODEL 9
REMARK VINA RESULT:      -7.3      2.784      3.305
REMARK  Name = 
REMARK  5 active torsions:
REMARK  status: ('A' for Active; 'I' for Inactive)
REMARK    1  A    between atoms: C_1  and  N_2
REMARK    2  A    between atoms: C_4  and  S_5
REMARK    3  A    between atoms: S_5  and  N_8
REMARK    4  A    between atoms: C_15  and  C_16
REMARK    5  A    between atoms: N_18  and  C_19
REMARK                            x       y       z     vdW  Elec       q    Type
REMARK                         _______ _______ _______ _____ _____    ______ ____
ROOT
ATOM      1  C   UNL     1       0.698   4.949  20.503  0.00  0.00    +0.000 C 
ATOM      2  N   UNL     1       2.027   5.338  20.068  0.00  0.00    +0.000 N 
ATOM      3  C   UNL     1       3.017   4.418  19.804  0.00  0.00    +0.000 A 
ATOM      4  C   UNL     1       4.146   5.106  19.427  0.00  0.00    +0.000 A 
ATOM      5  C   UNL     1       3.834   6.483  19.475  0.00  0.00    +0.000 A 
ATOM      6  C   UNL     1       2.499   6.629  19.846  0.00  0.00    +0.000 A 
ENDROOT
BRANCH   6   7
ATOM      7  C   UNL     1       1.723   7.860  19.984  0.00  0.00    +0.000 C 
ATOM      8  O   UNL     1       1.385   8.515  19.001  0.00  0.00    +0.000 OA
ATOM      9  N   UNL     1       1.449   8.219  21.304  0.00  0.00    +0.000 N 
ATOM     10  H   UNL     1       1.925   7.702  22.027  0.00  0.00    +0.000 HD
BRANCH   9  11
ATOM     11  C   UNL     1       0.720   9.347  21.749  0.00  0.00    +0.000 A 
ATOM     12  C   UNL     1      -0.182   9.290  22.824  0.00  0.00    +0.000 A 
ATOM     13  C   UNL     1      -0.945  10.405  23.187  0.00  0.00    +0.000 A 
ATOM     14  C   UNL     1      -0.790  11.557  22.457  0.00  0.00    +0.000 A 
ATOM     15  C   UNL     1       0.117  11.641  21.431  0.00  0.00    +0.000 A 
ATOM     16  C   UNL     1       0.904  10.563  21.067  0.00  0.00    +0.000 A 
ATOM     17  O   UNL     1       0.100  12.864  20.833  0.00  0.00    +0.000 OA
ATOM     18  C   UNL     1      -0.980  13.502  21.551  0.00  0.00    +0.000 C 
ATOM     19  O   UNL     1      -1.488  12.709  22.640  0.00  0.00    +0.000 OA
ENDBRANCH   9  11
ENDBRANCH   6   7
BRANCH   4  20
ATOM     20  S   UNL     1       5.682   4.435  18.965  0.00  0.00    +0.000 S 
ATOM     21  O   UNL     1       6.644   5.243  19.685  0.00  0.00    +0.000 OA
ATOM     22  O   UNL     1       5.524   3.022  19.210  0.00  0.00    +0.000 OA
BRANCH  20  23
ATOM     23  N   UNL     1       5.893   4.687  17.284  0.00  0.00    +0.000 NA
ATOM     24  C   UNL     1       7.299   4.580  16.816  0.00  0.00    +0.000 C 
ATOM     25  C   UNL     1       7.428   4.960  15.345  0.00  0.00    +0.000 C 
ATOM     26  C   UNL     1       6.467   4.156  14.482  0.00  0.00    +0.000 C 
ATOM     27  C   UNL     1       5.042   4.377  14.967  0.00  0.00    +0.000 C 
ATOM     28  C   UNL     1       4.891   3.995  16.434  0.00  0.00    +0.000 C 
ENDBRANCH  20  23
ENDBRANCH   4  20
TORSDOF 4
ENDMDL
