MODEL 1
REMARK VINA RESULT:      -8.3      0.000      0.000
REMARK  Name = 
REMARK  8 active torsions:
REMARK  status: ('A' for Active; 'I' for Inactive)
REMARK    1  A    between atoms: C_1  and  O_2
REMARK    2  A    between atoms: O_2  and  C_3
REMARK    3  A    between atoms: C_8  and  C_9
REMARK    4  A    between atoms: N_15  and  C_16
REMARK    5  A    between atoms: C_16  and  C_17
REMARK    6  A    between atoms: C_22  and  C_23
REMARK    7  A    between atoms: C_24  and  C_25
REMARK    8  A    between atoms: C_25  and  C_26
REMARK                            x       y       z     vdW  Elec       q    Type
REMARK                         _______ _______ _______ _____ _____    ______ ____
ROOT
ATOM      1  C   UNL     1       0.184   9.876  22.439  0.00  0.00    +0.000 C 
ATOM      2  O   UNL     1       0.655   9.921  23.572  0.00  0.00    +0.000 OA
ATOM      3  N   UNL     1      -0.812  10.754  22.009  0.00  0.00    +0.000 N 
ATOM      4  C   UNL     1      -1.334  11.695  22.990  0.00  0.00    +0.000 C 
ATOM      5  C   UNL     1      -2.653  12.380  22.606  0.00  0.00    +0.000 C 
ATOM      6  O   UNL     1      -3.357  12.888  23.481  0.00  0.00    +0.000 OA
ATOM      7  N   UNL     1      -2.914  12.554  21.241  0.00  0.00    +0.000 N 
ATOM      8  C   UNL     1      -2.243  11.702  20.230  0.00  0.00    +0.000 C 
ATOM      9  C   UNL     1      -0.831  11.262  20.645  0.00  0.00    +0.000 C 
ENDROOT
BRANCH   1  15
ATOM     10  C   UNL     1       2.888   6.249  18.417  0.00  0.00    +0.000 A 
ATOM     11  C   UNL     1       2.541   5.291  19.372  0.00  0.00    +0.000 A 
ATOM     12  C   UNL     1       1.794   5.630  20.508  0.00  0.00    +0.000 A 
ATOM     13  C   UNL     1       1.412   6.965  20.653  0.00  0.00    +0.000 A 
ATOM     14  N   UNL     1       0.697   7.584  21.651  0.00  0.00    +0.000 N 
ATOM     15  C   UNL     1       0.681   8.945  21.454  0.00  0.00    +0.000 A 
ATOM     16  C   UNL     1       1.211   9.169  20.195  0.00  0.00    +0.000 A 
ATOM     17  C   UNL     1       1.740   7.944  19.717  0.00  0.00    +0.000 A 
ATOM     18  C   UNL     1       2.489   7.581  18.584  0.00  0.00    +0.000 A 
ATOM     19  H   UNL     1       0.329   7.127  22.475  0.00  0.00    +0.000 HD
BRANCH  10  21
ATOM     20  C   UNL     1       4.288   4.770  17.195  0.00  0.00    +0.000 C 
ATOM     21  O   UNL     1       3.618   6.020  17.281  0.00  0.00    +0.000 OA
ENDBRANCH  10  21
ENDBRANCH   1  15
BRANCH   7  22
ATOM     22  C   UNL     1      -4.136  13.294  20.872  0.00  0.00    +0.000 C 
BRANCH  22  23
ATOM     23  C   UNL     1      -5.409  12.467  20.791  0.00  0.00    +0.000 A 
ATOM     24  C   UNL     1      -5.550  11.500  19.774  0.00  0.00    +0.000 A 
ATOM     25  C   UNL     1      -6.674  10.679  19.697  0.00  0.00    +0.000 A 
ATOM     26  C   UNL     1      -7.674  10.788  20.653  0.00  0.00    +0.000 A 
ATOM     27  C   UNL     1      -7.541  11.715  21.689  0.00  0.00    +0.000 A 
ATOM     28  C   UNL     1      -6.424  12.563  21.772  0.00  0.00    +0.000 A 
ATOM     29  C   UNL     1      -6.328  13.475  22.966  0.00  0.00    +0.000 C 
ENDBRANCH  22  23
ENDBRANCH   7  22
BRANCH   8  30
ATOM     30  C   UNL     1      -2.190  12.270  18.789  0.00  0.00    +0.000 C 
BRANCH  30  31
ATOM     31  C   UNL     1      -2.500  11.354  17.621  0.00  0.00    +0.000 A 
ATOM     32  C   UNL     1      -1.692  10.278  17.225  0.00  0.00    +0.000 A 
ATOM     33  C   UNL     1      -2.008   9.511  16.105  0.00  0.00    +0.000 A 
ATOM     34  C   UNL     1      -3.137   9.812  15.353  0.00  0.00    +0.000 A 
ATOM     35  C   UNL     1      -3.962  10.867  15.735  0.00  0.00    +0.000 A 
ATOM     36  C   UNL     1      -3.650  11.627  16.864  0.00  0.00    +0.000 A 
ENDBRANCH  30  31
ENDBRANCH   8  30
TORSDOF 6
ENDMDL
MODEL 2
REMARK VINA RESULT:      -8.1      1.905      2.504
REMARK  Name = 
REMARK  8 active torsions:
REMARK  status: ('A' for Active; 'I' for Inactive)
REMARK    1  A    between atoms: C_1  and  O_2
REMARK    2  A    between atoms: O_2  and  C_3
REMARK    3  A    between atoms: C_8  and  C_9
REMARK    4  A    between atoms: N_15  and  C_16
REMARK    5  A    between atoms: C_16  and  C_17
REMARK    6  A    between atoms: C_22  and  C_23
REMARK    7  A    between atoms: C_24  and  C_25
REMARK    8  A    between atoms: C_25  and  C_26
REMARK                            x       y       z     vdW  Elec       q    Type
REMARK                         _______ _______ _______ _____ _____    ______ ____
ROOT
ATOM      1  C   UNL     1       0.811  12.569  19.878  0.00  0.00    +0.000 C 
ATOM      2  O   UNL     1       1.747  13.363  19.918  0.00  0.00    +0.000 OA
ATOM      3  N   UNL     1      -0.517  12.972  20.029  0.00  0.00    +0.000 N 
ATOM      4  C   UNL     1      -0.753  14.380  20.312  0.00  0.00    +0.000 C 
ATOM      5  C   UNL     1      -2.159  14.719  20.827  0.00  0.00    +0.000 C 
ATOM      6  O   UNL     1      -2.350  15.775  21.435  0.00  0.00    +0.000 OA
ATOM      7  N   UNL     1      -3.210  13.886  20.426  0.00  0.00    +0.000 N 
ATOM      8  C   UNL     1      -2.943  12.501  19.970  0.00  0.00    +0.000 C 
ATOM      9  C   UNL     1      -1.586  12.341  19.268  0.00  0.00    +0.000 C 
ENDROOT
BRANCH   1  15
ATOM     10  C   UNL     1       2.369   6.850  18.650  0.00  0.00    +0.000 A 
ATOM     11  C   UNL     1       2.028   6.696  19.995  0.00  0.00    +0.000 A 
ATOM     12  C   UNL     1       1.507   7.760  20.742  0.00  0.00    +0.000 A 
ATOM     13  C   UNL     1       1.344   8.986  20.092  0.00  0.00    +0.000 A 
ATOM     14  N   UNL     1       0.874  10.189  20.563  0.00  0.00    +0.000 N 
ATOM     15  C   UNL     1       1.024  11.166  19.608  0.00  0.00    +0.000 A 
ATOM     16  C   UNL     1       1.396  10.525  18.438  0.00  0.00    +0.000 A 
ATOM     17  C   UNL     1       1.672   9.170  18.751  0.00  0.00    +0.000 A 
ATOM     18  C   UNL     1       2.191   8.087  18.020  0.00  0.00    +0.000 A 
ATOM     19  H   UNL     1       0.566  10.365  21.510  0.00  0.00    +0.000 HD
BRANCH  10  21
ATOM     20  C   UNL     1       3.663   4.866  18.472  0.00  0.00    +0.000 C 
ATOM     21  O   UNL     1       2.889   5.876  17.839  0.00  0.00    +0.000 OA
ENDBRANCH  10  21
ENDBRANCH   1  15
BRANCH   7  22
ATOM     22  C   UNL     1      -4.574  14.263  20.844  0.00  0.00    +0.000 C 
BRANCH  22  23
ATOM     23  C   UNL     1      -5.115  13.534  22.063  0.00  0.00    +0.000 A 
ATOM     24  C   UNL     1      -4.281  13.326  23.180  0.00  0.00    +0.000 A 
ATOM     25  C   UNL     1      -4.751  12.715  24.341  0.00  0.00    +0.000 A 
ATOM     26  C   UNL     1      -6.080  12.322  24.422  0.00  0.00    +0.000 A 
ATOM     27  C   UNL     1      -6.934  12.548  23.341  0.00  0.00    +0.000 A 
ATOM     28  C   UNL     1      -6.473  13.145  22.157  0.00  0.00    +0.000 A 
ATOM     29  C   UNL     1      -7.483  13.422  21.076  0.00  0.00    +0.000 C 
ENDBRANCH  22  23
ENDBRANCH   7  22
BRANCH   8  30
ATOM     30  C   UNL     1      -4.042  11.849  19.094  0.00  0.00    +0.000 C 
BRANCH  30  31
ATOM     31  C   UNL     1      -3.641  11.110  17.831  0.00  0.00    +0.000 A 
ATOM     32  C   UNL     1      -2.722  10.051  17.796  0.00  0.00    +0.000 A 
ATOM     33  C   UNL     1      -2.356   9.454  16.590  0.00  0.00    +0.000 A 
ATOM     34  C   UNL     1      -2.895   9.913  15.395  0.00  0.00    +0.000 A 
ATOM     35  C   UNL     1      -3.819  10.955  15.408  0.00  0.00    +0.000 A 
ATOM     36  C   UNL     1      -4.194  11.543  16.617  0.00  0.00    +0.000 A 
ENDBRANCH  30  31
ENDBRANCH   8  30
TORSDOF 6
ENDMDL
MODEL 3
REMARK VINA RESULT:      -7.9      2.937      5.101
REMARK  Name = 
REMARK  8 active torsions:
REMARK  status: ('A' for Active; 'I' for Inactive)
REMARK    1  A    between atoms: C_1  and  O_2
REMARK    2  A    between atoms: O_2  and  C_3
REMARK    3  A    between atoms: C_8  and  C_9
REMARK    4  A    between atoms: N_15  and  C_16
REMARK    5  A    between atoms: C_16  and  C_17
REMARK    6  A    between atoms: C_22  and  C_23
REMARK    7  A    between atoms: C_24  and  C_25
REMARK    8  A    between atoms: C_25  and  C_26
REMARK                            x       y       z     vdW  Elec       q    Type
REMARK                         _______ _______ _______ _____ _____    ______ ____
ROOT
ATOM      1  C   UNL     1       1.250  12.760  18.615  0.00  0.00    +0.000 C 
ATOM      2  O   UNL     1       2.072  13.293  17.875  0.00  0.00    +0.000 OA
ATOM      3  N   UNL     1       0.199  13.471  19.199  0.00  0.00    +0.000 N 
ATOM      4  C   UNL     1       0.153  14.904  18.953  0.00  0.00    +0.000 C 
ATOM      5  C   UNL     1      -0.773  15.700  19.884  0.00  0.00    +0.000 C 
ATOM      6  O   UNL     1      -0.613  16.915  20.014  0.00  0.00    +0.000 OA
ATOM      7  N   UNL     1      -1.883  15.031  20.414  0.00  0.00    +0.000 N 
ATOM      8  C   UNL     1      -1.900  13.551  20.502  0.00  0.00    +0.000 C 
ATOM      9  C   UNL     1      -1.113  12.864  19.375  0.00  0.00    +0.000 C 
ENDROOT
BRANCH   1  15
ATOM     10  C   UNL     1       2.077   6.863  19.702  0.00  0.00    +0.000 A 
ATOM     11  C   UNL     1       1.534   7.235  20.933  0.00  0.00    +0.000 A 
ATOM     12  C   UNL     1       1.081   8.540  21.167  0.00  0.00    +0.000 A 
ATOM     13  C   UNL     1       1.198   9.459  20.123  0.00  0.00    +0.000 A 
ATOM     14  N   UNL     1       0.855  10.789  20.063  0.00  0.00    +0.000 N 
ATOM     15  C   UNL     1       1.283  11.340  18.879  0.00  0.00    +0.000 A 
ATOM     16  C   UNL     1       1.712  10.291  18.085  0.00  0.00    +0.000 A 
ATOM     17  C   UNL     1       1.733   9.118  18.882  0.00  0.00    +0.000 A 
ATOM     18  C   UNL     1       2.179   7.802  18.669  0.00  0.00    +0.000 A 
ATOM     19  H   UNL     1       0.449  11.322  20.822  0.00  0.00    +0.000 HD
BRANCH  10  21
ATOM     20  C   UNL     1       3.955   5.424  19.487  0.00  0.00    +0.000 C 
ATOM     21  O   UNL     1       2.551   5.619  19.378  0.00  0.00    +0.000 OA
ENDBRANCH  10  21
ENDBRANCH   1  15
BRANCH   7  22
ATOM     22  C   UNL     1      -2.824  15.818  21.234  0.00  0.00    +0.000 C 
BRANCH  22  23
ATOM     23  C   UNL     1      -2.633  15.716  22.738  0.00  0.00    +0.000 A 
ATOM     24  C   UNL     1      -1.365  15.388  23.261  0.00  0.00    +0.000 A 
ATOM     25  C   UNL     1      -1.130  15.341  24.634  0.00  0.00    +0.000 A 
ATOM     26  C   UNL     1      -2.154  15.648  25.519  0.00  0.00    +0.000 A 
ATOM     27  C   UNL     1      -3.409  16.009  25.025  0.00  0.00    +0.000 A 
ATOM     28  C   UNL     1      -3.669  16.043  23.645  0.00  0.00    +0.000 A 
ATOM     29  C   UNL     1      -5.027  16.520  23.203  0.00  0.00    +0.000 C 
ENDBRANCH  22  23
ENDBRANCH   7  22
BRANCH   8  30
ATOM     30  C   UNL     1      -3.299  12.892  20.611  0.00  0.00    +0.000 C 
BRANCH  30  31
ATOM     31  C   UNL     1      -3.962  12.787  21.971  0.00  0.00    +0.000 A 
ATOM     32  C   UNL     1      -3.303  12.381  23.141  0.00  0.00    +0.000 A 
ATOM     33  C   UNL     1      -3.989  12.251  24.348  0.00  0.00    +0.000 A 
ATOM     34  C   UNL     1      -5.352  12.517  24.405  0.00  0.00    +0.000 A 
ATOM     35  C   UNL     1      -6.024  12.934  23.259  0.00  0.00    +0.000 A 
ATOM     36  C   UNL     1      -5.333  13.076  22.055  0.00  0.00    +0.000 A 
ENDBRANCH  30  31
ENDBRANCH   8  30
TORSDOF 6
ENDMDL
MODEL 4
REMARK VINA RESULT:      -7.9      1.900      2.736
REMARK  Name = 
REMARK  8 active torsions:
REMARK  status: ('A' for Active; 'I' for Inactive)
REMARK    1  A    between atoms: C_1  and  O_2
REMARK    2  A    between atoms: O_2  and  C_3
REMARK    3  A    between atoms: C_8  and  C_9
REMARK    4  A    between atoms: N_15  and  C_16
REMARK    5  A    between atoms: C_16  and  C_17
REMARK    6  A    between atoms: C_22  and  C_23
REMARK    7  A    between atoms: C_24  and  C_25
REMARK    8  A    between atoms: C_25  and  C_26
REMARK                            x       y       z     vdW  Elec       q    Type
REMARK                         _______ _______ _______ _____ _____    ______ ____
ROOT
ATOM      1  C   UNL     1       0.486   9.458  22.041  0.00  0.00    +0.000 C 
ATOM      2  O   UNL     1       0.779   9.262  23.217  0.00  0.00    +0.000 OA
ATOM      3  N   UNL     1      -0.424  10.443  21.652  0.00  0.00    +0.000 N 
ATOM      4  C   UNL     1      -1.077  11.196  22.712  0.00  0.00    +0.000 C 
ATOM      5  C   UNL     1      -2.314  11.997  22.282  0.00  0.00    +0.000 C 
ATOM      6  O   UNL     1      -3.137  12.354  23.127  0.00  0.00    +0.000 OA
ATOM      7  N   UNL     1      -2.363  12.444  20.955  0.00  0.00    +0.000 N 
ATOM      8  C   UNL     1      -1.556  11.777  19.905  0.00  0.00    +0.000 C 
ATOM      9  C   UNL     1      -0.228  11.206  20.427  0.00  0.00    +0.000 C 
ENDROOT
BRANCH   1  15
ATOM     10  C   UNL     1       3.662   6.774  17.642  0.00  0.00    +0.000 A 
ATOM     11  C   UNL     1       3.661   5.733  18.573  0.00  0.00    +0.000 A 
ATOM     12  C   UNL     1       2.957   5.834  19.780  0.00  0.00    +0.000 A 
ATOM     13  C   UNL     1       2.258   7.019  20.021  0.00  0.00    +0.000 A 
ATOM     14  N   UNL     1       1.500   7.402  21.102  0.00  0.00    +0.000 N 
ATOM     15  C   UNL     1       1.116   8.715  20.974  0.00  0.00    +0.000 A 
ATOM     16  C   UNL     1       1.454   9.104  19.690  0.00  0.00    +0.000 A 
ATOM     17  C   UNL     1       2.237   8.073  19.111  0.00  0.00    +0.000 A 
ATOM     18  C   UNL     1       2.949   7.949  17.906  0.00  0.00    +0.000 A 
ATOM     19  H   UNL     1       1.338   6.842  21.929  0.00  0.00    +0.000 HD
BRANCH  10  21
ATOM     20  C   UNL     1       5.261   5.729  16.230  0.00  0.00    +0.000 C 
ATOM     21  O   UNL     1       4.321   6.774  16.441  0.00  0.00    +0.000 OA
ENDBRANCH  10  21
ENDBRANCH   1  15
BRANCH   7  22
ATOM     22  C   UNL     1      -3.505  13.291  20.565  0.00  0.00    +0.000 C 
BRANCH  22  23
ATOM     23  C   UNL     1      -4.719  12.553  20.023  0.00  0.00    +0.000 A 
ATOM     24  C   UNL     1      -4.636  11.886  18.784  0.00  0.00    +0.000 A 
ATOM     25  C   UNL     1      -5.705  11.149  18.277  0.00  0.00    +0.000 A 
ATOM     26  C   UNL     1      -6.876  11.039  19.013  0.00  0.00    +0.000 A 
ATOM     27  C   UNL     1      -6.971  11.663  20.259  0.00  0.00    +0.000 A 
ATOM     28  C   UNL     1      -5.911  12.425  20.776  0.00  0.00    +0.000 A 
ATOM     29  C   UNL     1      -6.073  12.995  22.160  0.00  0.00    +0.000 C 
ENDBRANCH  22  23
ENDBRANCH   7  22
BRANCH   8  30
ATOM     30  C   UNL     1      -1.277  12.611  18.630  0.00  0.00    +0.000 C 
BRANCH  30  31
ATOM     31  C   UNL     1      -0.107  13.577  18.618  0.00  0.00    +0.000 A 
ATOM     32  C   UNL     1       1.206  13.222  18.276  0.00  0.00    +0.000 A 
ATOM     33  C   UNL     1       2.245  14.150  18.343  0.00  0.00    +0.000 A 
ATOM     34  C   UNL     1       1.990  15.450  18.762  0.00  0.00    +0.000 A 
ATOM     35  C   UNL     1       0.692  15.828  19.093  0.00  0.00    +0.000 A 
ATOM     36  C   UNL     1      -0.349  14.902  19.014  0.00  0.00    +0.000 A 
ENDBRANCH  30  31
ENDBRANCH   8  30
TORSDOF 6
ENDMDL
MODEL 5
REMARK VINA RESULT:      -7.9      1.895      2.966
REMARK  Name = 
REMARK  8 active torsions:
REMARK  status: ('A' for Active; 'I' for Inactive)
REMARK    1  A    between atoms: C_1  and  O_2
REMARK    2  A    between atoms: O_2  and  C_3
REMARK    3  A    between atoms: C_8  and  C_9
REMARK    4  A    between atoms: N_15  and  C_16
REMARK    5  A    between atoms: C_16  and  C_17
REMARK    6  A    between atoms: C_22  and  C_23
REMARK    7  A    between atoms: C_24  and  C_25
REMARK    8  A    between atoms: C_25  and  C_26
REMARK                            x       y       z     vdW  Elec       q    Type
REMARK                         _______ _______ _______ _____ _____    ______ ____
ROOT
ATOM      1  C   UNL     1       0.094   9.857  22.508  0.00  0.00    +0.000 C 
ATOM      2  O   UNL     1       0.299   9.673  23.705  0.00  0.00    +0.000 OA
ATOM      3  N   UNL     1      -0.856  10.769  22.046  0.00  0.00    +0.000 N 
ATOM      4  C   UNL     1      -1.659  11.454  23.048  0.00  0.00    +0.000 C 
ATOM      5  C   UNL     1      -2.916  12.157  22.514  0.00  0.00    +0.000 C 
ATOM      6  O   UNL     1      -3.835  12.436  23.287  0.00  0.00    +0.000 OA
ATOM      7  N   UNL     1      -2.886  12.612  21.191  0.00  0.00    +0.000 N 
ATOM      8  C   UNL     1      -1.939  12.026  20.212  0.00  0.00    +0.000 C 
ATOM      9  C   UNL     1      -0.619  11.559  20.846  0.00  0.00    +0.000 C 
ENDROOT
BRANCH   1  15
ATOM     10  C   UNL     1       2.827   6.585  18.211  0.00  0.00    +0.000 A 
ATOM     11  C   UNL     1       2.648   7.772  17.497  0.00  0.00    +0.000 A 
ATOM     12  C   UNL     1       2.107   8.913  18.103  0.00  0.00    +0.000 A 
ATOM     13  C   UNL     1       1.747   8.819  19.449  0.00  0.00    +0.000 A 
ATOM     14  N   UNL     1       1.193   9.755  20.290  0.00  0.00    +0.000 N 
ATOM     15  C   UNL     1       0.873   9.180  21.497  0.00  0.00    +0.000 A 
ATOM     16  C   UNL     1       1.432   7.914  21.495  0.00  0.00    +0.000 A 
ATOM     17  C   UNL     1       1.916   7.651  20.188  0.00  0.00    +0.000 A 
ATOM     18  C   UNL     1       2.463   6.519  19.561  0.00  0.00    +0.000 A 
ATOM     19  H   UNL     1       0.948  10.701  20.030  0.00  0.00    +0.000 HD
BRANCH  10  21
ATOM     20  C   UNL     1       2.516   4.265  17.810  0.00  0.00    +0.000 C 
ATOM     21  O   UNL     1       3.340   5.418  17.710  0.00  0.00    +0.000 OA
ENDBRANCH  10  21
ENDBRANCH   1  15
BRANCH   7  22
ATOM     22  C   UNL     1      -4.056  13.368  20.705  0.00  0.00    +0.000 C 
BRANCH  22  23
ATOM     23  C   UNL     1      -5.119  12.551  19.990  0.00  0.00    +0.000 A 
ATOM     24  C   UNL     1      -4.826  11.961  18.744  0.00  0.00    +0.000 A 
ATOM     25  C   UNL     1      -5.750  11.155  18.080  0.00  0.00    +0.000 A 
ATOM     26  C   UNL     1      -6.983  10.897  18.663  0.00  0.00    +0.000 A 
ATOM     27  C   UNL     1      -7.283  11.443  19.913  0.00  0.00    +0.000 A 
ATOM     28  C   UNL     1      -6.372  12.272  20.587  0.00  0.00    +0.000 A 
ATOM     29  C   UNL     1      -6.750  12.750  21.964  0.00  0.00    +0.000 C 
ENDBRANCH  22  23
ENDBRANCH   7  22
BRANCH   8  30
ATOM     30  C   UNL     1      -1.620  12.894  18.969  0.00  0.00    +0.000 C 
BRANCH  30  31
ATOM     31  C   UNL     1      -0.331  13.693  18.936  0.00  0.00    +0.000 A 
ATOM     32  C   UNL     1      -0.218  15.026  19.358  0.00  0.00    +0.000 A 
ATOM     33  C   UNL     1       0.987  15.720  19.246  0.00  0.00    +0.000 A 
ATOM     34  C   UNL     1       2.101  15.093  18.700  0.00  0.00    +0.000 A 
ATOM     35  C   UNL     1       2.015  13.766  18.288  0.00  0.00    +0.000 A 
ATOM     36  C   UNL     1       0.812  13.070  18.412  0.00  0.00    +0.000 A 
ENDBRANCH  30  31
ENDBRANCH   8  30
TORSDOF 6
ENDMDL
MODEL 6
REMARK VINA RESULT:      -7.8      2.330      2.945
REMARK  Name = 
REMARK  8 active torsions:
REMARK  status: ('A' for Active; 'I' for Inactive)
REMARK    1  A    between atoms: C_1  and  O_2
REMARK    2  A    between atoms: O_2  and  C_3
REMARK    3  A    between atoms: C_8  and  C_9
REMARK    4  A    between atoms: N_15  and  C_16
REMARK    5  A    between atoms: C_16  and  C_17
REMARK    6  A    between atoms: C_22  and  C_23
REMARK    7  A    between atoms: C_24  and  C_25
REMARK    8  A    between atoms: C_25  and  C_26
REMARK                            x       y       z     vdW  Elec       q    Type
REMARK                         _______ _______ _______ _____ _____    ______ ____
ROOT
ATOM      1  C   UNL     1       0.231  12.808  20.440  0.00  0.00    +0.000 C 
ATOM      2  O   UNL     1       1.093  13.642  20.701  0.00  0.00    +0.000 OA
ATOM      3  N   UNL     1      -1.131  13.111  20.456  0.00  0.00    +0.000 N 
ATOM      4  C   UNL     1      -1.505  14.455  20.871  0.00  0.00    +0.000 C 
ATOM      5  C   UNL     1      -2.986  14.645  21.228  0.00  0.00    +0.000 C 
ATOM      6  O   UNL     1      -3.330  15.601  21.926  0.00  0.00    +0.000 OA
ATOM      7  N   UNL     1      -3.913  13.811  20.591  0.00  0.00    +0.000 N 
ATOM      8  C   UNL     1      -3.489  12.513  20.014  0.00  0.00    +0.000 C 
ATOM      9  C   UNL     1      -2.045  12.523  19.488  0.00  0.00    +0.000 C 
ENDROOT
BRANCH   1  15
ATOM     10  C   UNL     1       2.337   7.418  18.664  0.00  0.00    +0.000 A 
ATOM     11  C   UNL     1       2.030   7.103  19.989  0.00  0.00    +0.000 A 
ATOM     12  C   UNL     1       1.414   8.033  20.836  0.00  0.00    +0.000 A 
ATOM     13  C   UNL     1       1.122   9.292  20.307  0.00  0.00    +0.000 A 
ATOM     14  N   UNL     1       0.540  10.392  20.892  0.00  0.00    +0.000 N 
ATOM     15  C   UNL     1       0.580  11.466  20.035  0.00  0.00    +0.000 A 
ATOM     16  C   UNL     1       0.999  10.980  18.809  0.00  0.00    +0.000 A 
ATOM     17  C   UNL     1       1.413   9.635  18.989  0.00  0.00    +0.000 A 
ATOM     18  C   UNL     1       2.029   8.685  18.156  0.00  0.00    +0.000 A 
ATOM     19  H   UNL     1       0.227  10.445  21.853  0.00  0.00    +0.000 HD
BRANCH  10  21
ATOM     20  C   UNL     1       2.873   5.190  18.036  0.00  0.00    +0.000 C 
ATOM     21  O   UNL     1       2.942   6.583  17.761  0.00  0.00    +0.000 OA
ENDBRANCH  10  21
ENDBRANCH   1  15
BRANCH   7  22
ATOM     22  C   UNL     1      -5.343  14.052  20.862  0.00  0.00    +0.000 C 
BRANCH  22  23
ATOM     23  C   UNL     1      -6.083  14.873  19.819  0.00  0.00    +0.000 A 
ATOM     24  C   UNL     1      -5.638  16.174  19.508  0.00  0.00    +0.000 A 
ATOM     25  C   UNL     1      -6.249  16.940  18.517  0.00  0.00    +0.000 A 
ATOM     26  C   UNL     1      -7.308  16.410  17.793  0.00  0.00    +0.000 A 
ATOM     27  C   UNL     1      -7.745  15.111  18.059  0.00  0.00    +0.000 A 
ATOM     28  C   UNL     1      -7.153  14.332  19.066  0.00  0.00    +0.000 A 
ATOM     29  C   UNL     1      -7.637  12.916  19.228  0.00  0.00    +0.000 C 
ENDBRANCH  22  23
ENDBRANCH   7  22
BRANCH   8  30
ATOM     30  C   UNL     1      -4.416  11.916  18.926  0.00  0.00    +0.000 C 
BRANCH  30  31
ATOM     31  C   UNL     1      -3.802  11.158  17.764  0.00  0.00    +0.000 A 
ATOM     32  C   UNL     1      -2.778  10.209  17.895  0.00  0.00    +0.000 A 
ATOM     33  C   UNL     1      -2.219   9.591  16.777  0.00  0.00    +0.000 A 
ATOM     34  C   UNL     1      -2.669   9.918  15.504  0.00  0.00    +0.000 A 
ATOM     35  C   UNL     1      -3.695  10.848  15.351  0.00  0.00    +0.000 A 
ATOM     36  C   UNL     1      -4.261  11.457  16.472  0.00  0.00    +0.000 A 
ENDBRANCH  30  31
ENDBRANCH   8  30
TORSDOF 6
ENDMDL
MODEL 7
REMARK VINA RESULT:      -7.7      2.563      3.792
REMARK  Name = 
REMARK  8 active torsions:
REMARK  status: ('A' for Active; 'I' for Inactive)
REMARK    1  A    between atoms: C_1  and  O_2
REMARK    2  A    between atoms: O_2  and  C_3
REMARK    3  A    between atoms: C_8  and  C_9
REMARK    4  A    between atoms: N_15  and  C_16
REMARK    5  A    between atoms: C_16  and  C_17
REMARK    6  A    between atoms: C_22  and  C_23
REMARK    7  A    between atoms: C_24  and  C_25
REMARK    8  A    between atoms: C_25  and  C_26
REMARK                            x       y       z     vdW  Elec       q    Type
REMARK                         _______ _______ _______ _____ _____    ______ ____
ROOT
ATOM      1  C   UNL     1       2.679   9.039  18.219  0.00  0.00    +0.000 C 
ATOM      2  O   UNL     1       3.738   9.380  17.700  0.00  0.00    +0.000 OA
ATOM      3  N   UNL     1       1.640   9.941  18.459  0.00  0.00    +0.000 N 
ATOM      4  C   UNL     1       1.888  11.337  18.134  0.00  0.00    +0.000 C 
ATOM      5  C   UNL     1       0.892  12.338  18.737  0.00  0.00    +0.000 C 
ATOM      6  O   UNL     1       1.205  13.526  18.840  0.00  0.00    +0.000 OA
ATOM      7  N   UNL     1      -0.409  11.883  18.984  0.00  0.00    +0.000 N 
ATOM      8  C   UNL     1      -0.684  10.435  19.143  0.00  0.00    +0.000 C 
ATOM      9  C   UNL     1       0.248   9.542  18.308  0.00  0.00    +0.000 C 
ENDROOT
BRANCH   1  15
ATOM     10  C   UNL     1       2.227   3.128  19.443  0.00  0.00    +0.000 A 
ATOM     11  C   UNL     1       2.141   3.625  20.745  0.00  0.00    +0.000 A 
ATOM     12  C   UNL     1       2.115   5.002  21.001  0.00  0.00    +0.000 A 
ATOM     13  C   UNL     1       2.184   5.862  19.903  0.00  0.00    +0.000 A 
ATOM     14  N   UNL     1       2.189   7.236  19.846  0.00  0.00    +0.000 N 
ATOM     15  C   UNL     1       2.416   7.660  18.558  0.00  0.00    +0.000 A 
ATOM     16  C   UNL     1       2.338   6.537  17.752  0.00  0.00    +0.000 A 
ATOM     17  C   UNL     1       2.267   5.398  18.592  0.00  0.00    +0.000 A 
ATOM     18  C   UNL     1       2.290   4.012  18.359  0.00  0.00    +0.000 A 
ATOM     19  H   UNL     1       2.147   7.853  20.647  0.00  0.00    +0.000 HD
BRANCH  10  21
ATOM     20  C   UNL     1       3.450   1.349  18.451  0.00  0.00    +0.000 C 
ATOM     21  O   UNL     1       2.265   1.804  19.091  0.00  0.00    +0.000 OA
ENDBRANCH  10  21
ENDBRANCH   1  15
BRANCH   7  22
ATOM     22  C   UNL     1      -1.392  12.867  19.477  0.00  0.00    +0.000 C 
BRANCH  22  23
ATOM     23  C   UNL     1      -1.932  12.616  20.875  0.00  0.00    +0.000 A 
ATOM     24  C   UNL     1      -1.041  12.309  21.924  0.00  0.00    +0.000 A 
ATOM     25  C   UNL     1      -1.485  12.130  23.233  0.00  0.00    +0.000 A 
ATOM     26  C   UNL     1      -2.832  12.281  23.529  0.00  0.00    +0.000 A 
ATOM     27  C   UNL     1      -3.729  12.619  22.514  0.00  0.00    +0.000 A 
ATOM     28  C   UNL     1      -3.302  12.785  21.187  0.00  0.00    +0.000 A 
ATOM     29  C   UNL     1      -4.325  13.227  20.175  0.00  0.00    +0.000 C 
ENDBRANCH  22  23
ENDBRANCH   7  22
BRANCH   8  30
ATOM     30  C   UNL     1      -2.149   9.990  18.907  0.00  0.00    +0.000 C 
BRANCH  30  31
ATOM     31  C   UNL     1      -2.777  10.204  17.543  0.00  0.00    +0.000 A 
ATOM     32  C   UNL     1      -2.281   9.654  16.352  0.00  0.00    +0.000 A 
ATOM     33  C   UNL     1      -2.875   9.939  15.123  0.00  0.00    +0.000 A 
ATOM     34  C   UNL     1      -3.974  10.788  15.062  0.00  0.00    +0.000 A 
ATOM     35  C   UNL     1      -4.491  11.334  16.234  0.00  0.00    +0.000 A 
ATOM     36  C   UNL     1      -3.903  11.039  17.464  0.00  0.00    +0.000 A 
ENDBRANCH  30  31
ENDBRANCH   8  30
TORSDOF 6
ENDMDL
MODEL 8
REMARK VINA RESULT:      -7.7      0.551      1.506
REMARK  Name = 
REMARK  8 active torsions:
REMARK  status: ('A' for Active; 'I' for Inactive)
REMARK    1  A    between atoms: C_1  and  O_2
REMARK    2  A    between atoms: O_2  and  C_3
REMARK    3  A    between atoms: C_8  and  C_9
REMARK    4  A    between atoms: N_15  and  C_16
REMARK    5  A    between atoms: C_16  and  C_17
REMARK    6  A    between atoms: C_22  and  C_23
REMARK    7  A    between atoms: C_24  and  C_25
REMARK    8  A    between atoms: C_25  and  C_26
REMARK                            x       y       z     vdW  Elec       q    Type
REMARK                         _______ _______ _______ _____ _____    ______ ____
ROOT
ATOM      1  C   UNL     1       0.179   9.806  22.453  0.00  0.00    +0.000 C 
ATOM      2  O   UNL     1       0.622   9.828  23.598  0.00  0.00    +0.000 OA
ATOM      3  N   UNL     1      -0.793  10.706  22.012  0.00  0.00    +0.000 N 
ATOM      4  C   UNL     1      -1.324  11.640  22.992  0.00  0.00    +0.000 C 
ATOM      5  C   UNL     1      -2.622  12.352  22.585  0.00  0.00    +0.000 C 
ATOM      6  O   UNL     1      -3.340  12.859  23.450  0.00  0.00    +0.000 OA
ATOM      7  N   UNL     1      -2.847  12.549  21.217  0.00  0.00    +0.000 N 
ATOM      8  C   UNL     1      -2.164  11.701  20.211  0.00  0.00    +0.000 C 
ATOM      9  C   UNL     1      -0.769  11.232  20.654  0.00  0.00    +0.000 C 
ENDROOT
BRANCH   1  15
ATOM     10  C   UNL     1       2.930   6.171  18.471  0.00  0.00    +0.000 A 
ATOM     11  C   UNL     1       2.486   5.203  19.375  0.00  0.00    +0.000 A 
ATOM     12  C   UNL     1       1.693   5.545  20.478  0.00  0.00    +0.000 A 
ATOM     13  C   UNL     1       1.367   6.892  20.645  0.00  0.00    +0.000 A 
ATOM     14  N   UNL     1       0.627   7.516  21.622  0.00  0.00    +0.000 N 
ATOM     15  C   UNL     1       0.686   8.880  21.467  0.00  0.00    +0.000 A 
ATOM     16  C   UNL     1       1.295   9.115  20.246  0.00  0.00    +0.000 A 
ATOM     17  C   UNL     1       1.792   7.880  19.760  0.00  0.00    +0.000 A 
ATOM     18  C   UNL     1       2.585   7.514  18.658  0.00  0.00    +0.000 A 
ATOM     19  H   UNL     1       0.193   7.053  22.410  0.00  0.00    +0.000 HD
BRANCH  10  21
ATOM     20  C   UNL     1       4.635   6.960  17.018  0.00  0.00    +0.000 C 
ATOM     21  O   UNL     1       3.710   5.940  17.369  0.00  0.00    +0.000 OA
ENDBRANCH  10  21
ENDBRANCH   1  15
BRANCH   7  22
ATOM     22  C   UNL     1      -4.047  13.313  20.828  0.00  0.00    +0.000 C 
BRANCH  22  23
ATOM     23  C   UNL     1      -5.377  12.718  21.262  0.00  0.00    +0.000 A 
ATOM     24  C   UNL     1      -5.960  13.124  22.479  0.00  0.00    +0.000 A 
ATOM     25  C   UNL     1      -7.206  12.649  22.888  0.00  0.00    +0.000 A 
ATOM     26  C   UNL     1      -7.911  11.775  22.073  0.00  0.00    +0.000 A 
ATOM     27  C   UNL     1      -7.368  11.385  20.847  0.00  0.00    +0.000 A 
ATOM     28  C   UNL     1      -6.108  11.838  20.428  0.00  0.00    +0.000 A 
ATOM     29  C   UNL     1      -5.639  11.429  19.057  0.00  0.00    +0.000 C 
ENDBRANCH  22  23
ENDBRANCH   7  22
BRANCH   8  30
ATOM     30  C   UNL     1      -2.066  12.288  18.780  0.00  0.00    +0.000 C 
BRANCH  30  31
ATOM     31  C   UNL     1      -2.410  11.407  17.594  0.00  0.00    +0.000 A 
ATOM     32  C   UNL     1      -3.467  11.657  16.706  0.00  0.00    +0.000 A 
ATOM     33  C   UNL     1      -3.762  10.774  15.669  0.00  0.00    +0.000 A 
ATOM     34  C   UNL     1      -3.010   9.617  15.505  0.00  0.00    +0.000 A 
ATOM     35  C   UNL     1      -1.947   9.356  16.366  0.00  0.00    +0.000 A 
ATOM     36  C   UNL     1      -1.645  10.247  17.397  0.00  0.00    +0.000 A 
ENDBRANCH  30  31
ENDBRANCH   8  30
TORSDOF 6
ENDMDL
MODEL 9
REMARK VINA RESULT:      -7.6      1.810      3.009
REMARK  Name = 
REMARK  8 active torsions:
REMARK  status: ('A' for Active; 'I' for Inactive)
REMARK    1  A    between atoms: C_1  and  O_2
REMARK    2  A    between atoms: O_2  and  C_3
REMARK    3  A    between atoms: C_8  and  C_9
REMARK    4  A    between atoms: N_15  and  C_16
REMARK    5  A    between atoms: C_16  and  C_17
REMARK    6  A    between atoms: C_22  and  C_23
REMARK    7  A    between atoms: C_24  and  C_25
REMARK    8  A    between atoms: C_25  and  C_26
REMARK                            x       y       z     vdW  Elec       q    Type
REMARK                         _______ _______ _______ _____ _____    ______ ____
ROOT
ATOM      1  C   UNL     1       0.084   9.904  22.575  0.00  0.00    +0.000 C 
ATOM      2  O   UNL     1       0.324   9.730  23.766  0.00  0.00    +0.000 OA
ATOM      3  N   UNL     1      -0.887  10.805  22.132  0.00  0.00    +0.000 N 
ATOM      4  C   UNL     1      -1.669  11.488  23.151  0.00  0.00    +0.000 C 
ATOM      5  C   UNL     1      -2.946  12.176  22.648  0.00  0.00    +0.000 C 
ATOM      6  O   UNL     1      -3.847  12.451  23.443  0.00  0.00    +0.000 OA
ATOM      7  N   UNL     1      -2.956  12.623  21.321  0.00  0.00    +0.000 N 
ATOM      8  C   UNL     1      -2.030  12.039  20.321  0.00  0.00    +0.000 C 
ATOM      9  C   UNL     1      -0.689  11.590  20.922  0.00  0.00    +0.000 C 
ENDROOT
BRANCH   1  15
ATOM     10  C   UNL     1       2.740   6.624  18.236  0.00  0.00    +0.000 A 
ATOM     11  C   UNL     1       2.506   7.793  17.509  0.00  0.00    +0.000 A 
ATOM     12  C   UNL     1       1.959   8.932  18.115  0.00  0.00    +0.000 A 
ATOM     13  C   UNL     1       1.651   8.853  19.474  0.00  0.00    +0.000 A 
ATOM     14  N   UNL     1       1.104   9.790  20.320  0.00  0.00    +0.000 N 
ATOM     15  C   UNL     1       0.842   9.229  21.548  0.00  0.00    +0.000 A 
ATOM     16  C   UNL     1       1.432   7.977  21.546  0.00  0.00    +0.000 A 
ATOM     17  C   UNL     1       1.875   7.703  20.227  0.00  0.00    +0.000 A 
ATOM     18  C   UNL     1       2.427   6.573  19.599  0.00  0.00    +0.000 A 
ATOM     19  H   UNL     1       0.826  10.725  20.054  0.00  0.00    +0.000 HD
BRANCH  10  21
ATOM     20  C   UNL     1       2.412   4.322  17.748  0.00  0.00    +0.000 C 
ATOM     21  O   UNL     1       3.263   5.461  17.736  0.00  0.00    +0.000 OA
ENDBRANCH  10  21
ENDBRANCH   1  15
BRANCH   7  22
ATOM     22  C   UNL     1      -4.146  13.365  20.863  0.00  0.00    +0.000 C 
BRANCH  22  23
ATOM     23  C   UNL     1      -5.422  12.549  20.732  0.00  0.00    +0.000 A 
ATOM     24  C   UNL     1      -6.371  12.564  21.775  0.00  0.00    +0.000 A 
ATOM     25  C   UNL     1      -7.580  11.878  21.673  0.00  0.00    +0.000 A 
ATOM     26  C   UNL     1      -7.882  11.182  20.512  0.00  0.00    +0.000 A 
ATOM     27  C   UNL     1      -6.972  11.180  19.452  0.00  0.00    +0.000 A 
ATOM     28  C   UNL     1      -5.742  11.849  19.544  0.00  0.00    +0.000 A 
ATOM     29  C   UNL     1      -4.860  11.859  18.323  0.00  0.00    +0.000 C 
ENDBRANCH  22  23
ENDBRANCH   7  22
BRANCH   8  30
ATOM     30  C   UNL     1      -1.753  12.903  19.065  0.00  0.00    +0.000 C 
BRANCH  30  31
ATOM     31  C   UNL     1      -0.406  13.585  18.918  0.00  0.00    +0.000 A 
ATOM     32  C   UNL     1       0.747  12.956  18.424  0.00  0.00    +0.000 A 
ATOM     33  C   UNL     1       1.968  13.627  18.369  0.00  0.00    +0.000 A 
ATOM     34  C   UNL     1       2.061  14.939  18.817  0.00  0.00    +0.000 A 
ATOM     35  C   UNL     1       0.926  15.588  19.297  0.00  0.00    +0.000 A 
ATOM     36  C   UNL     1      -0.298  14.919  19.340  0.00  0.00    +0.000 A 
ENDBRANCH  30  31
ENDBRANCH   8  30
TORSDOF 6
ENDMDL
