MODEL 1
REMARK VINA RESULT:      -9.2      0.000      0.000
REMARK  Name = 
REMARK  8 active torsions:
REMARK  status: ('A' for Active; 'I' for Inactive)
REMARK    1  A    between atoms: C_1  and  C_2
REMARK    2  A    between atoms: C_2  and  C_3
REMARK    3  A    between atoms: C_3  and  C_4
REMARK    4  A    between atoms: N_6  and  C_7
REMARK    5  A    between atoms: N_6  and  S_28
REMARK    6  A    between atoms: C_10  and  N_11
REMARK    7  A    between atoms: N_11  and  C_12
REMARK    8  A    between atoms: S_28  and  C_29
REMARK                            x       y       z     vdW  Elec       q    Type
REMARK                         _______ _______ _______ _____ _____    ______ ____
ROOT
ATOM      1  C   UNL     1       0.508   9.853  19.247  0.00  0.00    +0.000 A 
ATOM      2  C   UNL     1       1.215   9.312  18.203  0.00  0.00    +0.000 A 
ATOM      3  C   UNL     1       2.038   8.189  18.385  0.00  0.00    +0.000 A 
ATOM      4  C   UNL     1       2.195   7.551  19.602  0.00  0.00    +0.000 A 
ATOM      5  C   UNL     1       1.444   8.110  20.716  0.00  0.00    +0.000 A 
ATOM      6  C   UNL     1       0.623   9.268  20.530  0.00  0.00    +0.000 A 
ENDROOT
BRANCH   1   9
ATOM      7  C   UNL     1      -1.649  10.803  18.498  0.00  0.00    +0.000 C 
ATOM      8  O   UNL     1      -2.064   9.667  18.194  0.00  0.00    +0.000 OA
ATOM      9  N   UNL     1      -0.381  10.964  19.026  0.00  0.00    +0.000 N 
BRANCH   9  10
ATOM     10  S   UNL     1       0.280  12.564  19.435  0.00  0.00    +0.000 S 
ATOM     11  C   UNL     1      -0.423  13.304  20.902  0.00  0.00    +0.000 C 
ATOM     12  O   UNL     1       1.794  12.363  19.500  0.00  0.00    +0.000 OA
ATOM     13  O   UNL     1       0.069  13.443  18.182  0.00  0.00    +0.000 OA
ENDBRANCH   9  10
BRANCH   7  14
ATOM     14  C   UNL     1      -2.669  11.960  18.310  0.00  0.00    +0.000 C 
BRANCH  14  16
ATOM     15  C   UNL     1      -4.656  11.545  16.753  0.00  0.00    +0.000 C 
ATOM     16  C   UNL     1      -4.126  11.494  18.185  0.00  0.00    +0.000 C 
ENDBRANCH  14  16
ENDBRANCH   7  14
ENDBRANCH   1   9
BRANCH   4  17
ATOM     17  N   UNL     1       3.053   6.381  19.720  0.00  0.00    +0.000 N 
ATOM     18  H   UNL     1       3.815   6.518  20.391  0.00  0.00    +0.000 HD
BRANCH  17  19
ATOM     19  C   UNL     1       3.355   5.491  18.583  0.00  0.00    +0.000 A 
ATOM     20  C   UNL     1       4.663   5.590  18.105  0.00  0.00    +0.000 A 
ATOM     21  C   UNL     1       5.211   6.776  17.629  0.00  0.00    +0.000 A 
ATOM     22  C   UNL     1       6.524   6.790  17.166  0.00  0.00    +0.000 A 
ATOM     23  C   UNL     1       7.285   5.617  17.195  0.00  0.00    +0.000 A 
ATOM     24  C   UNL     1       6.760   4.436  17.743  0.00  0.00    +0.000 A 
ATOM     25  C   UNL     1       5.460   4.431  18.230  0.00  0.00    +0.000 A 
ATOM     26  N   UNL     1       4.962   3.427  19.028  0.00  0.00    +0.000 NA
ATOM     27  C   UNL     1       3.633   3.453  19.329  0.00  0.00    +0.000 A 
ATOM     28  C   UNL     1       3.149   3.415  20.677  0.00  0.00    +0.000 A 
ATOM     29  C   UNL     1       1.758   3.664  20.943  0.00  0.00    +0.000 A 
ATOM     30  C   UNL     1       0.900   3.682  19.892  0.00  0.00    +0.000 A 
ATOM     31  C   UNL     1       1.443   3.811  18.628  0.00  0.00    +0.000 A 
ATOM     32  C   UNL     1       2.808   4.138  18.465  0.00  0.00    +0.000 A 
ENDBRANCH  17  19
ENDBRANCH   4  17
TORSDOF 6
ENDMDL
MODEL 2
REMARK VINA RESULT:      -9.1      0.782      1.224
REMARK  Name = 
REMARK  8 active torsions:
REMARK  status: ('A' for Active; 'I' for Inactive)
REMARK    1  A    between atoms: C_1  and  C_2
REMARK    2  A    between atoms: C_2  and  C_3
REMARK    3  A    between atoms: C_3  and  C_4
REMARK    4  A    between atoms: N_6  and  C_7
REMARK    5  A    between atoms: N_6  and  S_28
REMARK    6  A    between atoms: C_10  and  N_11
REMARK    7  A    between atoms: N_11  and  C_12
REMARK    8  A    between atoms: S_28  and  C_29
REMARK                            x       y       z     vdW  Elec       q    Type
REMARK                         _______ _______ _______ _____ _____    ______ ____
ROOT
ATOM      1  C   UNL     1       0.362   9.769  19.771  0.00  0.00    +0.000 A 
ATOM      2  C   UNL     1       0.453   8.921  20.847  0.00  0.00    +0.000 A 
ATOM      3  C   UNL     1       1.330   7.824  20.838  0.00  0.00    +0.000 A 
ATOM      4  C   UNL     1       2.155   7.521  19.771  0.00  0.00    +0.000 A 
ATOM      5  C   UNL     1       2.076   8.417  18.628  0.00  0.00    +0.000 A 
ATOM      6  C   UNL     1       1.165   9.522  18.633  0.00  0.00    +0.000 A 
ENDROOT
BRANCH   1   9
ATOM      7  C   UNL     1      -1.677  11.006  19.115  0.00  0.00    +0.000 C 
ATOM      8  O   UNL     1      -2.040  10.058  18.392  0.00  0.00    +0.000 OA
ATOM      9  N   UNL     1      -0.493  10.926  19.827  0.00  0.00    +0.000 N 
BRANCH   9  10
ATOM     10  S   UNL     1       0.098  12.264  20.838  0.00  0.00    +0.000 S 
ATOM     11  C   UNL     1      -0.883  12.581  22.298  0.00  0.00    +0.000 C 
ATOM     12  O   UNL     1       1.560  11.926  21.129  0.00  0.00    +0.000 OA
ATOM     13  O   UNL     1       0.172  13.496  19.909  0.00  0.00    +0.000 OA
ENDBRANCH   9  10
BRANCH   7  14
ATOM     14  C   UNL     1      -2.667  12.200  19.201  0.00  0.00    +0.000 C 
BRANCH  14  16
ATOM     15  C   UNL     1      -5.163  12.545  19.641  0.00  0.00    +0.000 C 
ATOM     16  C   UNL     1      -4.102  11.853  18.786  0.00  0.00    +0.000 C 
ENDBRANCH  14  16
ENDBRANCH   7  14
ENDBRANCH   1   9
BRANCH   4  17
ATOM     17  N   UNL     1       3.053   6.376  19.832  0.00  0.00    +0.000 N 
ATOM     18  H   UNL     1       3.837   6.525  20.476  0.00  0.00    +0.000 HD
BRANCH  17  19
ATOM     19  C   UNL     1       3.337   5.517  18.668  0.00  0.00    +0.000 A 
ATOM     20  C   UNL     1       4.639   5.622  18.177  0.00  0.00    +0.000 A 
ATOM     21  C   UNL     1       5.189   6.818  17.728  0.00  0.00    +0.000 A 
ATOM     22  C   UNL     1       6.496   6.838  17.250  0.00  0.00    +0.000 A 
ATOM     23  C   UNL     1       7.251   5.661  17.237  0.00  0.00    +0.000 A 
ATOM     24  C   UNL     1       6.726   4.468  17.759  0.00  0.00    +0.000 A 
ATOM     25  C   UNL     1       5.432   4.456  18.261  0.00  0.00    +0.000 A 
ATOM     26  N   UNL     1       4.937   3.432  19.037  0.00  0.00    +0.000 NA
ATOM     27  C   UNL     1       3.612   3.457  19.354  0.00  0.00    +0.000 A 
ATOM     28  C   UNL     1       3.144   3.384  20.706  0.00  0.00    +0.000 A 
ATOM     29  C   UNL     1       1.757   3.633  20.995  0.00  0.00    +0.000 A 
ATOM     30  C   UNL     1       0.887   3.685  19.955  0.00  0.00    +0.000 A 
ATOM     31  C   UNL     1       1.416   3.846  18.689  0.00  0.00    +0.000 A 
ATOM     32  C   UNL     1       2.781   4.171  18.519  0.00  0.00    +0.000 A 
ENDBRANCH  17  19
ENDBRANCH   4  17
TORSDOF 6
ENDMDL
MODEL 3
REMARK VINA RESULT:      -9.0      1.201      1.347
REMARK  Name = 
REMARK  8 active torsions:
REMARK  status: ('A' for Active; 'I' for Inactive)
REMARK    1  A    between atoms: C_1  and  C_2
REMARK    2  A    between atoms: C_2  and  C_3
REMARK    3  A    between atoms: C_3  and  C_4
REMARK    4  A    between atoms: N_6  and  C_7
REMARK    5  A    between atoms: N_6  and  S_28
REMARK    6  A    between atoms: C_10  and  N_11
REMARK    7  A    between atoms: N_11  and  C_12
REMARK    8  A    between atoms: S_28  and  C_29
REMARK                            x       y       z     vdW  Elec       q    Type
REMARK                         _______ _______ _______ _____ _____    ______ ____
ROOT
ATOM      1  C   UNL     1       0.614   9.789  19.569  0.00  0.00    +0.000 A 
ATOM      2  C   UNL     1       1.329   9.532  18.425  0.00  0.00    +0.000 A 
ATOM      3  C   UNL     1       2.163   8.407  18.325  0.00  0.00    +0.000 A 
ATOM      4  C   UNL     1       2.325   7.488  19.345  0.00  0.00    +0.000 A 
ATOM      5  C   UNL     1       1.567   7.744  20.560  0.00  0.00    +0.000 A 
ATOM      6  C   UNL     1       0.733   8.903  20.666  0.00  0.00    +0.000 A 
ENDROOT
BRANCH   1   9
ATOM      7  C   UNL     1      -1.525  10.899  19.009  0.00  0.00    +0.000 C 
ATOM      8  O   UNL     1      -1.899   9.895  18.372  0.00  0.00    +0.000 OA
ATOM      9  N   UNL     1      -0.287  10.910  19.628  0.00  0.00    +0.000 N 
BRANCH   9  10
ATOM     10  S   UNL     1       0.319  12.329  20.512  0.00  0.00    +0.000 S 
ATOM     11  C   UNL     1       0.418  13.824  19.538  0.00  0.00    +0.000 C 
ATOM     12  O   UNL     1      -0.581  12.444  21.743  0.00  0.00    +0.000 OA
ATOM     13  O   UNL     1       1.693  11.916  21.086  0.00  0.00    +0.000 OA
ENDBRANCH   9  10
BRANCH   7  14
ATOM     14  C   UNL     1      -2.559  12.054  19.107  0.00  0.00    +0.000 C 
BRANCH  14  16
ATOM     15  C   UNL     1      -5.091  12.377  19.268  0.00  0.00    +0.000 C 
ATOM     16  C   UNL     1      -3.935  11.712  18.522  0.00  0.00    +0.000 C 
ENDBRANCH  14  16
ENDBRANCH   7  14
ENDBRANCH   1   9
BRANCH   4  17
ATOM     17  N   UNL     1       3.196   6.335  19.170  0.00  0.00    +0.000 N 
ATOM     18  H   UNL     1       4.163   6.525  19.451  0.00  0.00    +0.000 HD
BRANCH  17  19
ATOM     19  C   UNL     1       3.030   5.364  18.072  0.00  0.00    +0.000 A 
ATOM     20  C   UNL     1       4.121   5.280  17.206  0.00  0.00    +0.000 A 
ATOM     21  C   UNL     1       4.609   6.366  16.489  0.00  0.00    +0.000 A 
ATOM     22  C   UNL     1       5.701   6.198  15.643  0.00  0.00    +0.000 A 
ATOM     23  C   UNL     1       6.309   4.943  15.530  0.00  0.00    +0.000 A 
ATOM     24  C   UNL     1       5.867   3.861  16.309  0.00  0.00    +0.000 A 
ATOM     25  C   UNL     1       4.795   4.038  17.173  0.00  0.00    +0.000 A 
ATOM     26  N   UNL     1       4.475   3.140  18.166  0.00  0.00    +0.000 NA
ATOM     27  C   UNL     1       3.320   3.343  18.860  0.00  0.00    +0.000 A 
ATOM     28  C   UNL     1       3.287   3.426  20.290  0.00  0.00    +0.000 A 
ATOM     29  C   UNL     1       2.085   3.856  20.952  0.00  0.00    +0.000 A 
ATOM     30  C   UNL     1       0.944   3.932  20.220  0.00  0.00    +0.000 A 
ATOM     31  C   UNL     1       1.069   3.935  18.844  0.00  0.00    +0.000 A 
ATOM     32  C   UNL     1       2.339   4.084  18.241  0.00  0.00    +0.000 A 
ENDBRANCH  17  19
ENDBRANCH   4  17
TORSDOF 6
ENDMDL
MODEL 4
REMARK VINA RESULT:      -9.0      1.291      2.688
REMARK  Name = 
REMARK  8 active torsions:
REMARK  status: ('A' for Active; 'I' for Inactive)
REMARK    1  A    between atoms: C_1  and  C_2
REMARK    2  A    between atoms: C_2  and  C_3
REMARK    3  A    between atoms: C_3  and  C_4
REMARK    4  A    between atoms: N_6  and  C_7
REMARK    5  A    between atoms: N_6  and  S_28
REMARK    6  A    between atoms: C_10  and  N_11
REMARK    7  A    between atoms: N_11  and  C_12
REMARK    8  A    between atoms: S_28  and  C_29
REMARK                            x       y       z     vdW  Elec       q    Type
REMARK                         _______ _______ _______ _____ _____    ______ ____
ROOT
ATOM      1  C   UNL     1       0.748  10.174  19.004  0.00  0.00    +0.000 A 
ATOM      2  C   UNL     1       0.877   9.597  20.243  0.00  0.00    +0.000 A 
ATOM      3  C   UNL     1       1.571   8.388  20.414  0.00  0.00    +0.000 A 
ATOM      4  C   UNL     1       2.167   7.700  19.374  0.00  0.00    +0.000 A 
ATOM      5  C   UNL     1       2.046   8.305  18.057  0.00  0.00    +0.000 A 
ATOM      6  C   UNL     1       1.320   9.527  17.883  0.00  0.00    +0.000 A 
ENDROOT
BRANCH   1   9
ATOM      7  C   UNL     1       0.781  12.645  18.904  0.00  0.00    +0.000 C 
ATOM      8  O   UNL     1       2.016  12.653  19.074  0.00  0.00    +0.000 OA
ATOM      9  N   UNL     1       0.092  11.447  18.859  0.00  0.00    +0.000 N 
BRANCH   9  10
ATOM     10  S   UNL     1      -1.675  11.376  18.663  0.00  0.00    +0.000 S 
ATOM     11  C   UNL     1      -2.598  12.210  19.946  0.00  0.00    +0.000 C 
ATOM     12  O   UNL     1      -1.940  11.909  17.255  0.00  0.00    +0.000 OA
ATOM     13  O   UNL     1      -2.030   9.874  18.572  0.00  0.00    +0.000 OA
ENDBRANCH   9  10
BRANCH   7  14
ATOM     14  C   UNL     1       0.128  14.037  18.679  0.00  0.00    +0.000 C 
BRANCH  14  16
ATOM     15  C   UNL     1       1.452  16.224  18.756  0.00  0.00    +0.000 C 
ATOM     16  C   UNL     1       0.714  15.151  19.556  0.00  0.00    +0.000 C 
ENDBRANCH  14  16
ENDBRANCH   7  14
ENDBRANCH   1   9
BRANCH   4  17
ATOM     17  N   UNL     1       2.884   6.458  19.623  0.00  0.00    +0.000 N 
ATOM     18  H   UNL     1       3.548   6.536  20.401  0.00  0.00    +0.000 HD
BRANCH  17  19
ATOM     19  C   UNL     1       3.268   5.524  18.548  0.00  0.00    +0.000 A 
ATOM     20  C   UNL     1       4.595   5.638  18.131  0.00  0.00    +0.000 A 
ATOM     21  C   UNL     1       5.136   6.815  17.625  0.00  0.00    +0.000 A 
ATOM     22  C   UNL     1       6.469   6.845  17.228  0.00  0.00    +0.000 A 
ATOM     23  C   UNL     1       7.259   5.698  17.353  0.00  0.00    +0.000 A 
ATOM     24  C   UNL     1       6.739   4.530  17.932  0.00  0.00    +0.000 A 
ATOM     25  C   UNL     1       5.416   4.510  18.353  0.00  0.00    +0.000 A 
ATOM     26  N   UNL     1       4.904   3.531  19.174  0.00  0.00    +0.000 NA
ATOM     27  C   UNL     1       3.562   3.533  19.407  0.00  0.00    +0.000 A 
ATOM     28  C   UNL     1       3.011   3.545  20.730  0.00  0.00    +0.000 A 
ATOM     29  C   UNL     1       1.602   3.767  20.913  0.00  0.00    +0.000 A 
ATOM     30  C   UNL     1       0.798   3.709  19.821  0.00  0.00    +0.000 A 
ATOM     31  C   UNL     1       1.402   3.793  18.581  0.00  0.00    +0.000 A 
ATOM     32  C   UNL     1       2.764   4.152  18.471  0.00  0.00    +0.000 A 
ENDBRANCH  17  19
ENDBRANCH   4  17
TORSDOF 6
ENDMDL
MODEL 5
REMARK VINA RESULT:      -8.8      1.369      2.749
REMARK  Name = 
REMARK  8 active torsions:
REMARK  status: ('A' for Active; 'I' for Inactive)
REMARK    1  A    between atoms: C_1  and  C_2
REMARK    2  A    between atoms: C_2  and  C_3
REMARK    3  A    between atoms: C_3  and  C_4
REMARK    4  A    between atoms: N_6  and  C_7
REMARK    5  A    between atoms: N_6  and  S_28
REMARK    6  A    between atoms: C_10  and  N_11
REMARK    7  A    between atoms: N_11  and  C_12
REMARK    8  A    between atoms: S_28  and  C_29
REMARK                            x       y       z     vdW  Elec       q    Type
REMARK                         _______ _______ _______ _____ _____    ______ ____
ROOT
ATOM      1  C   UNL     1       0.770  10.057  19.643  0.00  0.00    +0.000 A 
ATOM      2  C   UNL     1       0.824   9.145  20.668  0.00  0.00    +0.000 A 
ATOM      3  C   UNL     1       1.539   7.944  20.536  0.00  0.00    +0.000 A 
ATOM      4  C   UNL     1       2.234   7.594  19.393  0.00  0.00    +0.000 A 
ATOM      5  C   UNL     1       2.192   8.556  18.303  0.00  0.00    +0.000 A 
ATOM      6  C   UNL     1       1.445   9.770  18.433  0.00  0.00    +0.000 A 
ENDROOT
BRANCH   1   9
ATOM      7  C   UNL     1       0.601  12.330  20.605  0.00  0.00    +0.000 C 
ATOM      8  O   UNL     1       1.693  12.184  21.188  0.00  0.00    +0.000 OA
ATOM      9  N   UNL     1       0.087  11.312  19.822  0.00  0.00    +0.000 N 
BRANCH   9  10
ATOM     10  S   UNL     1      -1.485  11.447  19.002  0.00  0.00    +0.000 S 
ATOM     11  C   UNL     1      -2.797  12.111  20.018  0.00  0.00    +0.000 C 
ATOM     12  O   UNL     1      -1.205  12.256  17.736  0.00  0.00    +0.000 OA
ATOM     13  O   UNL     1      -1.814  10.030  18.481  0.00  0.00    +0.000 OA
ENDBRANCH   9  10
BRANCH   7  14
ATOM     14  C   UNL     1      -0.062  13.726  20.767  0.00  0.00    +0.000 C 
BRANCH  14  16
ATOM     15  C   UNL     1      -1.124  13.492  23.082  0.00  0.00    +0.000 C 
ATOM     16  C   UNL     1      -0.107  14.232  22.214  0.00  0.00    +0.000 C 
ENDBRANCH  14  16
ENDBRANCH   7  14
ENDBRANCH   1   9
BRANCH   4  17
ATOM     17  N   UNL     1       2.968   6.339  19.328  0.00  0.00    +0.000 N 
ATOM     18  H   UNL     1       3.894   6.402  19.764  0.00  0.00    +0.000 HD
BRANCH  17  19
ATOM     19  C   UNL     1       2.859   5.404  18.193  0.00  0.00    +0.000 A 
ATOM     20  C   UNL     1       3.961   5.403  17.338  0.00  0.00    +0.000 A 
ATOM     21  C   UNL     1       4.405   6.537  16.667  0.00  0.00    +0.000 A 
ATOM     22  C   UNL     1       5.513   6.451  15.829  0.00  0.00    +0.000 A 
ATOM     23  C   UNL     1       6.179   5.231  15.677  0.00  0.00    +0.000 A 
ATOM     24  C   UNL     1       5.780   4.102  16.409  0.00  0.00    +0.000 A 
ATOM     25  C   UNL     1       4.692   4.196  17.267  0.00  0.00    +0.000 A 
ATOM     26  N   UNL     1       4.404   3.247  18.221  0.00  0.00    +0.000 NA
ATOM     27  C   UNL     1       3.234   3.370  18.909  0.00  0.00    +0.000 A 
ATOM     28  C   UNL     1       3.183   3.397  20.340  0.00  0.00    +0.000 A 
ATOM     29  C   UNL     1       1.956   3.746  21.003  0.00  0.00    +0.000 A 
ATOM     30  C   UNL     1       0.821   3.797  20.262  0.00  0.00    +0.000 A 
ATOM     31  C   UNL     1       0.959   3.857  18.888  0.00  0.00    +0.000 A 
ATOM     32  C   UNL     1       2.226   4.088  18.306  0.00  0.00    +0.000 A 
ENDBRANCH  17  19
ENDBRANCH   4  17
TORSDOF 6
ENDMDL
MODEL 6
REMARK VINA RESULT:      -8.8      1.093      1.281
REMARK  Name = 
REMARK  8 active torsions:
REMARK  status: ('A' for Active; 'I' for Inactive)
REMARK    1  A    between atoms: C_1  and  C_2
REMARK    2  A    between atoms: C_2  and  C_3
REMARK    3  A    between atoms: C_3  and  C_4
REMARK    4  A    between atoms: N_6  and  C_7
REMARK    5  A    between atoms: N_6  and  S_28
REMARK    6  A    between atoms: C_10  and  N_11
REMARK    7  A    between atoms: N_11  and  C_12
REMARK    8  A    between atoms: S_28  and  C_29
REMARK                            x       y       z     vdW  Elec       q    Type
REMARK                         _______ _______ _______ _____ _____    ______ ____
ROOT
ATOM      1  C   UNL     1       0.823   9.905  19.105  0.00  0.00    +0.000 A 
ATOM      2  C   UNL     1       1.425   9.414  17.973  0.00  0.00    +0.000 A 
ATOM      3  C   UNL     1       2.170   8.224  18.003  0.00  0.00    +0.000 A 
ATOM      4  C   UNL     1       2.349   7.469  19.146  0.00  0.00    +0.000 A 
ATOM      5  C   UNL     1       1.710   7.973  20.351  0.00  0.00    +0.000 A 
ATOM      6  C   UNL     1       0.968   9.198  20.321  0.00  0.00    +0.000 A 
ENDROOT
BRANCH   1   9
ATOM      7  C   UNL     1      -1.332  11.050  18.699  0.00  0.00    +0.000 C 
ATOM      8  O   UNL     1      -1.880   9.963  18.435  0.00  0.00    +0.000 OA
ATOM      9  N   UNL     1       0.009  11.091  19.040  0.00  0.00    +0.000 N 
BRANCH   9  10
ATOM     10  S   UNL     1       0.854  12.617  19.383  0.00  0.00    +0.000 S 
ATOM     11  C   UNL     1       0.724  13.174  21.076  0.00  0.00    +0.000 C 
ATOM     12  O   UNL     1       2.290  12.391  18.908  0.00  0.00    +0.000 OA
ATOM     13  O   UNL     1       0.285  13.651  18.385  0.00  0.00    +0.000 OA
ENDBRANCH   9  10
BRANCH   7  14
ATOM     14  C   UNL     1      -2.266  12.291  18.687  0.00  0.00    +0.000 C 
BRANCH  14  16
ATOM     15  C   UNL     1      -2.851  12.647  21.152  0.00  0.00    +0.000 C 
ATOM     16  C   UNL     1      -3.359  12.260  19.763  0.00  0.00    +0.000 C 
ENDBRANCH  14  16
ENDBRANCH   7  14
ENDBRANCH   1   9
BRANCH   4  17
ATOM     17  N   UNL     1       3.122   6.236  19.105  0.00  0.00    +0.000 N 
ATOM     18  H   UNL     1       4.061   6.346  19.502  0.00  0.00    +0.000 HD
BRANCH  17  19
ATOM     19  C   UNL     1       3.003   5.250  18.014  0.00  0.00    +0.000 A 
ATOM     20  C   UNL     1       4.118   5.175  17.179  0.00  0.00    +0.000 A 
ATOM     21  C   UNL     1       4.608   6.262  16.463  0.00  0.00    +0.000 A 
ATOM     22  C   UNL     1       5.726   6.103  15.649  0.00  0.00    +0.000 A 
ATOM     23  C   UNL     1       6.356   4.857  15.567  0.00  0.00    +0.000 A 
ATOM     24  C   UNL     1       5.911   3.777  16.345  0.00  0.00    +0.000 A 
ATOM     25  C   UNL     1       4.813   3.945  17.178  0.00  0.00    +0.000 A 
ATOM     26  N   UNL     1       4.480   3.052  18.171  0.00  0.00    +0.000 NA
ATOM     27  C   UNL     1       3.304   3.243  18.832  0.00  0.00    +0.000 A 
ATOM     28  C   UNL     1       3.230   3.341  20.259  0.00  0.00    +0.000 A 
ATOM     29  C   UNL     1       2.003   3.758  20.883  0.00  0.00    +0.000 A 
ATOM     30  C   UNL     1       0.883   3.807  20.120  0.00  0.00    +0.000 A 
ATOM     31  C   UNL     1       1.045   3.797  18.748  0.00  0.00    +0.000 A 
ATOM     32  C   UNL     1       2.328   3.961  18.178  0.00  0.00    +0.000 A 
ENDBRANCH  17  19
ENDBRANCH   4  17
TORSDOF 6
ENDMDL
MODEL 7
REMARK VINA RESULT:      -8.8      1.214      2.576
REMARK  Name = 
REMARK  8 active torsions:
REMARK  status: ('A' for Active; 'I' for Inactive)
REMARK    1  A    between atoms: C_1  and  C_2
REMARK    2  A    between atoms: C_2  and  C_3
REMARK    3  A    between atoms: C_3  and  C_4
REMARK    4  A    between atoms: N_6  and  C_7
REMARK    5  A    between atoms: N_6  and  S_28
REMARK    6  A    between atoms: C_10  and  N_11
REMARK    7  A    between atoms: N_11  and  C_12
REMARK    8  A    between atoms: S_28  and  C_29
REMARK                            x       y       z     vdW  Elec       q    Type
REMARK                         _______ _______ _______ _____ _____    ______ ____
ROOT
ATOM      1  C   UNL     1       0.715  10.072  19.616  0.00  0.00    +0.000 A 
ATOM      2  C   UNL     1       0.730   9.260  20.723  0.00  0.00    +0.000 A 
ATOM      3  C   UNL     1       1.437   8.047  20.726  0.00  0.00    +0.000 A 
ATOM      4  C   UNL     1       2.159   7.586  19.641  0.00  0.00    +0.000 A 
ATOM      5  C   UNL     1       2.158   8.441  18.464  0.00  0.00    +0.000 A 
ATOM      6  C   UNL     1       1.420   9.667  18.458  0.00  0.00    +0.000 A 
ENDROOT
BRANCH   1   9
ATOM      7  C   UNL     1       0.532  12.421  20.369  0.00  0.00    +0.000 C 
ATOM      8  O   UNL     1       1.597  12.317  21.008  0.00  0.00    +0.000 OA
ATOM      9  N   UNL     1       0.040  11.343  19.656  0.00  0.00    +0.000 N 
BRANCH   9  10
ATOM     10  S   UNL     1      -1.496  11.419  18.761  0.00  0.00    +0.000 S 
ATOM     11  C   UNL     1      -2.006   9.871  18.028  0.00  0.00    +0.000 C 
ATOM     12  O   UNL     1      -2.504  12.004  19.751  0.00  0.00    +0.000 OA
ATOM     13  O   UNL     1      -1.315  12.532  17.704  0.00  0.00    +0.000 OA
ENDBRANCH   9  10
BRANCH   7  14
ATOM     14  C   UNL     1      -0.121  13.831  20.381  0.00  0.00    +0.000 C 
BRANCH  14  16
ATOM     15  C   UNL     1      -0.232  15.805  18.759  0.00  0.00    +0.000 C 
ATOM     16  C   UNL     1       0.662  14.890  19.594  0.00  0.00    +0.000 C 
ENDBRANCH  14  16
ENDBRANCH   7  14
ENDBRANCH   1   9
BRANCH   4  17
ATOM     17  N   UNL     1       2.883   6.325  19.715  0.00  0.00    +0.000 N 
ATOM     18  H   UNL     1       3.608   6.329  20.440  0.00  0.00    +0.000 HD
BRANCH  17  19
ATOM     19  C   UNL     1       3.168   5.492  18.531  0.00  0.00    +0.000 A 
ATOM     20  C   UNL     1       4.465   5.623  18.034  0.00  0.00    +0.000 A 
ATOM     21  C   UNL     1       4.998   6.834  17.605  0.00  0.00    +0.000 A 
ATOM     22  C   UNL     1       6.301   6.879  17.118  0.00  0.00    +0.000 A 
ATOM     23  C   UNL     1       7.069   5.711  17.076  0.00  0.00    +0.000 A 
ATOM     24  C   UNL     1       6.562   4.502  17.577  0.00  0.00    +0.000 A 
ATOM     25  C   UNL     1       5.272   4.464  18.088  0.00  0.00    +0.000 A 
ATOM     26  N   UNL     1       4.795   3.420  18.846  0.00  0.00    +0.000 NA
ATOM     27  C   UNL     1       3.472   3.422  19.174  0.00  0.00    +0.000 A 
ATOM     28  C   UNL     1       3.015   3.317  20.527  0.00  0.00    +0.000 A 
ATOM     29  C   UNL     1       1.628   3.544  20.831  0.00  0.00    +0.000 A 
ATOM     30  C   UNL     1       0.749   3.606  19.799  0.00  0.00    +0.000 A 
ATOM     31  C   UNL     1       1.267   3.799  18.532  0.00  0.00    +0.000 A 
ATOM     32  C   UNL     1       2.627   4.143  18.360  0.00  0.00    +0.000 A 
ENDBRANCH  17  19
ENDBRANCH   4  17
TORSDOF 6
ENDMDL
MODEL 8
REMARK VINA RESULT:      -8.7      1.129      2.374
REMARK  Name = 
REMARK  8 active torsions:
REMARK  status: ('A' for Active; 'I' for Inactive)
REMARK    1  A    between atoms: C_1  and  C_2
REMARK    2  A    between atoms: C_2  and  C_3
REMARK    3  A    between atoms: C_3  and  C_4
REMARK    4  A    between atoms: N_6  and  C_7
REMARK    5  A    between atoms: N_6  and  S_28
REMARK    6  A    between atoms: C_10  and  N_11
REMARK    7  A    between atoms: N_11  and  C_12
REMARK    8  A    between atoms: S_28  and  C_29
REMARK                            x       y       z     vdW  Elec       q    Type
REMARK                         _______ _______ _______ _____ _____    ______ ____
ROOT
ATOM      1  C   UNL     1       0.692  10.046  18.949  0.00  0.00    +0.000 A 
ATOM      2  C   UNL     1       1.361   9.386  17.949  0.00  0.00    +0.000 A 
ATOM      3  C   UNL     1       2.084   8.210  18.209  0.00  0.00    +0.000 A 
ATOM      4  C   UNL     1       2.173   7.636  19.464  0.00  0.00    +0.000 A 
ATOM      5  C   UNL     1       1.461   8.320  20.531  0.00  0.00    +0.000 A 
ATOM      6  C   UNL     1       0.742   9.530  20.266  0.00  0.00    +0.000 A 
ENDROOT
BRANCH   1   9
ATOM      7  C   UNL     1       0.420  12.493  18.713  0.00  0.00    +0.000 C 
ATOM      8  O   UNL     1       1.609  12.674  19.038  0.00  0.00    +0.000 OA
ATOM      9  N   UNL     1      -0.098  11.212  18.649  0.00  0.00    +0.000 N 
BRANCH   9  10
ATOM     10  S   UNL     1      -1.798  10.896  18.235  0.00  0.00    +0.000 S 
ATOM     11  C   UNL     1      -2.239  11.298  16.550  0.00  0.00    +0.000 C 
ATOM     12  O   UNL     1      -2.033   9.432  18.610  0.00  0.00    +0.000 OA
ATOM     13  O   UNL     1      -2.639  11.689  19.261  0.00  0.00    +0.000 OA
ENDBRANCH   9  10
BRANCH   7  14
ATOM     14  C   UNL     1      -0.371  13.774  18.327  0.00  0.00    +0.000 C 
BRANCH  14  16
ATOM     15  C   UNL     1      -1.132  14.592  20.629  0.00  0.00    +0.000 C 
ATOM     16  C   UNL     1      -0.304  14.889  19.379  0.00  0.00    +0.000 C 
ENDBRANCH  14  16
ENDBRANCH   7  14
ENDBRANCH   1   9
BRANCH   4  17
ATOM     17  N   UNL     1       2.927   6.406  19.662  0.00  0.00    +0.000 N 
ATOM     18  H   UNL     1       3.613   6.483  20.421  0.00  0.00    +0.000 HD
BRANCH  17  19
ATOM     19  C   UNL     1       3.298   5.505  18.555  0.00  0.00    +0.000 A 
ATOM     20  C   UNL     1       4.620   5.633  18.126  0.00  0.00    +0.000 A 
ATOM     21  C   UNL     1       5.154   6.825  17.649  0.00  0.00    +0.000 A 
ATOM     22  C   UNL     1       6.482   6.868  17.237  0.00  0.00    +0.000 A 
ATOM     23  C   UNL     1       7.274   5.719  17.318  0.00  0.00    +0.000 A 
ATOM     24  C   UNL     1       6.762   4.533  17.868  0.00  0.00    +0.000 A 
ATOM     25  C   UNL     1       5.444   4.499  18.304  0.00  0.00    +0.000 A 
ATOM     26  N   UNL     1       4.943   3.496  19.102  0.00  0.00    +0.000 NA
ATOM     27  C   UNL     1       3.603   3.489  19.351  0.00  0.00    +0.000 A 
ATOM     28  C   UNL     1       3.069   3.462  20.679  0.00  0.00    +0.000 A 
ATOM     29  C   UNL     1       1.661   3.676  20.886  0.00  0.00    +0.000 A 
ATOM     30  C   UNL     1       0.845   3.651  19.803  0.00  0.00    +0.000 A 
ATOM     31  C   UNL     1       1.433   3.772  18.558  0.00  0.00    +0.000 A 
ATOM     32  C   UNL     1       2.794   4.135  18.443  0.00  0.00    +0.000 A 
ENDBRANCH  17  19
ENDBRANCH   4  17
TORSDOF 6
ENDMDL
MODEL 9
REMARK VINA RESULT:      -8.7      1.912      2.645
REMARK  Name = 
REMARK  8 active torsions:
REMARK  status: ('A' for Active; 'I' for Inactive)
REMARK    1  A    between atoms: C_1  and  C_2
REMARK    2  A    between atoms: C_2  and  C_3
REMARK    3  A    between atoms: C_3  and  C_4
REMARK    4  A    between atoms: N_6  and  C_7
REMARK    5  A    between atoms: N_6  and  S_28
REMARK    6  A    between atoms: C_10  and  N_11
REMARK    7  A    between atoms: N_11  and  C_12
REMARK    8  A    between atoms: S_28  and  C_29
REMARK                            x       y       z     vdW  Elec       q    Type
REMARK                         _______ _______ _______ _____ _____    ______ ____
ROOT
ATOM      1  C   UNL     1       0.538   9.530  20.257  0.00  0.00    +0.000 A 
ATOM      2  C   UNL     1       0.657   8.459  21.107  0.00  0.00    +0.000 A 
ATOM      3  C   UNL     1       1.491   7.372  20.797  0.00  0.00    +0.000 A 
ATOM      4  C   UNL     1       2.243   7.298  19.640  0.00  0.00    +0.000 A 
ATOM      5  C   UNL     1       2.133   8.430  18.734  0.00  0.00    +0.000 A 
ATOM      6  C   UNL     1       1.266   9.527  19.044  0.00  0.00    +0.000 A 
ENDROOT
BRANCH   1   9
ATOM      7  C   UNL     1      -0.369  11.111  21.929  0.00  0.00    +0.000 C 
ATOM      8  O   UNL     1       0.253  10.532  22.840  0.00  0.00    +0.000 OA
ATOM      9  N   UNL     1      -0.270  10.664  20.624  0.00  0.00    +0.000 N 
BRANCH   9  10
ATOM     10  S   UNL     1      -1.169  11.423  19.290  0.00  0.00    +0.000 S 
ATOM     11  C   UNL     1      -0.357  12.837  18.558  0.00  0.00    +0.000 C 
ATOM     12  O   UNL     1      -1.454  10.287  18.306  0.00  0.00    +0.000 OA
ATOM     13  O   UNL     1      -2.558  11.782  19.866  0.00  0.00    +0.000 OA
ENDBRANCH   9  10
BRANCH   7  14
ATOM     14  C   UNL     1      -1.168  12.372  22.360  0.00  0.00    +0.000 C 
BRANCH  14  16
ATOM     15  C   UNL     1      -3.586  12.935  22.975  0.00  0.00    +0.000 C 
ATOM     16  C   UNL     1      -2.362  12.072  23.276  0.00  0.00    +0.000 C 
ENDBRANCH  14  16
ENDBRANCH   7  14
ENDBRANCH   1   9
BRANCH   4  17
ATOM     17  N   UNL     1       3.100   6.148  19.387  0.00  0.00    +0.000 N 
ATOM     18  H   UNL     1       4.075   6.317  19.654  0.00  0.00    +0.000 HD
BRANCH  17  19
ATOM     19  C   UNL     1       2.900   5.235  18.246  0.00  0.00    +0.000 A 
ATOM     20  C   UNL     1       3.947   5.226  17.324  0.00  0.00    +0.000 A 
ATOM     21  C   UNL     1       4.373   6.362  16.645  0.00  0.00    +0.000 A 
ATOM     22  C   UNL     1       5.425   6.268  15.738  0.00  0.00    +0.000 A 
ATOM     23  C   UNL     1       6.053   5.037  15.525  0.00  0.00    +0.000 A 
ATOM     24  C   UNL     1       5.676   3.903  16.263  0.00  0.00    +0.000 A 
ATOM     25  C   UNL     1       4.645   4.005  17.188  0.00  0.00    +0.000 A 
ATOM     26  N   UNL     1       4.396   3.046  18.143  0.00  0.00    +0.000 NA
ATOM     27  C   UNL     1       3.274   3.182  18.904  0.00  0.00    +0.000 A 
ATOM     28  C   UNL     1       3.312   3.186  20.336  0.00  0.00    +0.000 A 
ATOM     29  C   UNL     1       2.136   3.549  21.080  0.00  0.00    +0.000 A 
ATOM     30  C   UNL     1       0.959   3.636  20.411  0.00  0.00    +0.000 A 
ATOM     31  C   UNL     1       1.013   3.717  19.033  0.00  0.00    +0.000 A 
ATOM     32  C   UNL     1       2.246   3.932  18.377  0.00  0.00    +0.000 A 
ENDBRANCH  17  19
ENDBRANCH   4  17
TORSDOF 6
ENDMDL
