MODEL 1
REMARK VINA RESULT:      -7.0      0.000      0.000
REMARK  Name = 
REMARK  6 active torsions:
REMARK  status: ('A' for Active; 'I' for Inactive)
REMARK    1  A    between atoms: C_1  and  C_2
REMARK    2  A    between atoms: C_2  and  N_3
REMARK    3  A    between atoms: N_3  and  C_4
REMARK    4  A    between atoms: N_3  and  S_11
REMARK    5  A    between atoms: C_4  and  C_5
REMARK    6  A    between atoms: S_11  and  C_14
REMARK                            x       y       z     vdW  Elec       q    Type
REMARK                         _______ _______ _______ _____ _____    ______ ____
ROOT
ATOM      1  N   UNL     1       3.160   4.610  18.546  0.00  0.00    +0.000 NA
ENDROOT
BRANCH   1   2
ATOM      2  S   UNL     1       4.652   3.719  18.379  0.00  0.00    +0.000 S 
ATOM      3  O   UNL     1       4.907   2.947  19.572  0.00  0.00    +0.000 OA
ATOM      4  O   UNL     1       4.617   3.098  17.071  0.00  0.00    +0.000 OA
BRANCH   2   5
ATOM      5  C   UNL     1       5.913   4.970  18.347  0.00  0.00    +0.000 A 
ATOM      6  C   UNL     1       6.774   5.133  19.443  0.00  0.00    +0.000 A 
ATOM      7  C   UNL     1       7.770   6.109  19.418  0.00  0.00    +0.000 A 
ATOM      8  C   UNL     1       7.932   6.908  18.288  0.00  0.00    +0.000 A 
ATOM      9  C   UNL     1       7.100   6.728  17.184  0.00  0.00    +0.000 A 
ATOM     10  C   UNL     1       6.087   5.761  17.204  0.00  0.00    +0.000 A 
ATOM     11 BR   UNL     1       5.048   5.601  15.621  0.00  0.00    +0.000 Br
ENDBRANCH   2   5
ENDBRANCH   1   2
BRANCH   1  13
ATOM     12  C   UNL     1       1.156   3.819  19.884  0.00  0.00    +0.000 C 
ATOM     13  C   UNL     1       1.979   3.670  18.615  0.00  0.00    +0.000 C 
ENDBRANCH   1  13
BRANCH   1  14
ATOM     14  C   UNL     1       3.158   5.612  19.656  0.00  0.00    +0.000 C 
BRANCH  14  15
ATOM     15  C   UNL     1       2.558   6.967  19.348  0.00  0.00    +0.000 A 
ATOM     16  C   UNL     1       1.806   7.676  20.294  0.00  0.00    +0.000 A 
ATOM     17  C   UNL     1       1.232   8.909  19.962  0.00  0.00    +0.000 A 
ATOM     18  C   UNL     1       1.407   9.445  18.686  0.00  0.00    +0.000 A 
ATOM     19  C   UNL     1       2.160   8.753  17.740  0.00  0.00    +0.000 A 
ATOM     20  C   UNL     1       2.738   7.526  18.071  0.00  0.00    +0.000 A 
ENDBRANCH  14  15
ENDBRANCH   1  14
TORSDOF 5
ENDMDL
MODEL 2
REMARK VINA RESULT:      -7.0      0.234      1.103
REMARK  Name = 
REMARK  6 active torsions:
REMARK  status: ('A' for Active; 'I' for Inactive)
REMARK    1  A    between atoms: C_1  and  C_2
REMARK    2  A    between atoms: C_2  and  N_3
REMARK    3  A    between atoms: N_3  and  C_4
REMARK    4  A    between atoms: N_3  and  S_11
REMARK    5  A    between atoms: C_4  and  C_5
REMARK    6  A    between atoms: S_11  and  C_14
REMARK                            x       y       z     vdW  Elec       q    Type
REMARK                         _______ _______ _______ _____ _____    ______ ____
ROOT
ATOM      1  N   UNL     1       3.233   4.788  18.508  0.00  0.00    +0.000 NA
ENDROOT
BRANCH   1   2
ATOM      2  S   UNL     1       4.717   3.893  18.295  0.00  0.00    +0.000 S 
ATOM      3  O   UNL     1       4.962   3.052  19.443  0.00  0.00    +0.000 OA
ATOM      4  O   UNL     1       4.680   3.347  16.954  0.00  0.00    +0.000 OA
BRANCH   2   5
ATOM      5  C   UNL     1       5.990   5.132  18.335  0.00  0.00    +0.000 A 
ATOM      6  C   UNL     1       6.876   5.198  19.421  0.00  0.00    +0.000 A 
ATOM      7  C   UNL     1       7.881   6.165  19.453  0.00  0.00    +0.000 A 
ATOM      8  C   UNL     1       8.027   7.051  18.388  0.00  0.00    +0.000 A 
ATOM      9  C   UNL     1       7.169   6.968  17.292  0.00  0.00    +0.000 A 
ATOM     10  C   UNL     1       6.148   6.011  17.257  0.00  0.00    +0.000 A 
ATOM     11 BR   UNL     1       5.073   5.989  15.689  0.00  0.00    +0.000 Br
ENDBRANCH   2   5
ENDBRANCH   1   2
BRANCH   1  13
ATOM     12  C   UNL     1       1.329   4.051  20.013  0.00  0.00    +0.000 C 
ATOM     13  C   UNL     1       2.065   3.849  18.698  0.00  0.00    +0.000 C 
ENDBRANCH   1  13
BRANCH   1  14
ATOM     14  C   UNL     1       3.294   5.845  19.563  0.00  0.00    +0.000 C 
BRANCH  14  15
ATOM     15  C   UNL     1       2.566   7.139  19.271  0.00  0.00    +0.000 A 
ATOM     16  C   UNL     1       2.626   7.755  18.014  0.00  0.00    +0.000 A 
ATOM     17  C   UNL     1       1.973   8.973  17.789  0.00  0.00    +0.000 A 
ATOM     18  C   UNL     1       1.252   9.582  18.816  0.00  0.00    +0.000 A 
ATOM     19  C   UNL     1       1.178   8.975  20.067  0.00  0.00    +0.000 A 
ATOM     20  C   UNL     1       1.824   7.758  20.291  0.00  0.00    +0.000 A 
ENDBRANCH  14  15
ENDBRANCH   1  14
TORSDOF 5
ENDMDL
MODEL 3
REMARK VINA RESULT:      -6.9      1.529      2.104
REMARK  Name = 
REMARK  6 active torsions:
REMARK  status: ('A' for Active; 'I' for Inactive)
REMARK    1  A    between atoms: C_1  and  C_2
REMARK    2  A    between atoms: C_2  and  N_3
REMARK    3  A    between atoms: N_3  and  C_4
REMARK    4  A    between atoms: N_3  and  S_11
REMARK    5  A    between atoms: C_4  and  C_5
REMARK    6  A    between atoms: S_11  and  C_14
REMARK                            x       y       z     vdW  Elec       q    Type
REMARK                         _______ _______ _______ _____ _____    ______ ____
ROOT
ATOM      1  N   UNL     1       2.899   4.694  18.504  0.00  0.00    +0.000 NA
ENDROOT
BRANCH   1   2
ATOM      2  S   UNL     1       4.144   3.475  18.389  0.00  0.00    +0.000 S 
ATOM      3  O   UNL     1       4.942   3.463  19.592  0.00  0.00    +0.000 OA
ATOM      4  O   UNL     1       3.500   2.274  17.898  0.00  0.00    +0.000 OA
BRANCH   2   5
ATOM      5  C   UNL     1       5.225   4.066  17.109  0.00  0.00    +0.000 A 
ATOM      6  C   UNL     1       4.961   3.760  15.766  0.00  0.00    +0.000 A 
ATOM      7  C   UNL     1       5.804   4.228  14.757  0.00  0.00    +0.000 A 
ATOM      8  C   UNL     1       6.896   5.029  15.081  0.00  0.00    +0.000 A 
ATOM      9  C   UNL     1       7.144   5.363  16.412  0.00  0.00    +0.000 A 
ATOM     10  C   UNL     1       6.313   4.886  17.433  0.00  0.00    +0.000 A 
ATOM     11 BR   UNL     1       6.747   5.445  19.198  0.00  0.00    +0.000 Br
ENDBRANCH   2   5
ENDBRANCH   1   2
BRANCH   1  13
ATOM     12  C   UNL     1       1.130   3.822  20.098  0.00  0.00    +0.000 C 
ATOM     13  C   UNL     1       1.537   4.057  18.652  0.00  0.00    +0.000 C 
ENDBRANCH   1  13
BRANCH   1  14
ATOM     14  C   UNL     1       3.154   5.744  19.538  0.00  0.00    +0.000 C 
BRANCH  14  15
ATOM     15  C   UNL     1       2.486   7.085  19.325  0.00  0.00    +0.000 A 
ATOM     16  C   UNL     1       1.764   7.723  20.343  0.00  0.00    +0.000 A 
ATOM     17  C   UNL     1       1.125   8.944  20.100  0.00  0.00    +0.000 A 
ATOM     18  C   UNL     1       1.204   9.539  18.840  0.00  0.00    +0.000 A 
ATOM     19  C   UNL     1       1.926   8.919  17.823  0.00  0.00    +0.000 A 
ATOM     20  C   UNL     1       2.568   7.703  18.066  0.00  0.00    +0.000 A 
ENDBRANCH  14  15
ENDBRANCH   1  14
TORSDOF 5
ENDMDL
MODEL 4
REMARK VINA RESULT:      -6.9      1.518      2.363
REMARK  Name = 
REMARK  6 active torsions:
REMARK  status: ('A' for Active; 'I' for Inactive)
REMARK    1  A    between atoms: C_1  and  C_2
REMARK    2  A    between atoms: C_2  and  N_3
REMARK    3  A    between atoms: N_3  and  C_4
REMARK    4  A    between atoms: N_3  and  S_11
REMARK    5  A    between atoms: C_4  and  C_5
REMARK    6  A    between atoms: S_11  and  C_14
REMARK                            x       y       z     vdW  Elec       q    Type
REMARK                         _______ _______ _______ _____ _____    ______ ____
ROOT
ATOM      1  N   UNL     1       2.863   4.589  18.567  0.00  0.00    +0.000 NA
ENDROOT
BRANCH   1   2
ATOM      2  S   UNL     1       4.149   3.417  18.424  0.00  0.00    +0.000 S 
ATOM      3  O   UNL     1       4.968   3.427  19.613  0.00  0.00    +0.000 OA
ATOM      4  O   UNL     1       3.542   2.195  17.936  0.00  0.00    +0.000 OA
BRANCH   2   5
ATOM      5  C   UNL     1       5.187   4.055  17.130  0.00  0.00    +0.000 A 
ATOM      6  C   UNL     1       4.912   3.747  15.789  0.00  0.00    +0.000 A 
ATOM      7  C   UNL     1       5.720   4.252  14.770  0.00  0.00    +0.000 A 
ATOM      8  C   UNL     1       6.787   5.090  15.080  0.00  0.00    +0.000 A 
ATOM      9  C   UNL     1       7.045   5.425  16.409  0.00  0.00    +0.000 A 
ATOM     10  C   UNL     1       6.249   4.912  17.441  0.00  0.00    +0.000 A 
ATOM     11 BR   UNL     1       6.693   5.475  19.202  0.00  0.00    +0.000 Br
ENDBRANCH   2   5
ENDBRANCH   1   2
BRANCH   1  13
ATOM     12  C   UNL     1       1.175   3.727  20.252  0.00  0.00    +0.000 C 
ATOM     13  C   UNL     1       1.535   3.902  18.786  0.00  0.00    +0.000 C 
ENDBRANCH   1  13
BRANCH   1  14
ATOM     14  C   UNL     1       3.118   5.670  19.567  0.00  0.00    +0.000 C 
BRANCH  14  15
ATOM     15  C   UNL     1       2.475   7.012  19.297  0.00  0.00    +0.000 A 
ATOM     16  C   UNL     1       2.597   7.655  18.057  0.00  0.00    +0.000 A 
ATOM     17  C   UNL     1       2.022   8.915  17.853  0.00  0.00    +0.000 A 
ATOM     18  C   UNL     1       1.319   9.541  18.883  0.00  0.00    +0.000 A 
ATOM     19  C   UNL     1       1.184   8.908  20.116  0.00  0.00    +0.000 A 
ATOM     20  C   UNL     1       1.752   7.649  20.319  0.00  0.00    +0.000 A 
ENDBRANCH  14  15
ENDBRANCH   1  14
TORSDOF 5
ENDMDL
MODEL 5
REMARK VINA RESULT:      -6.7      1.604      2.509
REMARK  Name = 
REMARK  6 active torsions:
REMARK  status: ('A' for Active; 'I' for Inactive)
REMARK    1  A    between atoms: C_1  and  C_2
REMARK    2  A    between atoms: C_2  and  N_3
REMARK    3  A    between atoms: N_3  and  C_4
REMARK    4  A    between atoms: N_3  and  S_11
REMARK    5  A    between atoms: C_4  and  C_5
REMARK    6  A    between atoms: S_11  and  C_14
REMARK                            x       y       z     vdW  Elec       q    Type
REMARK                         _______ _______ _______ _____ _____    ______ ____
ROOT
ATOM      1  N   UNL     1       3.219   4.547  19.077  0.00  0.00    +0.000 NA
ENDROOT
BRANCH   1   2
ATOM      2  S   UNL     1       4.950   4.345  19.176  0.00  0.00    +0.000 S 
ATOM      3  O   UNL     1       5.539   5.442  19.905  0.00  0.00    +0.000 OA
ATOM      4  O   UNL     1       5.182   2.969  19.566  0.00  0.00    +0.000 OA
BRANCH   2   5
ATOM      5  C   UNL     1       5.514   4.531  17.502  0.00  0.00    +0.000 A 
ATOM      6  C   UNL     1       4.727   4.069  16.437  0.00  0.00    +0.000 A 
ATOM      7  C   UNL     1       5.163   4.220  15.120  0.00  0.00    +0.000 A 
ATOM      8  C   UNL     1       6.373   4.858  14.858  0.00  0.00    +0.000 A 
ATOM      9  C   UNL     1       7.144   5.347  15.912  0.00  0.00    +0.000 A 
ATOM     10  C   UNL     1       6.722   5.189  17.238  0.00  0.00    +0.000 A 
ATOM     11 BR   UNL     1       7.853   5.931  18.573  0.00  0.00    +0.000 Br
ENDBRANCH   2   5
ENDBRANCH   1   2
BRANCH   1  13
ATOM     12  C   UNL     1       1.258   3.140  18.296  0.00  0.00    +0.000 C 
ATOM     13  C   UNL     1       2.518   3.210  19.143  0.00  0.00    +0.000 C 
ENDBRANCH   1  13
BRANCH   1  14
ATOM     14  C   UNL     1       2.654   5.536  20.046  0.00  0.00    +0.000 C 
BRANCH  14  15
ATOM     15  C   UNL     1       2.263   6.887  19.487  0.00  0.00    +0.000 A 
ATOM     16  C   UNL     1       2.544   7.251  18.163  0.00  0.00    +0.000 A 
ATOM     17  C   UNL     1       2.204   8.524  17.690  0.00  0.00    +0.000 A 
ATOM     18  C   UNL     1       1.578   9.442  18.535  0.00  0.00    +0.000 A 
ATOM     19  C   UNL     1       1.286   9.089  19.849  0.00  0.00    +0.000 A 
ATOM     20  C   UNL     1       1.620   7.818  20.321  0.00  0.00    +0.000 A 
ENDBRANCH  14  15
ENDBRANCH   1  14
TORSDOF 5
ENDMDL
MODEL 6
REMARK VINA RESULT:      -6.6      2.892      6.192
REMARK  Name = 
REMARK  6 active torsions:
REMARK  status: ('A' for Active; 'I' for Inactive)
REMARK    1  A    between atoms: C_1  and  C_2
REMARK    2  A    between atoms: C_2  and  N_3
REMARK    3  A    between atoms: N_3  and  C_4
REMARK    4  A    between atoms: N_3  and  S_11
REMARK    5  A    between atoms: C_4  and  C_5
REMARK    6  A    between atoms: S_11  and  C_14
REMARK                            x       y       z     vdW  Elec       q    Type
REMARK                         _______ _______ _______ _____ _____    ______ ____
ROOT
ATOM      1  N   UNL     1       5.759   5.447  17.047  0.00  0.00    +0.000 NA
ENDROOT
BRANCH   1   2
ATOM      2  S   UNL     1       5.333   4.958  18.668  0.00  0.00    +0.000 S 
ATOM      3  O   UNL     1       6.308   4.024  19.180  0.00  0.00    +0.000 OA
ATOM      4  O   UNL     1       4.998   6.169  19.389  0.00  0.00    +0.000 OA
BRANCH   2   5
ATOM      5  C   UNL     1       3.837   4.020  18.470  0.00  0.00    +0.000 A 
ATOM      6  C   UNL     1       3.859   2.624  18.597  0.00  0.00    +0.000 A 
ATOM      7  C   UNL     1       2.684   1.884  18.449  0.00  0.00    +0.000 A 
ATOM      8  C   UNL     1       1.479   2.537  18.203  0.00  0.00    +0.000 A 
ATOM      9  C   UNL     1       1.448   3.927  18.108  0.00  0.00    +0.000 A 
ATOM     10  C   UNL     1       2.623   4.678  18.240  0.00  0.00    +0.000 A 
ATOM     11 BR   UNL     1       2.430   6.565  18.120  0.00  0.00    +0.000 Br
ENDBRANCH   2   5
ENDBRANCH   1   2
BRANCH   1  13
ATOM     12  C   UNL     1       7.486   7.270  17.400  0.00  0.00    +0.000 C 
ATOM     13  C   UNL     1       6.061   6.926  16.996  0.00  0.00    +0.000 C 
ENDBRANCH   1  13
BRANCH   1  14
ATOM     14  C   UNL     1       6.833   4.622  16.414  0.00  0.00    +0.000 C 
BRANCH  14  15
ATOM     15  C   UNL     1       6.798   4.503  14.906  0.00  0.00    +0.000 A 
ATOM     16  C   UNL     1       5.884   3.667  14.249  0.00  0.00    +0.000 A 
ATOM     17  C   UNL     1       5.906   3.551  12.854  0.00  0.00    +0.000 A 
ATOM     18  C   UNL     1       6.837   4.271  12.105  0.00  0.00    +0.000 A 
ATOM     19  C   UNL     1       7.744   5.111  12.745  0.00  0.00    +0.000 A 
ATOM     20  C   UNL     1       7.720   5.232  14.136  0.00  0.00    +0.000 A 
ENDBRANCH  14  15
ENDBRANCH   1  14
TORSDOF 5
ENDMDL
MODEL 7
REMARK VINA RESULT:      -6.5      1.820      3.879
REMARK  Name = 
REMARK  6 active torsions:
REMARK  status: ('A' for Active; 'I' for Inactive)
REMARK    1  A    between atoms: C_1  and  C_2
REMARK    2  A    between atoms: C_2  and  N_3
REMARK    3  A    between atoms: N_3  and  C_4
REMARK    4  A    between atoms: N_3  and  S_11
REMARK    5  A    between atoms: C_4  and  C_5
REMARK    6  A    between atoms: S_11  and  C_14
REMARK                            x       y       z     vdW  Elec       q    Type
REMARK                         _______ _______ _______ _____ _____    ______ ____
ROOT
ATOM      1  N   UNL     1       3.327   6.481  17.812  0.00  0.00    +0.000 NA
ENDROOT
BRANCH   1   2
ATOM      2  S   UNL     1       4.611   6.025  16.720  0.00  0.00    +0.000 S 
ATOM      3  O   UNL     1       4.568   4.605  16.465  0.00  0.00    +0.000 OA
ATOM      4  O   UNL     1       4.592   6.987  15.637  0.00  0.00    +0.000 OA
BRANCH   2   5
ATOM      5  C   UNL     1       6.100   6.293  17.651  0.00  0.00    +0.000 A 
ATOM      6  C   UNL     1       6.923   7.393  17.364  0.00  0.00    +0.000 A 
ATOM      7  C   UNL     1       8.090   7.611  18.098  0.00  0.00    +0.000 A 
ATOM      8  C   UNL     1       8.425   6.751  19.141  0.00  0.00    +0.000 A 
ATOM      9  C   UNL     1       7.594   5.676  19.451  0.00  0.00    +0.000 A 
ATOM     10  C   UNL     1       6.428   5.439  18.711  0.00  0.00    +0.000 A 
ATOM     11 BR   UNL     1       5.371   3.958  19.262  0.00  0.00    +0.000 Br
ENDBRANCH   2   5
ENDBRANCH   1   2
BRANCH   1  13
ATOM     12  C   UNL     1       1.929   8.429  18.638  0.00  0.00    +0.000 C 
ATOM     13  C   UNL     1       3.047   7.962  17.719  0.00  0.00    +0.000 C 
ENDBRANCH   1  13
BRANCH   1  14
ATOM     14  C   UNL     1       2.087   5.656  17.688  0.00  0.00    +0.000 C 
BRANCH  14  15
ATOM     15  C   UNL     1       1.865   4.599  18.748  0.00  0.00    +0.000 A 
ATOM     16  C   UNL     1       1.612   3.260  18.417  0.00  0.00    +0.000 A 
ATOM     17  C   UNL     1       1.371   2.316  19.422  0.00  0.00    +0.000 A 
ATOM     18  C   UNL     1       1.385   2.699  20.764  0.00  0.00    +0.000 A 
ATOM     19  C   UNL     1       1.644   4.024  21.104  0.00  0.00    +0.000 A 
ATOM     20  C   UNL     1       1.890   4.966  20.104  0.00  0.00    +0.000 A 
ENDBRANCH  14  15
ENDBRANCH   1  14
TORSDOF 5
ENDMDL
MODEL 8
REMARK VINA RESULT:      -6.4      2.920      6.138
REMARK  Name = 
REMARK  6 active torsions:
REMARK  status: ('A' for Active; 'I' for Inactive)
REMARK    1  A    between atoms: C_1  and  C_2
REMARK    2  A    between atoms: C_2  and  N_3
REMARK    3  A    between atoms: N_3  and  C_4
REMARK    4  A    between atoms: N_3  and  S_11
REMARK    5  A    between atoms: C_4  and  C_5
REMARK    6  A    between atoms: S_11  and  C_14
REMARK                            x       y       z     vdW  Elec       q    Type
REMARK                         _______ _______ _______ _____ _____    ______ ____
ROOT
ATOM      1  N   UNL     1       6.046   5.943  16.990  0.00  0.00    +0.000 NA
ENDROOT
BRANCH   1   2
ATOM      2  S   UNL     1       5.727   5.013  18.432  0.00  0.00    +0.000 S 
ATOM      3  O   UNL     1       6.661   3.918  18.537  0.00  0.00    +0.000 OA
ATOM      4  O   UNL     1       5.558   5.967  19.509  0.00  0.00    +0.000 OA
BRANCH   2   5
ATOM      5  C   UNL     1       4.146   4.259  18.132  0.00  0.00    +0.000 A 
ATOM      6  C   UNL     1       4.038   2.865  18.027  0.00  0.00    +0.000 A 
ATOM      7  C   UNL     1       2.797   2.269  17.798  0.00  0.00    +0.000 A 
ATOM      8  C   UNL     1       1.654   3.059  17.703  0.00  0.00    +0.000 A 
ATOM      9  C   UNL     1       1.752   4.443  17.838  0.00  0.00    +0.000 A 
ATOM     10  C   UNL     1       2.994   5.053  18.054  0.00  0.00    +0.000 A 
ATOM     11 BR   UNL     1       2.978   6.943  18.252  0.00  0.00    +0.000 Br
ENDBRANCH   2   5
ENDBRANCH   1   2
BRANCH   1  13
ATOM     12  C   UNL     1       7.669   7.823  17.504  0.00  0.00    +0.000 C 
ATOM     13  C   UNL     1       6.218   7.407  17.323  0.00  0.00    +0.000 C 
ENDBRANCH   1  13
BRANCH   1  14
ATOM     14  C   UNL     1       7.162   5.414  16.146  0.00  0.00    +0.000 C 
BRANCH  14  15
ATOM     15  C   UNL     1       6.778   4.805  14.816  0.00  0.00    +0.000 A 
ATOM     16  C   UNL     1       7.582   4.947  13.677  0.00  0.00    +0.000 A 
ATOM     17  C   UNL     1       7.178   4.404  12.451  0.00  0.00    +0.000 A 
ATOM     18  C   UNL     1       5.970   3.713  12.355  0.00  0.00    +0.000 A 
ATOM     19  C   UNL     1       5.166   3.558  13.481  0.00  0.00    +0.000 A 
ATOM     20  C   UNL     1       5.571   4.094  14.705  0.00  0.00    +0.000 A 
ENDBRANCH  14  15
ENDBRANCH   1  14
TORSDOF 5
ENDMDL
MODEL 9
REMARK VINA RESULT:      -6.4      1.569      4.145
REMARK  Name = 
REMARK  6 active torsions:
REMARK  status: ('A' for Active; 'I' for Inactive)
REMARK    1  A    between atoms: C_1  and  C_2
REMARK    2  A    between atoms: C_2  and  N_3
REMARK    3  A    between atoms: N_3  and  C_4
REMARK    4  A    between atoms: N_3  and  S_11
REMARK    5  A    between atoms: C_4  and  C_5
REMARK    6  A    between atoms: S_11  and  C_14
REMARK                            x       y       z     vdW  Elec       q    Type
REMARK                         _______ _______ _______ _____ _____    ______ ____
ROOT
ATOM      1  N   UNL     1       4.675   5.650  18.651  0.00  0.00    +0.000 NA
ENDROOT
BRANCH   1   2
ATOM      2  S   UNL     1       4.530   3.920  18.467  0.00  0.00    +0.000 S 
ATOM      3  O   UNL     1       4.057   3.597  17.142  0.00  0.00    +0.000 OA
ATOM      4  O   UNL     1       5.751   3.345  18.993  0.00  0.00    +0.000 OA
BRANCH   2   5
ATOM      5  C   UNL     1       3.208   3.467  19.565  0.00  0.00    +0.000 A 
ATOM      6  C   UNL     1       3.489   3.055  20.876  0.00  0.00    +0.000 A 
ATOM      7  C   UNL     1       2.453   2.706  21.743  0.00  0.00    +0.000 A 
ATOM      8  C   UNL     1       1.131   2.796  21.316  0.00  0.00    +0.000 A 
ATOM      9  C   UNL     1       0.844   3.236  20.024  0.00  0.00    +0.000 A 
ATOM     10  C   UNL     1       1.877   3.575  19.141  0.00  0.00    +0.000 A 
ATOM     11 BR   UNL     1       1.344   4.189  17.423  0.00  0.00    +0.000 Br
ENDBRANCH   2   5
ENDBRANCH   1   2
BRANCH   1  13
ATOM     12  C   UNL     1       6.496   6.674  17.214  0.00  0.00    +0.000 C 
ATOM     13  C   UNL     1       6.121   6.078  18.560  0.00  0.00    +0.000 C 
ENDBRANCH   1  13
BRANCH   1  14
ATOM     14  C   UNL     1       3.786   6.445  17.749  0.00  0.00    +0.000 C 
BRANCH  14  15
ATOM     15  C   UNL     1       2.848   7.428  18.414  0.00  0.00    +0.000 A 
ATOM     16  C   UNL     1       2.376   7.234  19.719  0.00  0.00    +0.000 A 
ATOM     17  C   UNL     1       1.477   8.142  20.290  0.00  0.00    +0.000 A 
ATOM     18  C   UNL     1       1.045   9.253  19.563  0.00  0.00    +0.000 A 
ATOM     19  C   UNL     1       1.514   9.460  18.269  0.00  0.00    +0.000 A 
ATOM     20  C   UNL     1       2.415   8.558  17.700  0.00  0.00    +0.000 A 
ENDBRANCH  14  15
ENDBRANCH   1  14
TORSDOF 5
ENDMDL
