MODEL 1
REMARK VINA RESULT:      -7.1      0.000      0.000
REMARK  Name = 
REMARK  13 active torsions:
REMARK  status: ('A' for Active; 'I' for Inactive)
REMARK    1  A    between atoms: C_1  and  O_2
REMARK    2  A    between atoms: O_2  and  C_3
REMARK    3  A    between atoms: C_3  and  C_4
REMARK    4  A    between atoms: C_4  and  N_5
REMARK    5  A    between atoms: C_6  and  C_7
REMARK    6  A    between atoms: C_9  and  C_10
REMARK    7  A    between atoms: C_10  and  C_12
REMARK    8  A    between atoms: C_12  and  O_13
REMARK    9  A    between atoms: O_13  and  C_14
REMARK   10  A    between atoms: C_14  and  C_16
REMARK   11  A    between atoms: C_16  and  N_17
REMARK   12  A    between atoms: C_18  and  C_20
REMARK   13  A    between atoms: C_26  and  C_27
REMARK                            x       y       z     vdW  Elec       q    Type
REMARK                         _______ _______ _______ _____ _____    ______ ____
ROOT
ATOM      1  C   UNL     1       1.508   5.239  20.511  0.00  0.00    +0.000 C 
ENDROOT
BRANCH   1   2
ATOM      2  C   UNL     1       2.297   6.456  20.029  0.00  0.00    +0.000 C 
ATOM      3  O   UNL     1       3.402   6.309  19.507  0.00  0.00    +0.000 OA
BRANCH   2   8
ATOM      4  N   UNL     1       0.849   9.829  19.718  0.00  0.00    +0.000 N 
ATOM      5  C   UNL     1       0.636   9.618  21.069  0.00  0.00    +0.000 A 
ATOM      6  C   UNL     1      -0.000  10.580  22.014  0.00  0.00    +0.000 C 
ATOM      7  C   UNL     1       1.118   8.358  21.366  0.00  0.00    +0.000 A 
ATOM      8  C   UNL     1       1.690   7.783  20.197  0.00  0.00    +0.000 A 
ATOM      9  C   UNL     1       1.578   8.765  19.206  0.00  0.00    +0.000 A 
ATOM     10  C   UNL     1       2.099   8.738  17.803  0.00  0.00    +0.000 C 
BRANCH   4  11
ATOM     11  C   UNL     1       0.382  10.968  18.931  0.00  0.00    +0.000 C 
BRANCH  11  12
ATOM     12  C   UNL     1       1.335  12.159  18.996  0.00  0.00    +0.000 C 
BRANCH  12  14
ATOM     13  C   UNL     1      -0.018  14.068  19.045  0.00  0.00    +0.000 C 
ATOM     14  O   UNL     1       0.832  13.259  18.234  0.00  0.00    +0.000 OA
ENDBRANCH  12  14
ENDBRANCH  11  12
ENDBRANCH   4  11
ENDBRANCH   2   8
ENDBRANCH   1   2
BRANCH   1  15
ATOM     15  O   UNL     1       2.378   4.364  21.244  0.00  0.00    +0.000 OA
BRANCH  15  16
ATOM     16  C   UNL     1       2.137   3.033  21.170  0.00  0.00    +0.000 C 
ATOM     17  O   UNL     1       1.724   2.335  22.087  0.00  0.00    +0.000 OA
BRANCH  16  18
ATOM     18  C   UNL     1       2.357   2.519  19.745  0.00  0.00    +0.000 C 
BRANCH  18  19
ATOM     19  N   UNL     1       3.523   3.119  19.125  0.00  0.00    +0.000 N 
ATOM     20  C   UNL     1       3.496   3.457  17.785  0.00  0.00    +0.000 C 
ATOM     21  O   UNL     1       2.493   3.343  17.087  0.00  0.00    +0.000 OA
ATOM     22  H   UNL     1       4.407   3.042  19.610  0.00  0.00    +0.000 HD
BRANCH  20  23
ATOM     23  C   UNL     1       4.772   3.934  17.184  0.00  0.00    +0.000 A 
ATOM     24  C   UNL     1       4.844   4.038  15.787  0.00  0.00    +0.000 A 
ATOM     25  C   UNL     1       6.024   4.455  15.171  0.00  0.00    +0.000 A 
ATOM     26  C   UNL     1       7.136   4.780  15.947  0.00  0.00    +0.000 A 
ATOM     27  C   UNL     1       7.063   4.705  17.338  0.00  0.00    +0.000 A 
ATOM     28  C   UNL     1       5.883   4.288  17.959  0.00  0.00    +0.000 A 
ENDBRANCH  20  23
ENDBRANCH  18  19
ENDBRANCH  16  18
ENDBRANCH  15  16
ENDBRANCH   1  15
TORSDOF 10
ENDMDL
MODEL 2
REMARK VINA RESULT:      -7.0      1.259      1.386
REMARK  Name = 
REMARK  13 active torsions:
REMARK  status: ('A' for Active; 'I' for Inactive)
REMARK    1  A    between atoms: C_1  and  O_2
REMARK    2  A    between atoms: O_2  and  C_3
REMARK    3  A    between atoms: C_3  and  C_4
REMARK    4  A    between atoms: C_4  and  N_5
REMARK    5  A    between atoms: C_6  and  C_7
REMARK    6  A    between atoms: C_9  and  C_10
REMARK    7  A    between atoms: C_10  and  C_12
REMARK    8  A    between atoms: C_12  and  O_13
REMARK    9  A    between atoms: O_13  and  C_14
REMARK   10  A    between atoms: C_14  and  C_16
REMARK   11  A    between atoms: C_16  and  N_17
REMARK   12  A    between atoms: C_18  and  C_20
REMARK   13  A    between atoms: C_26  and  C_27
REMARK                            x       y       z     vdW  Elec       q    Type
REMARK                         _______ _______ _______ _____ _____    ______ ____
ROOT
ATOM      1  C   UNL     1       2.241   5.493  20.964  0.00  0.00    +0.000 C 
ENDROOT
BRANCH   1   2
ATOM      2  C   UNL     1       2.239   6.537  19.848  0.00  0.00    +0.000 C 
ATOM      3  O   UNL     1       2.732   6.271  18.752  0.00  0.00    +0.000 OA
BRANCH   2   8
ATOM      4  N   UNL     1       0.759   9.911  19.814  0.00  0.00    +0.000 N 
ATOM      5  C   UNL     1       0.566   9.595  21.147  0.00  0.00    +0.000 A 
ATOM      6  C   UNL     1      -0.067  10.476  22.171  0.00  0.00    +0.000 C 
ATOM      7  C   UNL     1       1.061   8.321  21.341  0.00  0.00    +0.000 A 
ATOM      8  C   UNL     1       1.623   7.842  20.124  0.00  0.00    +0.000 A 
ATOM      9  C   UNL     1       1.491   8.896  19.213  0.00  0.00    +0.000 A 
ATOM     10  C   UNL     1       1.994   8.982  17.806  0.00  0.00    +0.000 C 
BRANCH   4  11
ATOM     11  C   UNL     1       0.273  11.103  19.123  0.00  0.00    +0.000 C 
BRANCH  11  12
ATOM     12  C   UNL     1      -1.136  10.926  18.563  0.00  0.00    +0.000 C 
BRANCH  12  14
ATOM     13  C   UNL     1      -2.481  12.370  19.821  0.00  0.00    +0.000 C 
ATOM     14  O   UNL     1      -1.845  12.167  18.560  0.00  0.00    +0.000 OA
ENDBRANCH  12  14
ENDBRANCH  11  12
ENDBRANCH   4  11
ENDBRANCH   2   8
ENDBRANCH   1   2
BRANCH   1  15
ATOM     15  O   UNL     1       1.371   4.409  20.606  0.00  0.00    +0.000 OA
BRANCH  15  16
ATOM     16  C   UNL     1       1.763   3.155  20.938  0.00  0.00    +0.000 C 
ATOM     17  O   UNL     1       1.796   2.699  22.074  0.00  0.00    +0.000 OA
BRANCH  16  18
ATOM     18  C   UNL     1       2.070   2.331  19.684  0.00  0.00    +0.000 C 
BRANCH  18  19
ATOM     19  N   UNL     1       2.922   3.053  18.757  0.00  0.00    +0.000 N 
ATOM     20  C   UNL     1       4.283   3.125  18.983  0.00  0.00    +0.000 C 
ATOM     21  O   UNL     1       4.839   2.538  19.907  0.00  0.00    +0.000 OA
ATOM     22  H   UNL     1       2.480   3.697  18.116  0.00  0.00    +0.000 HD
BRANCH  20  23
ATOM     23  C   UNL     1       5.073   3.999  18.073  0.00  0.00    +0.000 A 
ATOM     24  C   UNL     1       4.692   4.061  16.725  0.00  0.00    +0.000 A 
ATOM     25  C   UNL     1       5.415   4.845  15.823  0.00  0.00    +0.000 A 
ATOM     26  C   UNL     1       6.515   5.577  16.267  0.00  0.00    +0.000 A 
ATOM     27  C   UNL     1       6.882   5.542  17.612  0.00  0.00    +0.000 A 
ATOM     28  C   UNL     1       6.162   4.759  18.518  0.00  0.00    +0.000 A 
ENDBRANCH  20  23
ENDBRANCH  18  19
ENDBRANCH  16  18
ENDBRANCH  15  16
ENDBRANCH   1  15
TORSDOF 10
ENDMDL
MODEL 3
REMARK VINA RESULT:      -6.9      1.495      2.192
REMARK  Name = 
REMARK  13 active torsions:
REMARK  status: ('A' for Active; 'I' for Inactive)
REMARK    1  A    between atoms: C_1  and  O_2
REMARK    2  A    between atoms: O_2  and  C_3
REMARK    3  A    between atoms: C_3  and  C_4
REMARK    4  A    between atoms: C_4  and  N_5
REMARK    5  A    between atoms: C_6  and  C_7
REMARK    6  A    between atoms: C_9  and  C_10
REMARK    7  A    between atoms: C_10  and  C_12
REMARK    8  A    between atoms: C_12  and  O_13
REMARK    9  A    between atoms: O_13  and  C_14
REMARK   10  A    between atoms: C_14  and  C_16
REMARK   11  A    between atoms: C_16  and  N_17
REMARK   12  A    between atoms: C_18  and  C_20
REMARK   13  A    between atoms: C_26  and  C_27
REMARK                            x       y       z     vdW  Elec       q    Type
REMARK                         _______ _______ _______ _____ _____    ______ ____
ROOT
ATOM      1  C   UNL     1       1.588   4.832  19.397  0.00  0.00    +0.000 C 
ENDROOT
BRANCH   1   2
ATOM      2  C   UNL     1       2.505   6.003  19.747  0.00  0.00    +0.000 C 
ATOM      3  O   UNL     1       3.725   5.846  19.778  0.00  0.00    +0.000 OA
BRANCH   2   8
ATOM      4  N   UNL     1       1.045   9.386  19.721  0.00  0.00    +0.000 N 
ATOM      5  C   UNL     1       0.796   9.045  21.038  0.00  0.00    +0.000 A 
ATOM      6  C   UNL     1       0.127   9.909  22.053  0.00  0.00    +0.000 C 
ATOM      7  C   UNL     1       1.276   7.764  21.226  0.00  0.00    +0.000 A 
ATOM      8  C   UNL     1       1.885   7.306  20.024  0.00  0.00    +0.000 A 
ATOM      9  C   UNL     1       1.796   8.379  19.129  0.00  0.00    +0.000 A 
ATOM     10  C   UNL     1       2.356   8.489  17.746  0.00  0.00    +0.000 C 
BRANCH   4  11
ATOM     11  C   UNL     1       0.594  10.594  19.034  0.00  0.00    +0.000 C 
BRANCH  11  12
ATOM     12  C   UNL     1       1.550  11.770  19.221  0.00  0.00    +0.000 C 
BRANCH  12  14
ATOM     13  C   UNL     1      -0.400  12.780  18.413  0.00  0.00    +0.000 C 
ATOM     14  O   UNL     1       0.980  12.978  18.714  0.00  0.00    +0.000 OA
ENDBRANCH  12  14
ENDBRANCH  11  12
ENDBRANCH   4  11
ENDBRANCH   2   8
ENDBRANCH   1   2
BRANCH   1  15
ATOM     15  O   UNL     1       2.045   4.212  18.186  0.00  0.00    +0.000 OA
BRANCH  15  16
ATOM     16  C   UNL     1       2.355   2.894  18.234  0.00  0.00    +0.000 C 
ATOM     17  O   UNL     1       1.594   1.998  18.577  0.00  0.00    +0.000 OA
BRANCH  16  18
ATOM     18  C   UNL     1       3.770   2.648  17.703  0.00  0.00    +0.000 C 
BRANCH  18  19
ATOM     19  N   UNL     1       4.680   3.717  18.070  0.00  0.00    +0.000 N 
ATOM     20  C   UNL     1       5.184   4.559  17.097  0.00  0.00    +0.000 C 
ATOM     21  O   UNL     1       4.842   4.500  15.920  0.00  0.00    +0.000 OA
ATOM     22  H   UNL     1       5.126   3.666  18.976  0.00  0.00    +0.000 HD
BRANCH  20  23
ATOM     23  C   UNL     1       6.221   5.539  17.523  0.00  0.00    +0.000 A 
ATOM     24  C   UNL     1       7.145   5.138  18.498  0.00  0.00    +0.000 A 
ATOM     25  C   UNL     1       8.121   6.027  18.952  0.00  0.00    +0.000 A 
ATOM     26  C   UNL     1       8.185   7.316  18.426  0.00  0.00    +0.000 A 
ATOM     27  C   UNL     1       7.287   7.712  17.435  0.00  0.00    +0.000 A 
ATOM     28  C   UNL     1       6.308   6.826  16.978  0.00  0.00    +0.000 A 
ENDBRANCH  20  23
ENDBRANCH  18  19
ENDBRANCH  16  18
ENDBRANCH  15  16
ENDBRANCH   1  15
TORSDOF 10
ENDMDL
MODEL 4
REMARK VINA RESULT:      -6.9      0.534      1.090
REMARK  Name = 
REMARK  13 active torsions:
REMARK  status: ('A' for Active; 'I' for Inactive)
REMARK    1  A    between atoms: C_1  and  O_2
REMARK    2  A    between atoms: O_2  and  C_3
REMARK    3  A    between atoms: C_3  and  C_4
REMARK    4  A    between atoms: C_4  and  N_5
REMARK    5  A    between atoms: C_6  and  C_7
REMARK    6  A    between atoms: C_9  and  C_10
REMARK    7  A    between atoms: C_10  and  C_12
REMARK    8  A    between atoms: C_12  and  O_13
REMARK    9  A    between atoms: O_13  and  C_14
REMARK   10  A    between atoms: C_14  and  C_16
REMARK   11  A    between atoms: C_16  and  N_17
REMARK   12  A    between atoms: C_18  and  C_20
REMARK   13  A    between atoms: C_26  and  C_27
REMARK                            x       y       z     vdW  Elec       q    Type
REMARK                         _______ _______ _______ _____ _____    ______ ____
ROOT
ATOM      1  C   UNL     1       1.623   5.404  20.593  0.00  0.00    +0.000 C 
ENDROOT
BRANCH   1   2
ATOM      2  C   UNL     1       2.229   6.650  19.949  0.00  0.00    +0.000 C 
ATOM      3  O   UNL     1       3.199   6.549  19.198  0.00  0.00    +0.000 OA
BRANCH   2   8
ATOM      4  N   UNL     1       0.745  10.022  19.963  0.00  0.00    +0.000 N 
ATOM      5  C   UNL     1       0.543   9.684  21.289  0.00  0.00    +0.000 A 
ATOM      6  C   UNL     1      -0.098  10.546  22.323  0.00  0.00    +0.000 C 
ATOM      7  C   UNL     1       1.039   8.407  21.464  0.00  0.00    +0.000 A 
ATOM      8  C   UNL     1       1.610   7.949  20.243  0.00  0.00    +0.000 A 
ATOM      9  C   UNL     1       1.482   9.019  19.349  0.00  0.00    +0.000 A 
ATOM     10  C   UNL     1       1.995   9.129  17.947  0.00  0.00    +0.000 C 
BRANCH   4  11
ATOM     11  C   UNL     1       0.263  11.226  19.288  0.00  0.00    +0.000 C 
BRANCH  11  12
ATOM     12  C   UNL     1       1.211  12.411  19.448  0.00  0.00    +0.000 C 
BRANCH  12  14
ATOM     13  C   UNL     1       2.328  14.063  18.223  0.00  0.00    +0.000 C 
ATOM     14  O   UNL     1       1.139  13.280  18.315  0.00  0.00    +0.000 OA
ENDBRANCH  12  14
ENDBRANCH  11  12
ENDBRANCH   4  11
ENDBRANCH   2   8
ENDBRANCH   1   2
BRANCH   1  15
ATOM     15  O   UNL     1       2.676   4.517  21.002  0.00  0.00    +0.000 OA
BRANCH  15  16
ATOM     16  C   UNL     1       2.374   3.202  21.127  0.00  0.00    +0.000 C 
ATOM     17  O   UNL     1       1.833   2.688  22.098  0.00  0.00    +0.000 OA
BRANCH  16  18
ATOM     18  C   UNL     1       2.712   2.442  19.842  0.00  0.00    +0.000 C 
BRANCH  18  19
ATOM     19  N   UNL     1       3.843   3.026  19.147  0.00  0.00    +0.000 N 
ATOM     20  C   UNL     1       3.675   3.560  17.883  0.00  0.00    +0.000 C 
ATOM     21  O   UNL     1       2.583   3.637  17.330  0.00  0.00    +0.000 OA
ATOM     22  H   UNL     1       4.769   2.803  19.483  0.00  0.00    +0.000 HD
BRANCH  20  23
ATOM     23  C   UNL     1       4.904   4.012  17.173  0.00  0.00    +0.000 A 
ATOM     24  C   UNL     1       6.025   4.350  17.945  0.00  0.00    +0.000 A 
ATOM     25  C   UNL     1       7.193   4.804  17.330  0.00  0.00    +0.000 A 
ATOM     26  C   UNL     1       7.250   4.912  15.942  0.00  0.00    +0.000 A 
ATOM     27  C   UNL     1       6.148   4.551  15.166  0.00  0.00    +0.000 A 
ATOM     28  C   UNL     1       4.976   4.096  15.777  0.00  0.00    +0.000 A 
ENDBRANCH  20  23
ENDBRANCH  18  19
ENDBRANCH  16  18
ENDBRANCH  15  16
ENDBRANCH   1  15
TORSDOF 10
ENDMDL
MODEL 5
REMARK VINA RESULT:      -6.8      2.286      3.434
REMARK  Name = 
REMARK  13 active torsions:
REMARK  status: ('A' for Active; 'I' for Inactive)
REMARK    1  A    between atoms: C_1  and  O_2
REMARK    2  A    between atoms: O_2  and  C_3
REMARK    3  A    between atoms: C_3  and  C_4
REMARK    4  A    between atoms: C_4  and  N_5
REMARK    5  A    between atoms: C_6  and  C_7
REMARK    6  A    between atoms: C_9  and  C_10
REMARK    7  A    between atoms: C_10  and  C_12
REMARK    8  A    between atoms: C_12  and  O_13
REMARK    9  A    between atoms: O_13  and  C_14
REMARK   10  A    between atoms: C_14  and  C_16
REMARK   11  A    between atoms: C_16  and  N_17
REMARK   12  A    between atoms: C_18  and  C_20
REMARK   13  A    between atoms: C_26  and  C_27
REMARK                            x       y       z     vdW  Elec       q    Type
REMARK                         _______ _______ _______ _____ _____    ______ ____
ROOT
ATOM      1  C   UNL     1       3.686   4.496  19.492  0.00  0.00    +0.000 C 
ENDROOT
BRANCH   1   2
ATOM      2  C   UNL     1       2.501   5.235  18.871  0.00  0.00    +0.000 C 
ATOM      3  O   UNL     1       1.904   4.749  17.910  0.00  0.00    +0.000 OA
BRANCH   2   8
ATOM      4  N   UNL     1       1.574   8.709  19.672  0.00  0.00    +0.000 N 
ATOM      5  C   UNL     1       1.333   8.124  20.902  0.00  0.00    +0.000 A 
ATOM      6  C   UNL     1       0.848   8.828  22.125  0.00  0.00    +0.000 C 
ATOM      7  C   UNL     1       1.621   6.779  20.778  0.00  0.00    +0.000 A 
ATOM      8  C   UNL     1       2.100   6.518  19.464  0.00  0.00    +0.000 A 
ATOM      9  C   UNL     1       2.136   7.763  18.826  0.00  0.00    +0.000 A 
ATOM     10  C   UNL     1       2.646   8.097  17.459  0.00  0.00    +0.000 C 
BRANCH   4  11
ATOM     11  C   UNL     1       1.283  10.090  19.293  0.00  0.00    +0.000 C 
BRANCH  11  12
ATOM     12  C   UNL     1      -0.170  10.291  18.868  0.00  0.00    +0.000 C 
BRANCH  12  14
ATOM     13  C   UNL     1      -0.299  12.596  19.252  0.00  0.00    +0.000 C 
ATOM     14  O   UNL     1      -0.793  11.317  19.644  0.00  0.00    +0.000 OA
ENDBRANCH  12  14
ENDBRANCH  11  12
ENDBRANCH   4  11
ENDBRANCH   2   8
ENDBRANCH   1   2
BRANCH   1  15
ATOM     15  O   UNL     1       4.746   5.427  19.753  0.00  0.00    +0.000 OA
BRANCH  15  16
ATOM     16  C   UNL     1       5.846   5.363  18.963  0.00  0.00    +0.000 C 
ATOM     17  O   UNL     1       6.812   4.636  19.151  0.00  0.00    +0.000 OA
BRANCH  16  18
ATOM     18  C   UNL     1       5.683   6.258  17.732  0.00  0.00    +0.000 C 
BRANCH  18  19
ATOM     19  N   UNL     1       5.634   5.487  16.504  0.00  0.00    +0.000 N 
ATOM     20  C   UNL     1       6.705   5.509  15.631  0.00  0.00    +0.000 C 
ATOM     21  O   UNL     1       7.753   6.099  15.874  0.00  0.00    +0.000 OA
ATOM     22  H   UNL     1       4.730   5.161  16.188  0.00  0.00    +0.000 HD
BRANCH  20  23
ATOM     23  C   UNL     1       6.528   4.812  14.328  0.00  0.00    +0.000 A 
ATOM     24  C   UNL     1       5.346   4.087  14.123  0.00  0.00    +0.000 A 
ATOM     25  C   UNL     1       5.141   3.394  12.929  0.00  0.00    +0.000 A 
ATOM     26  C   UNL     1       6.113   3.430  11.930  0.00  0.00    +0.000 A 
ATOM     27  C   UNL     1       7.279   4.172  12.115  0.00  0.00    +0.000 A 
ATOM     28  C   UNL     1       7.488   4.867  13.309  0.00  0.00    +0.000 A 
ENDBRANCH  20  23
ENDBRANCH  18  19
ENDBRANCH  16  18
ENDBRANCH  15  16
ENDBRANCH   1  15
TORSDOF 10
ENDMDL
MODEL 6
REMARK VINA RESULT:      -6.8      3.275      5.703
REMARK  Name = 
REMARK  13 active torsions:
REMARK  status: ('A' for Active; 'I' for Inactive)
REMARK    1  A    between atoms: C_1  and  O_2
REMARK    2  A    between atoms: O_2  and  C_3
REMARK    3  A    between atoms: C_3  and  C_4
REMARK    4  A    between atoms: C_4  and  N_5
REMARK    5  A    between atoms: C_6  and  C_7
REMARK    6  A    between atoms: C_9  and  C_10
REMARK    7  A    between atoms: C_10  and  C_12
REMARK    8  A    between atoms: C_12  and  O_13
REMARK    9  A    between atoms: O_13  and  C_14
REMARK   10  A    between atoms: C_14  and  C_16
REMARK   11  A    between atoms: C_16  and  N_17
REMARK   12  A    between atoms: C_18  and  C_20
REMARK   13  A    between atoms: C_26  and  C_27
REMARK                            x       y       z     vdW  Elec       q    Type
REMARK                         _______ _______ _______ _____ _____    ______ ____
ROOT
ATOM      1  C   UNL     1      -0.954  10.926  23.078  0.00  0.00    +0.000 C 
ENDROOT
BRANCH   1   2
ATOM      2  C   UNL     1      -1.170  12.244  22.336  0.00  0.00    +0.000 C 
ATOM      3  O   UNL     1      -0.622  13.273  22.730  0.00  0.00    +0.000 OA
BRANCH   2   8
ATOM      4  N   UNL     1      -2.742  11.908  19.020  0.00  0.00    +0.000 N 
ATOM      5  C   UNL     1      -3.829  12.375  19.737  0.00  0.00    +0.000 A 
ATOM      6  C   UNL     1      -5.191  12.635  19.188  0.00  0.00    +0.000 C 
ATOM      7  C   UNL     1      -3.414  12.546  21.043  0.00  0.00    +0.000 A 
ATOM      8  C   UNL     1      -2.030  12.232  21.144  0.00  0.00    +0.000 A 
ATOM      9  C   UNL     1      -1.624  11.917  19.842  0.00  0.00    +0.000 A 
ATOM     10  C   UNL     1      -0.247  11.602  19.345  0.00  0.00    +0.000 C 
BRANCH   4  11
ATOM     11  C   UNL     1      -2.743  11.460  17.629  0.00  0.00    +0.000 C 
BRANCH  11  12
ATOM     12  C   UNL     1      -2.978   9.958  17.495  0.00  0.00    +0.000 C 
BRANCH  12  14
ATOM     13  C   UNL     1      -2.962  10.724  15.283  0.00  0.00    +0.000 C 
ATOM     14  O   UNL     1      -3.151   9.588  16.125  0.00  0.00    +0.000 OA
ENDBRANCH  12  14
ENDBRANCH  11  12
ENDBRANCH   4  11
ENDBRANCH   2   8
ENDBRANCH   1   2
BRANCH   1  15
ATOM     15  O   UNL     1       0.257  10.310  22.616  0.00  0.00    +0.000 OA
BRANCH  15  16
ATOM     16  C   UNL     1       0.167   9.065  22.089  0.00  0.00    +0.000 C 
ATOM     17  O   UNL     1      -0.864   8.411  21.989  0.00  0.00    +0.000 OA
BRANCH  16  18
ATOM     18  C   UNL     1       1.519   8.609  21.536  0.00  0.00    +0.000 C 
BRANCH  18  19
ATOM     19  N   UNL     1       1.519   7.198  21.199  0.00  0.00    +0.000 N 
ATOM     20  C   UNL     1       1.966   6.785  19.958  0.00  0.00    +0.000 C 
ATOM     21  O   UNL     1       2.444   7.554  19.129  0.00  0.00    +0.000 OA
ATOM     22  H   UNL     1       0.959   6.577  21.767  0.00  0.00    +0.000 HD
BRANCH  20  23
ATOM     23  C   UNL     1       1.804   5.342  19.628  0.00  0.00    +0.000 A 
ATOM     24  C   UNL     1       2.170   4.915  18.343  0.00  0.00    +0.000 A 
ATOM     25  C   UNL     1       2.013   3.578  17.974  0.00  0.00    +0.000 A 
ATOM     26  C   UNL     1       1.502   2.660  18.889  0.00  0.00    +0.000 A 
ATOM     27  C   UNL     1       1.163   3.072  20.178  0.00  0.00    +0.000 A 
ATOM     28  C   UNL     1       1.317   4.409  20.552  0.00  0.00    +0.000 A 
ENDBRANCH  20  23
ENDBRANCH  18  19
ENDBRANCH  16  18
ENDBRANCH  15  16
ENDBRANCH   1  15
TORSDOF 10
ENDMDL
MODEL 7
REMARK VINA RESULT:      -6.7      2.254      4.732
REMARK  Name = 
REMARK  13 active torsions:
REMARK  status: ('A' for Active; 'I' for Inactive)
REMARK    1  A    between atoms: C_1  and  O_2
REMARK    2  A    between atoms: O_2  and  C_3
REMARK    3  A    between atoms: C_3  and  C_4
REMARK    4  A    between atoms: C_4  and  N_5
REMARK    5  A    between atoms: C_6  and  C_7
REMARK    6  A    between atoms: C_9  and  C_10
REMARK    7  A    between atoms: C_10  and  C_12
REMARK    8  A    between atoms: C_12  and  O_13
REMARK    9  A    between atoms: O_13  and  C_14
REMARK   10  A    between atoms: C_14  and  C_16
REMARK   11  A    between atoms: C_16  and  N_17
REMARK   12  A    between atoms: C_18  and  C_20
REMARK   13  A    between atoms: C_26  and  C_27
REMARK                            x       y       z     vdW  Elec       q    Type
REMARK                         _______ _______ _______ _____ _____    ______ ____
ROOT
ATOM      1  C   UNL     1       4.861   7.482  17.580  0.00  0.00    +0.000 C 
ENDROOT
BRANCH   1   2
ATOM      2  C   UNL     1       3.407   7.048  17.755  0.00  0.00    +0.000 C 
ATOM      3  O   UNL     1       3.045   5.932  17.384  0.00  0.00    +0.000 OA
BRANCH   2   8
ATOM      4  N   UNL     1       1.083   8.940  19.899  0.00  0.00    +0.000 N 
ATOM      5  C   UNL     1       1.211   9.842  18.858  0.00  0.00    +0.000 A 
ATOM      6  C   UNL     1       0.529  11.165  18.758  0.00  0.00    +0.000 C 
ATOM      7  C   UNL     1       2.084   9.288  17.943  0.00  0.00    +0.000 A 
ATOM      8  C   UNL     1       2.476   7.993  18.387  0.00  0.00    +0.000 A 
ATOM      9  C   UNL     1       1.765   7.776  19.573  0.00  0.00    +0.000 A 
ATOM     10  C   UNL     1       1.718   6.543  20.420  0.00  0.00    +0.000 C 
BRANCH   4  11
ATOM     11  C   UNL     1       0.366   9.156  21.154  0.00  0.00    +0.000 C 
BRANCH  11  12
ATOM     12  C   UNL     1       1.299   9.494  22.315  0.00  0.00    +0.000 C 
BRANCH  12  14
ATOM     13  C   UNL     1      -0.749  10.136  23.249  0.00  0.00    +0.000 C 
ATOM     14  O   UNL     1       0.564   9.656  23.530  0.00  0.00    +0.000 OA
ENDBRANCH  12  14
ENDBRANCH  11  12
ENDBRANCH   4  11
ENDBRANCH   2   8
ENDBRANCH   1   2
BRANCH   1  15
ATOM     15  O   UNL     1       5.609   6.414  16.979  0.00  0.00    +0.000 OA
BRANCH  15  16
ATOM     16  C   UNL     1       6.645   5.899  17.686  0.00  0.00    +0.000 C 
ATOM     17  O   UNL     1       7.655   6.509  18.011  0.00  0.00    +0.000 OA
BRANCH  16  18
ATOM     18  C   UNL     1       6.345   4.462  18.119  0.00  0.00    +0.000 C 
BRANCH  18  19
ATOM     19  N   UNL     1       4.946   4.277  18.456  0.00  0.00    +0.000 N 
ATOM     20  C   UNL     1       4.583   3.350  19.415  0.00  0.00    +0.000 C 
ATOM     21  O   UNL     1       5.401   2.709  20.068  0.00  0.00    +0.000 OA
ATOM     22  H   UNL     1       4.255   4.635  17.811  0.00  0.00    +0.000 HD
BRANCH  20  23
ATOM     23  C   UNL     1       3.126   3.112  19.606  0.00  0.00    +0.000 A 
ATOM     24  C   UNL     1       2.628   3.094  20.917  0.00  0.00    +0.000 A 
ATOM     25  C   UNL     1       1.275   2.849  21.154  0.00  0.00    +0.000 A 
ATOM     26  C   UNL     1       0.411   2.631  20.082  0.00  0.00    +0.000 A 
ATOM     27  C   UNL     1       0.894   2.676  18.774  0.00  0.00    +0.000 A 
ATOM     28  C   UNL     1       2.248   2.920  18.532  0.00  0.00    +0.000 A 
ENDBRANCH  20  23
ENDBRANCH  18  19
ENDBRANCH  16  18
ENDBRANCH  15  16
ENDBRANCH   1  15
TORSDOF 10
ENDMDL
MODEL 8
REMARK VINA RESULT:      -6.7      1.565      1.992
REMARK  Name = 
REMARK  13 active torsions:
REMARK  status: ('A' for Active; 'I' for Inactive)
REMARK    1  A    between atoms: C_1  and  O_2
REMARK    2  A    between atoms: O_2  and  C_3
REMARK    3  A    between atoms: C_3  and  C_4
REMARK    4  A    between atoms: C_4  and  N_5
REMARK    5  A    between atoms: C_6  and  C_7
REMARK    6  A    between atoms: C_9  and  C_10
REMARK    7  A    between atoms: C_10  and  C_12
REMARK    8  A    between atoms: C_12  and  O_13
REMARK    9  A    between atoms: O_13  and  C_14
REMARK   10  A    between atoms: C_14  and  C_16
REMARK   11  A    between atoms: C_16  and  N_17
REMARK   12  A    between atoms: C_18  and  C_20
REMARK   13  A    between atoms: C_26  and  C_27
REMARK                            x       y       z     vdW  Elec       q    Type
REMARK                         _______ _______ _______ _____ _____    ______ ____
ROOT
ATOM      1  C   UNL     1       1.653   5.873  20.840  0.00  0.00    +0.000 C 
ENDROOT
BRANCH   1   2
ATOM      2  C   UNL     1       2.013   7.119  20.031  0.00  0.00    +0.000 C 
ATOM      3  O   UNL     1       2.858   7.054  19.139  0.00  0.00    +0.000 OA
BRANCH   2   8
ATOM      4  N   UNL     1       0.314  10.388  20.094  0.00  0.00    +0.000 N 
ATOM      5  C   UNL     1       0.138  10.019  21.415  0.00  0.00    +0.000 A 
ATOM      6  C   UNL     1      -0.554  10.824  22.463  0.00  0.00    +0.000 C 
ATOM      7  C   UNL     1       0.716   8.775  21.573  0.00  0.00    +0.000 A 
ATOM      8  C   UNL     1       1.312   8.371  20.344  0.00  0.00    +0.000 A 
ATOM      9  C   UNL     1       1.112   9.442  19.465  0.00  0.00    +0.000 A 
ATOM     10  C   UNL     1       1.613   9.604  18.064  0.00  0.00    +0.000 C 
BRANCH   4  11
ATOM     11  C   UNL     1      -0.247  11.566  19.436  0.00  0.00    +0.000 C 
BRANCH  11  12
ATOM     12  C   UNL     1      -1.676  11.343  18.946  0.00  0.00    +0.000 C 
BRANCH  12  14
ATOM     13  C   UNL     1      -2.013  10.015  17.048  0.00  0.00    +0.000 C 
ATOM     14  O   UNL     1      -1.848  10.008  18.465  0.00  0.00    +0.000 OA
ENDBRANCH  12  14
ENDBRANCH  11  12
ENDBRANCH   4  11
ENDBRANCH   2   8
ENDBRANCH   1   2
BRANCH   1  15
ATOM     15  O   UNL     1       1.639   4.729  19.974  0.00  0.00    +0.000 OA
BRANCH  15  16
ATOM     16  C   UNL     1       1.920   3.522  20.524  0.00  0.00    +0.000 C 
ATOM     17  O   UNL     1       1.104   2.772  21.045  0.00  0.00    +0.000 OA
BRANCH  16  18
ATOM     18  C   UNL     1       3.394   3.163  20.322  0.00  0.00    +0.000 C 
BRANCH  18  19
ATOM     19  N   UNL     1       3.836   3.427  18.965  0.00  0.00    +0.000 N 
ATOM     20  C   UNL     1       4.828   4.360  18.731  0.00  0.00    +0.000 C 
ATOM     21  O   UNL     1       5.425   4.942  19.632  0.00  0.00    +0.000 OA
ATOM     22  H   UNL     1       3.241   3.120  18.208  0.00  0.00    +0.000 HD
BRANCH  20  23
ATOM     23  C   UNL     1       5.130   4.682  17.309  0.00  0.00    +0.000 A 
ATOM     24  C   UNL     1       5.548   3.638  16.471  0.00  0.00    +0.000 A 
ATOM     25  C   UNL     1       5.869   3.891  15.136  0.00  0.00    +0.000 A 
ATOM     26  C   UNL     1       5.762   5.185  14.630  0.00  0.00    +0.000 A 
ATOM     27  C   UNL     1       5.319   6.223  15.450  0.00  0.00    +0.000 A 
ATOM     28  C   UNL     1       4.998   5.975  16.787  0.00  0.00    +0.000 A 
ENDBRANCH  20  23
ENDBRANCH  18  19
ENDBRANCH  16  18
ENDBRANCH  15  16
ENDBRANCH   1  15
TORSDOF 10
ENDMDL
MODEL 9
REMARK VINA RESULT:      -6.6      5.592      7.142
REMARK  Name = 
REMARK  13 active torsions:
REMARK  status: ('A' for Active; 'I' for Inactive)
REMARK    1  A    between atoms: C_1  and  O_2
REMARK    2  A    between atoms: O_2  and  C_3
REMARK    3  A    between atoms: C_3  and  C_4
REMARK    4  A    between atoms: C_4  and  N_5
REMARK    5  A    between atoms: C_6  and  C_7
REMARK    6  A    between atoms: C_9  and  C_10
REMARK    7  A    between atoms: C_10  and  C_12
REMARK    8  A    between atoms: C_12  and  O_13
REMARK    9  A    between atoms: O_13  and  C_14
REMARK   10  A    between atoms: C_14  and  C_16
REMARK   11  A    between atoms: C_16  and  N_17
REMARK   12  A    between atoms: C_18  and  C_20
REMARK   13  A    between atoms: C_26  and  C_27
REMARK                            x       y       z     vdW  Elec       q    Type
REMARK                         _______ _______ _______ _____ _____    ______ ____
ROOT
ATOM      1  C   UNL     1       8.614   8.039  18.755  0.00  0.00    +0.000 C 
ENDROOT
BRANCH   1   2
ATOM      2  C   UNL     1       8.259   9.380  18.114  0.00  0.00    +0.000 C 
ATOM      3  O   UNL     1       7.284   9.471  17.369  0.00  0.00    +0.000 OA
BRANCH   2   8
ATOM      4  N   UNL     1       9.824  12.678  18.611  0.00  0.00    +0.000 N 
ATOM      5  C   UNL     1      10.764  11.887  19.247  0.00  0.00    +0.000 A 
ATOM      6  C   UNL     1      12.018  12.368  19.896  0.00  0.00    +0.000 C 
ATOM      7  C   UNL     1      10.319  10.582  19.169  0.00  0.00    +0.000 A 
ATOM      8  C   UNL     1       9.104  10.540  18.428  0.00  0.00    +0.000 A 
ATOM      9  C   UNL     1       8.870  11.859  18.024  0.00  0.00    +0.000 A 
ATOM     10  C   UNL     1       7.782  12.385  17.140  0.00  0.00    +0.000 C 
BRANCH   4  11
ATOM     11  C   UNL     1       9.807  14.139  18.561  0.00  0.00    +0.000 C 
BRANCH  11  12
ATOM     12  C   UNL     1       8.973  14.757  19.681  0.00  0.00    +0.000 C 
BRANCH  12  14
ATOM     13  C   UNL     1       8.072  16.673  18.684  0.00  0.00    +0.000 C 
ATOM     14  O   UNL     1       7.786  15.360  19.161  0.00  0.00    +0.000 OA
ENDBRANCH  12  14
ENDBRANCH  11  12
ENDBRANCH   4  11
ENDBRANCH   2   8
ENDBRANCH   1   2
BRANCH   1  15
ATOM     15  O   UNL     1       7.888   6.989  18.100  0.00  0.00    +0.000 OA
BRANCH  15  16
ATOM     16  C   UNL     1       7.713   5.829  18.778  0.00  0.00    +0.000 C 
ATOM     17  O   UNL     1       7.682   5.718  19.997  0.00  0.00    +0.000 OA
BRANCH  16  18
ATOM     18  C   UNL     1       7.457   4.668  17.814  0.00  0.00    +0.000 C 
BRANCH  18  19
ATOM     19  N   UNL     1       6.189   4.013  18.076  0.00  0.00    +0.000 N 
ATOM     20  C   UNL     1       5.080   4.327  17.314  0.00  0.00    +0.000 C 
ATOM     21  O   UNL     1       5.122   5.092  16.355  0.00  0.00    +0.000 OA
ATOM     22  H   UNL     1       6.077   3.542  18.963  0.00  0.00    +0.000 HD
BRANCH  20  23
ATOM     23  C   UNL     1       3.783   3.725  17.731  0.00  0.00    +0.000 A 
ATOM     24  C   UNL     1       2.632   4.522  17.652  0.00  0.00    +0.000 A 
ATOM     25  C   UNL     1       1.395   4.016  18.056  0.00  0.00    +0.000 A 
ATOM     26  C   UNL     1       1.301   2.709  18.528  0.00  0.00    +0.000 A 
ATOM     27  C   UNL     1       2.437   1.900  18.582  0.00  0.00    +0.000 A 
ATOM     28  C   UNL     1       3.677   2.403  18.180  0.00  0.00    +0.000 A 
ENDBRANCH  20  23
ENDBRANCH  18  19
ENDBRANCH  16  18
ENDBRANCH  15  16
ENDBRANCH   1  15
TORSDOF 10
ENDMDL
