MODEL 1
REMARK VINA RESULT:      -8.3      0.000      0.000
REMARK  Name = 
REMARK  4 active torsions:
REMARK  status: ('A' for Active; 'I' for Inactive)
REMARK    1  A    between atoms: C_2  and  O_3
REMARK    2  A    between atoms: C_2  and  C_16
REMARK    3  A    between atoms: O_3  and  C_4
REMARK    4  A    between atoms: C_4  and  N_5
REMARK                            x       y       z     vdW  Elec       q    Type
REMARK                         _______ _______ _______ _____ _____    ______ ____
ROOT
ATOM      1  N   UNL     1       3.972   3.693  17.254  0.00  0.00    +0.000 N 
ATOM      2  N   UNL     1       2.689   3.725  16.785  0.00  0.00    +0.000 NA
ATOM      3  N   UNL     1       1.710   3.606  17.552  0.00  0.00    +0.000 NA
ATOM      4  C   UNL     1       1.921   3.337  18.908  0.00  0.00    +0.000 A 
ATOM      5  C   UNL     1       0.820   3.040  19.719  0.00  0.00    +0.000 A 
ATOM      6  C   UNL     1       0.988   2.742  21.075  0.00  0.00    +0.000 A 
ATOM      7  C   UNL     1       2.264   2.756  21.639  0.00  0.00    +0.000 A 
ATOM      8  C   UNL     1       3.367   3.064  20.846  0.00  0.00    +0.000 A 
ATOM      9  C   UNL     1       3.179   3.344  19.487  0.00  0.00    +0.000 A 
ATOM     10  C   UNL     1       4.303   3.602  18.589  0.00  0.00    +0.000 A 
ATOM     11  O   UNL     1       5.440   3.695  19.042  0.00  0.00    +0.000 OA
ENDROOT
BRANCH   1  12
ATOM     12  C   UNL     1       5.014   3.806  16.251  0.00  0.00    +0.000 C 
BRANCH  12  13
ATOM     13  O   UNL     1       5.340   5.189  16.090  0.00  0.00    +0.000 OA
BRANCH  13  15
ATOM     14  O   UNL     1       7.246   5.117  14.822  0.00  0.00    +0.000 OA
ATOM     15  C   UNL     1       6.646   5.455  15.836  0.00  0.00    +0.000 C 
BRANCH  15  16
ATOM     16  C   UNL     1       7.234   6.217  16.915  0.00  0.00    +0.000 A 
ATOM     17  C   UNL     1       7.639   5.810  18.175  0.00  0.00    +0.000 A 
ATOM     18  C   UNL     1       8.156   6.952  18.830  0.00  0.00    +0.000 A 
ATOM     19  C   UNL     1       8.034   7.993  17.936  0.00  0.00    +0.000 A 
ATOM     20 BR   UNL     1       8.553   9.753  18.270  0.00  0.00    +0.000 Br
ATOM     21  O   UNL     1       7.480   7.558  16.773  0.00  0.00    +0.000 OA
ENDBRANCH  15  16
ENDBRANCH  13  15
ENDBRANCH  12  13
ENDBRANCH   1  12
TORSDOF 4
ENDMDL
MODEL 2
REMARK VINA RESULT:      -8.2      3.047      4.110
REMARK  Name = 
REMARK  4 active torsions:
REMARK  status: ('A' for Active; 'I' for Inactive)
REMARK    1  A    between atoms: C_2  and  O_3
REMARK    2  A    between atoms: C_2  and  C_16
REMARK    3  A    between atoms: O_3  and  C_4
REMARK    4  A    between atoms: C_4  and  N_5
REMARK                            x       y       z     vdW  Elec       q    Type
REMARK                         _______ _______ _______ _____ _____    ______ ____
ROOT
ATOM      1  N   UNL     1       5.026   4.954  18.419  0.00  0.00    +0.000 N 
ATOM      2  N   UNL     1       5.631   3.894  19.032  0.00  0.00    +0.000 NA
ATOM      3  N   UNL     1       4.984   3.090  19.737  0.00  0.00    +0.000 NA
ATOM      4  C   UNL     1       3.630   3.325  19.990  0.00  0.00    +0.000 A 
ATOM      5  C   UNL     1       2.962   2.514  20.914  0.00  0.00    +0.000 A 
ATOM      6  C   UNL     1       1.613   2.729  21.213  0.00  0.00    +0.000 A 
ATOM      7  C   UNL     1       0.911   3.752  20.575  0.00  0.00    +0.000 A 
ATOM      8  C   UNL     1       1.561   4.558  19.643  0.00  0.00    +0.000 A 
ATOM      9  C   UNL     1       2.915   4.336  19.369  0.00  0.00    +0.000 A 
ATOM     10  C   UNL     1       3.669   5.194  18.457  0.00  0.00    +0.000 A 
ATOM     11  O   UNL     1       3.089   6.065  17.815  0.00  0.00    +0.000 OA
ENDROOT
BRANCH   1  12
ATOM     12  C   UNL     1       5.900   5.829  17.662  0.00  0.00    +0.000 C 
BRANCH  12  13
ATOM     13  O   UNL     1       5.828   5.457  16.282  0.00  0.00    +0.000 OA
BRANCH  13  15
ATOM     14  O   UNL     1       7.902   4.501  16.454  0.00  0.00    +0.000 OA
ATOM     15  C   UNL     1       6.921   4.820  15.792  0.00  0.00    +0.000 C 
BRANCH  15  16
ATOM     16  C   UNL     1       6.762   4.539  14.382  0.00  0.00    +0.000 A 
ATOM     17  C   UNL     1       7.618   4.790  13.324  0.00  0.00    +0.000 A 
ATOM     18  C   UNL     1       6.981   4.306  12.157  0.00  0.00    +0.000 A 
ATOM     19  C   UNL     1       5.771   3.792  12.568  0.00  0.00    +0.000 A 
ATOM     20 BR   UNL     1       4.501   3.021  11.440  0.00  0.00    +0.000 Br
ATOM     21  O   UNL     1       5.630   3.925  13.913  0.00  0.00    +0.000 OA
ENDBRANCH  15  16
ENDBRANCH  13  15
ENDBRANCH  12  13
ENDBRANCH   1  12
TORSDOF 4
ENDMDL
MODEL 3
REMARK VINA RESULT:      -8.1      2.641      3.628
REMARK  Name = 
REMARK  4 active torsions:
REMARK  status: ('A' for Active; 'I' for Inactive)
REMARK    1  A    between atoms: C_2  and  O_3
REMARK    2  A    between atoms: C_2  and  C_16
REMARK    3  A    between atoms: O_3  and  C_4
REMARK    4  A    between atoms: C_4  and  N_5
REMARK                            x       y       z     vdW  Elec       q    Type
REMARK                         _______ _______ _______ _____ _____    ______ ____
ROOT
ATOM      1  N   UNL     1       5.501   4.847  19.375  0.00  0.00    +0.000 N 
ATOM      2  N   UNL     1       5.692   3.502  19.522  0.00  0.00    +0.000 NA
ATOM      3  N   UNL     1       4.733   2.724  19.715  0.00  0.00    +0.000 NA
ATOM      4  C   UNL     1       3.444   3.240  19.881  0.00  0.00    +0.000 A 
ATOM      5  C   UNL     1       2.412   2.375  20.263  0.00  0.00    +0.000 A 
ATOM      6  C   UNL     1       1.114   2.854  20.462  0.00  0.00    +0.000 A 
ATOM      7  C   UNL     1       0.830   4.205  20.265  0.00  0.00    +0.000 A 
ATOM      8  C   UNL     1       1.846   5.074  19.872  0.00  0.00    +0.000 A 
ATOM      9  C   UNL     1       3.142   4.578  19.692  0.00  0.00    +0.000 A 
ATOM     10  C   UNL     1       4.263   5.452  19.353  0.00  0.00    +0.000 A 
ATOM     11  O   UNL     1       4.062   6.637  19.100  0.00  0.00    +0.000 OA
ENDROOT
BRANCH   1  12
ATOM     12  C   UNL     1       6.703   5.639  19.195  0.00  0.00    +0.000 C 
BRANCH  12  13
ATOM     13  O   UNL     1       7.350   5.212  17.993  0.00  0.00    +0.000 OA
BRANCH  13  15
ATOM     14  O   UNL     1       7.503   7.221  16.903  0.00  0.00    +0.000 OA
ATOM     15  C   UNL     1       7.196   6.034  16.924  0.00  0.00    +0.000 C 
BRANCH  15  16
ATOM     16  C   UNL     1       6.644   5.314  15.798  0.00  0.00    +0.000 A 
ATOM     17  C   UNL     1       5.401   4.725  15.642  0.00  0.00    +0.000 A 
ATOM     18  C   UNL     1       5.372   4.163  14.344  0.00  0.00    +0.000 A 
ATOM     19  C   UNL     1       6.600   4.437  13.783  0.00  0.00    +0.000 A 
ATOM     20 BR   UNL     1       7.127   3.922  12.070  0.00  0.00    +0.000 Br
ATOM     21  O   UNL     1       7.375   5.136  14.654  0.00  0.00    +0.000 OA
ENDBRANCH  15  16
ENDBRANCH  13  15
ENDBRANCH  12  13
ENDBRANCH   1  12
TORSDOF 4
ENDMDL
MODEL 4
REMARK VINA RESULT:      -8.1      2.710      3.635
REMARK  Name = 
REMARK  4 active torsions:
REMARK  status: ('A' for Active; 'I' for Inactive)
REMARK    1  A    between atoms: C_2  and  O_3
REMARK    2  A    between atoms: C_2  and  C_16
REMARK    3  A    between atoms: O_3  and  C_4
REMARK    4  A    between atoms: C_4  and  N_5
REMARK                            x       y       z     vdW  Elec       q    Type
REMARK                         _______ _______ _______ _____ _____    ______ ____
ROOT
ATOM      1  N   UNL     1       5.282   4.751  19.075  0.00  0.00    +0.000 N 
ATOM      2  N   UNL     1       5.485   3.500  19.586  0.00  0.00    +0.000 NA
ATOM      3  N   UNL     1       4.589   2.630  19.557  0.00  0.00    +0.000 NA
ATOM      4  C   UNL     1       3.317   2.960  19.082  0.00  0.00    +0.000 A 
ATOM      5  C   UNL     1       2.281   2.027  19.212  0.00  0.00    +0.000 A 
ATOM      6  C   UNL     1       0.988   2.326  18.771  0.00  0.00    +0.000 A 
ATOM      7  C   UNL     1       0.721   3.560  18.178  0.00  0.00    +0.000 A 
ATOM      8  C   UNL     1       1.746   4.492  18.030  0.00  0.00    +0.000 A 
ATOM      9  C   UNL     1       3.030   4.180  18.491  0.00  0.00    +0.000 A 
ATOM     10  C   UNL     1       4.128   5.143  18.431  0.00  0.00    +0.000 A 
ATOM     11  O   UNL     1       3.970   6.217  17.858  0.00  0.00    +0.000 OA
ENDROOT
BRANCH   1  12
ATOM     12  C   UNL     1       6.392   5.675  19.207  0.00  0.00    +0.000 C 
BRANCH  12  13
ATOM     13  O   UNL     1       6.953   5.897  17.910  0.00  0.00    +0.000 OA
BRANCH  13  15
ATOM     14  O   UNL     1       8.389   4.113  17.870  0.00  0.00    +0.000 OA
ATOM     15  C   UNL     1       7.540   4.816  17.336  0.00  0.00    +0.000 C 
BRANCH  15  16
ATOM     16  C   UNL     1       7.007   4.587  16.011  0.00  0.00    +0.000 A 
ATOM     17  C   UNL     1       5.832   3.970  15.619  0.00  0.00    +0.000 A 
ATOM     18  C   UNL     1       5.791   4.023  14.206  0.00  0.00    +0.000 A 
ATOM     19  C   UNL     1       6.945   4.665  13.814  0.00  0.00    +0.000 A 
ATOM     20 BR   UNL     1       7.426   5.009  12.046  0.00  0.00    +0.000 Br
ATOM     21  O   UNL     1       7.686   5.013  14.900  0.00  0.00    +0.000 OA
ENDBRANCH  15  16
ENDBRANCH  13  15
ENDBRANCH  12  13
ENDBRANCH   1  12
TORSDOF 4
ENDMDL
MODEL 5
REMARK VINA RESULT:      -8.1      1.275      1.520
REMARK  Name = 
REMARK  4 active torsions:
REMARK  status: ('A' for Active; 'I' for Inactive)
REMARK    1  A    between atoms: C_2  and  O_3
REMARK    2  A    between atoms: C_2  and  C_16
REMARK    3  A    between atoms: O_3  and  C_4
REMARK    4  A    between atoms: C_4  and  N_5
REMARK                            x       y       z     vdW  Elec       q    Type
REMARK                         _______ _______ _______ _____ _____    ______ ____
ROOT
ATOM      1  N   UNL     1       4.071   3.716  17.099  0.00  0.00    +0.000 N 
ATOM      2  N   UNL     1       3.974   2.395  17.436  0.00  0.00    +0.000 NA
ATOM      3  N   UNL     1       3.422   2.030  18.496  0.00  0.00    +0.000 NA
ATOM      4  C   UNL     1       2.976   2.989  19.410  0.00  0.00    +0.000 A 
ATOM      5  C   UNL     1       2.515   2.568  20.663  0.00  0.00    +0.000 A 
ATOM      6  C   UNL     1       2.082   3.495  21.616  0.00  0.00    +0.000 A 
ATOM      7  C   UNL     1       2.090   4.858  21.317  0.00  0.00    +0.000 A 
ATOM      8  C   UNL     1       2.533   5.289  20.069  0.00  0.00    +0.000 A 
ATOM      9  C   UNL     1       2.977   4.346  19.134  0.00  0.00    +0.000 A 
ATOM     10  C   UNL     1       3.522   4.742  17.838  0.00  0.00    +0.000 A 
ATOM     11  O   UNL     1       3.490   5.920  17.493  0.00  0.00    +0.000 OA
ENDROOT
BRANCH   1  12
ATOM     12  C   UNL     1       4.768   4.001  15.860  0.00  0.00    +0.000 C 
BRANCH  12  13
ATOM     13  O   UNL     1       6.170   3.812  16.075  0.00  0.00    +0.000 OA
BRANCH  13  15
ATOM     14  O   UNL     1       7.315   5.067  14.539  0.00  0.00    +0.000 OA
ATOM     15  C   UNL     1       6.964   4.843  15.692  0.00  0.00    +0.000 C 
BRANCH  15  16
ATOM     16  C   UNL     1       7.322   5.665  16.827  0.00  0.00    +0.000 A 
ATOM     17  C   UNL     1       7.434   5.332  18.166  0.00  0.00    +0.000 A 
ATOM     18  C   UNL     1       7.824   6.507  18.850  0.00  0.00    +0.000 A 
ATOM     19  C   UNL     1       7.922   7.492  17.892  0.00  0.00    +0.000 A 
ATOM     20 BR   UNL     1       8.398   9.264  18.229  0.00  0.00    +0.000 Br
ATOM     21  O   UNL     1       7.624   6.991  16.664  0.00  0.00    +0.000 OA
ENDBRANCH  15  16
ENDBRANCH  13  15
ENDBRANCH  12  13
ENDBRANCH   1  12
TORSDOF 4
ENDMDL
MODEL 6
REMARK VINA RESULT:      -8.0      3.071      3.933
REMARK  Name = 
REMARK  4 active torsions:
REMARK  status: ('A' for Active; 'I' for Inactive)
REMARK    1  A    between atoms: C_2  and  O_3
REMARK    2  A    between atoms: C_2  and  C_16
REMARK    3  A    between atoms: O_3  and  C_4
REMARK    4  A    between atoms: C_4  and  N_5
REMARK                            x       y       z     vdW  Elec       q    Type
REMARK                         _______ _______ _______ _____ _____    ______ ____
ROOT
ATOM      1  N   UNL     1       4.651   5.855  18.215  0.00  0.00    +0.000 N 
ATOM      2  N   UNL     1       3.522   6.626  18.207  0.00  0.00    +0.000 NA
ATOM      3  N   UNL     1       2.509   6.307  18.865  0.00  0.00    +0.000 NA
ATOM      4  C   UNL     1       2.483   5.090  19.552  0.00  0.00    +0.000 A 
ATOM      5  C   UNL     1       1.286   4.670  20.143  0.00  0.00    +0.000 A 
ATOM      6  C   UNL     1       1.211   3.449  20.820  0.00  0.00    +0.000 A 
ATOM      7  C   UNL     1       2.342   2.639  20.926  0.00  0.00    +0.000 A 
ATOM      8  C   UNL     1       3.543   3.052  20.354  0.00  0.00    +0.000 A 
ATOM      9  C   UNL     1       3.595   4.271  19.668  0.00  0.00    +0.000 A 
ATOM     10  C   UNL     1       4.805   4.722  18.985  0.00  0.00    +0.000 A 
ATOM     11  O   UNL     1       5.848   4.086  19.103  0.00  0.00    +0.000 OA
ENDROOT
BRANCH   1  12
ATOM     12  C   UNL     1       5.739   6.321  17.378  0.00  0.00    +0.000 C 
BRANCH  12  13
ATOM     13  O   UNL     1       5.646   5.667  16.109  0.00  0.00    +0.000 OA
BRANCH  13  15
ATOM     14  O   UNL     1       7.704   4.719  16.444  0.00  0.00    +0.000 OA
ATOM     15  C   UNL     1       6.758   4.995  15.716  0.00  0.00    +0.000 C 
BRANCH  15  16
ATOM     16  C   UNL     1       6.666   4.622  14.322  0.00  0.00    +0.000 A 
ATOM     17  C   UNL     1       7.592   4.758  13.302  0.00  0.00    +0.000 A 
ATOM     18  C   UNL     1       7.000   4.221  12.135  0.00  0.00    +0.000 A 
ATOM     19  C   UNL     1       5.745   3.792  12.506  0.00  0.00    +0.000 A 
ATOM     20 BR   UNL     1       4.505   3.001  11.360  0.00  0.00    +0.000 Br
ATOM     21  O   UNL     1       5.535   4.028  13.829  0.00  0.00    +0.000 OA
ENDBRANCH  15  16
ENDBRANCH  13  15
ENDBRANCH  12  13
ENDBRANCH   1  12
TORSDOF 4
ENDMDL
MODEL 7
REMARK VINA RESULT:      -7.9      2.782      5.430
REMARK  Name = 
REMARK  4 active torsions:
REMARK  status: ('A' for Active; 'I' for Inactive)
REMARK    1  A    between atoms: C_2  and  O_3
REMARK    2  A    between atoms: C_2  and  C_16
REMARK    3  A    between atoms: O_3  and  C_4
REMARK    4  A    between atoms: C_4  and  N_5
REMARK                            x       y       z     vdW  Elec       q    Type
REMARK                         _______ _______ _______ _____ _____    ______ ____
ROOT
ATOM      1  N   UNL     1       4.224   3.066  17.753  0.00  0.00    +0.000 N 
ATOM      2  N   UNL     1       4.216   3.478  16.450  0.00  0.00    +0.000 NA
ATOM      3  N   UNL     1       4.989   4.371  16.043  0.00  0.00    +0.000 NA
ATOM      4  C   UNL     1       5.818   5.037  16.951  0.00  0.00    +0.000 A 
ATOM      5  C   UNL     1       6.552   6.145  16.512  0.00  0.00    +0.000 A 
ATOM      6  C   UNL     1       7.375   6.853  17.393  0.00  0.00    +0.000 A 
ATOM      7  C   UNL     1       7.485   6.449  18.723  0.00  0.00    +0.000 A 
ATOM      8  C   UNL     1       6.770   5.340  19.170  0.00  0.00    +0.000 A 
ATOM      9  C   UNL     1       5.940   4.653  18.276  0.00  0.00    +0.000 A 
ATOM     10  C   UNL     1       5.110   3.529  18.703  0.00  0.00    +0.000 A 
ATOM     11  O   UNL     1       5.216   3.085  19.843  0.00  0.00    +0.000 OA
ENDROOT
BRANCH   1  12
ATOM     12  C   UNL     1       3.249   2.049  18.099  0.00  0.00    +0.000 C 
BRANCH  12  13
ATOM     13  O   UNL     1       1.971   2.461  17.607  0.00  0.00    +0.000 OA
BRANCH  13  15
ATOM     14  O   UNL     1       0.133   2.441  18.975  0.00  0.00    +0.000 OA
ATOM     15  C   UNL     1       1.134   2.994  18.533  0.00  0.00    +0.000 C 
BRANCH  15  16
ATOM     16  C   UNL     1       1.596   4.299  18.951  0.00  0.00    +0.000 A 
ATOM     17  C   UNL     1       1.806   4.803  20.223  0.00  0.00    +0.000 A 
ATOM     18  C   UNL     1       2.271   6.130  20.068  0.00  0.00    +0.000 A 
ATOM     19  C   UNL     1       2.313   6.364  18.711  0.00  0.00    +0.000 A 
ATOM     20 BR   UNL     1       2.848   7.966  17.922  0.00  0.00    +0.000 Br
ATOM     21  O   UNL     1       1.909   5.261  18.027  0.00  0.00    +0.000 OA
ENDBRANCH  15  16
ENDBRANCH  13  15
ENDBRANCH  12  13
ENDBRANCH   1  12
TORSDOF 4
ENDMDL
MODEL 8
REMARK VINA RESULT:      -7.9      3.450      6.649
REMARK  Name = 
REMARK  4 active torsions:
REMARK  status: ('A' for Active; 'I' for Inactive)
REMARK    1  A    between atoms: C_2  and  O_3
REMARK    2  A    between atoms: C_2  and  C_16
REMARK    3  A    between atoms: O_3  and  C_4
REMARK    4  A    between atoms: C_4  and  N_5
REMARK                            x       y       z     vdW  Elec       q    Type
REMARK                         _______ _______ _______ _____ _____    ______ ____
ROOT
ATOM      1  N   UNL     1       6.141   4.735  16.793  0.00  0.00    +0.000 N 
ATOM      2  N   UNL     1       7.177   5.594  16.556  0.00  0.00    +0.000 NA
ATOM      3  N   UNL     1       7.616   5.784  15.402  0.00  0.00    +0.000 NA
ATOM      4  C   UNL     1       7.109   5.036  14.336  0.00  0.00    +0.000 A 
ATOM      5  C   UNL     1       7.725   5.139  13.083  0.00  0.00    +0.000 A 
ATOM      6  C   UNL     1       7.265   4.391  11.995  0.00  0.00    +0.000 A 
ATOM      7  C   UNL     1       6.168   3.542  12.146  0.00  0.00    +0.000 A 
ATOM      8  C   UNL     1       5.538   3.441  13.384  0.00  0.00    +0.000 A 
ATOM      9  C   UNL     1       6.023   4.187  14.465  0.00  0.00    +0.000 A 
ATOM     10  C   UNL     1       5.451   4.068  15.804  0.00  0.00    +0.000 A 
ATOM     11  O   UNL     1       4.442   3.390  15.982  0.00  0.00    +0.000 OA
ENDROOT
BRANCH   1  12
ATOM     12  C   UNL     1       5.755   4.579  18.183  0.00  0.00    +0.000 C 
BRANCH  12  13
ATOM     13  O   UNL     1       5.247   5.830  18.654  0.00  0.00    +0.000 OA
BRANCH  13  15
ATOM     14  O   UNL     1       3.771   7.150  17.501  0.00  0.00    +0.000 OA
ATOM     15  C   UNL     1       4.015   6.170  18.196  0.00  0.00    +0.000 C 
BRANCH  15  16
ATOM     16  C   UNL     1       3.027   5.202  18.615  0.00  0.00    +0.000 A 
ATOM     17  C   UNL     1       1.968   4.650  17.915  0.00  0.00    +0.000 A 
ATOM     18  C   UNL     1       1.321   3.747  18.791  0.00  0.00    +0.000 A 
ATOM     19  C   UNL     1       2.017   3.802  19.978  0.00  0.00    +0.000 A 
ATOM     20 BR   UNL     1       1.600   2.817  21.505  0.00  0.00    +0.000 Br
ATOM     21  O   UNL     1       3.053   4.677  19.881  0.00  0.00    +0.000 OA
ENDBRANCH  15  16
ENDBRANCH  13  15
ENDBRANCH  12  13
ENDBRANCH   1  12
TORSDOF 4
ENDMDL
MODEL 9
REMARK VINA RESULT:      -7.9      1.216      1.328
REMARK  Name = 
REMARK  4 active torsions:
REMARK  status: ('A' for Active; 'I' for Inactive)
REMARK    1  A    between atoms: C_2  and  O_3
REMARK    2  A    between atoms: C_2  and  C_16
REMARK    3  A    between atoms: O_3  and  C_4
REMARK    4  A    between atoms: C_4  and  N_5
REMARK                            x       y       z     vdW  Elec       q    Type
REMARK                         _______ _______ _______ _____ _____    ______ ____
ROOT
ATOM      1  N   UNL     1       4.099   4.353  17.143  0.00  0.00    +0.000 N 
ATOM      2  N   UNL     1       3.827   5.611  17.600  0.00  0.00    +0.000 NA
ATOM      3  N   UNL     1       3.163   5.798  18.642  0.00  0.00    +0.000 NA
ATOM      4  C   UNL     1       2.600   4.707  19.310  0.00  0.00    +0.000 A 
ATOM      5  C   UNL     1       1.723   4.943  20.374  0.00  0.00    +0.000 A 
ATOM      6  C   UNL     1       1.120   3.881  21.055  0.00  0.00    +0.000 A 
ATOM      7  C   UNL     1       1.404   2.566  20.687  0.00  0.00    +0.000 A 
ATOM      8  C   UNL     1       2.286   2.317  19.638  0.00  0.00    +0.000 A 
ATOM      9  C   UNL     1       2.868   3.394  18.959  0.00  0.00    +0.000 A 
ATOM     10  C   UNL     1       3.742   3.198  17.806  0.00  0.00    +0.000 A 
ATOM     11  O   UNL     1       4.082   2.064  17.479  0.00  0.00    +0.000 OA
ENDROOT
BRANCH   1  12
ATOM     12  C   UNL     1       4.847   4.280  15.902  0.00  0.00    +0.000 C 
BRANCH  12  13
ATOM     13  O   UNL     1       5.458   5.552  15.666  0.00  0.00    +0.000 OA
BRANCH  13  15
ATOM     14  O   UNL     1       7.521   5.063  14.798  0.00  0.00    +0.000 OA
ATOM     15  C   UNL     1       6.815   5.556  15.670  0.00  0.00    +0.000 C 
BRANCH  15  16
ATOM     16  C   UNL     1       7.322   6.249  16.834  0.00  0.00    +0.000 A 
ATOM     17  C   UNL     1       7.581   5.774  18.109  0.00  0.00    +0.000 A 
ATOM     18  C   UNL     1       8.076   6.866  18.861  0.00  0.00    +0.000 A 
ATOM     19  C   UNL     1       8.086   7.946  18.006  0.00  0.00    +0.000 A 
ATOM     20 BR   UNL     1       8.639   9.666  18.466  0.00  0.00    +0.000 Br
ATOM     21  O   UNL     1       7.635   7.582  16.776  0.00  0.00    +0.000 OA
ENDBRANCH  15  16
ENDBRANCH  13  15
ENDBRANCH  12  13
ENDBRANCH   1  12
TORSDOF 4
ENDMDL
