MODEL 1
REMARK VINA RESULT:      -6.4      0.000      0.000
REMARK  Name = 
REMARK  3 active torsions:
REMARK  status: ('A' for Active; 'I' for Inactive)
REMARK    1  A    between atoms: C_2  and  C_3
REMARK    2  A    between atoms: C_3  and  N_4
REMARK    3  A    between atoms: C_11  and  N_12
REMARK                            x       y       z     vdW  Elec       q    Type
REMARK                         _______ _______ _______ _____ _____    ______ ____
ROOT
ATOM      1  N   UNL     1       6.584   3.683  12.189  0.00  0.00    +0.000 N 
ATOM      2  C   UNL     1       6.833   4.498  13.258  0.00  0.00    +0.000 C 
ATOM      3  O   UNL     1       7.753   5.299  13.182  0.00  0.00    +0.000 OA
ATOM      4  N   UNL     1       6.014   4.276  14.330  0.00  0.00    +0.000 N 
ATOM      5  C   UNL     1       6.131   4.964  15.498  0.00  0.00    +0.000 A 
ATOM      6  N   UNL     1       6.719   6.107  15.746  0.00  0.00    +0.000 NA
ATOM      7  C   UNL     1       6.666   6.348  17.106  0.00  0.00    +0.000 A 
ATOM      8  C   UNL     1       6.018   5.378  17.833  0.00  0.00    +0.000 A 
ATOM      9  S   UNL     1       5.391   4.172  16.815  0.00  0.00    +0.000 S 
ATOM     10  H   UNL     1       7.266   3.781  11.447  0.00  0.00    +0.000 HD
ATOM     11  H   UNL     1       5.549   3.386  14.395  0.00  0.00    +0.000 HD
ENDROOT
BRANCH   8  12
ATOM     12  N   UNL     1       5.865   5.320  19.250  0.00  0.00    +0.000 N 
ATOM     13  O   UNL     1       6.905   5.326  19.913  0.00  0.00    +0.000 OA
ATOM     14  O   UNL     1       4.717   5.246  19.708  0.00  0.00    +0.000 OA
ENDBRANCH   8  12
BRANCH   1  15
ATOM     15  C   UNL     1       5.482   2.770  12.000  0.00  0.00    +0.000 C 
BRANCH  15  17
ATOM     16  C   UNL     1       3.454   3.142  10.572  0.00  0.00    +0.000 C 
ATOM     17  C   UNL     1       4.311   3.562  11.509  0.00  0.00    +0.000 C 
ENDBRANCH  15  17
ENDBRANCH   1  15
TORSDOF 3
ENDMDL
MODEL 2
REMARK VINA RESULT:      -6.4      4.633      6.070
REMARK  Name = 
REMARK  3 active torsions:
REMARK  status: ('A' for Active; 'I' for Inactive)
REMARK    1  A    between atoms: C_2  and  C_3
REMARK    2  A    between atoms: C_3  and  N_4
REMARK    3  A    between atoms: C_11  and  N_12
REMARK                            x       y       z     vdW  Elec       q    Type
REMARK                         _______ _______ _______ _____ _____    ______ ____
ROOT
ATOM      1  N   UNL     1       7.867   6.511  17.560  0.00  0.00    +0.000 N 
ATOM      2  C   UNL     1       7.155   5.449  18.043  0.00  0.00    +0.000 C 
ATOM      3  O   UNL     1       7.710   4.364  18.132  0.00  0.00    +0.000 OA
ATOM      4  N   UNL     1       5.853   5.740  18.342  0.00  0.00    +0.000 N 
ATOM      5  C   UNL     1       4.979   4.805  18.802  0.00  0.00    +0.000 A 
ATOM      6  N   UNL     1       5.206   3.642  19.357  0.00  0.00    +0.000 NA
ATOM      7  C   UNL     1       3.997   3.002  19.560  0.00  0.00    +0.000 A 
ATOM      8  C   UNL     1       2.896   3.724  19.164  0.00  0.00    +0.000 A 
ATOM      9  S   UNL     1       3.347   5.258  18.594  0.00  0.00    +0.000 S 
ATOM     10  H   UNL     1       8.793   6.256  17.240  0.00  0.00    +0.000 HD
ATOM     11  H   UNL     1       5.438   6.548  17.909  0.00  0.00    +0.000 HD
ENDROOT
BRANCH   8  12
ATOM     12  N   UNL     1       1.534   3.302  19.187  0.00  0.00    +0.000 N 
ATOM     13  O   UNL     1       1.020   3.172  20.301  0.00  0.00    +0.000 OA
ATOM     14  O   UNL     1       0.976   3.077  18.104  0.00  0.00    +0.000 OA
ENDBRANCH   8  12
BRANCH   1  15
ATOM     15  C   UNL     1       7.470   7.897  17.496  0.00  0.00    +0.000 C 
BRANCH  15  17
ATOM     16  C   UNL     1       8.660   9.992  18.191  0.00  0.00    +0.000 C 
ATOM     17  C   UNL     1       8.422   8.685  18.340  0.00  0.00    +0.000 C 
ENDBRANCH  15  17
ENDBRANCH   1  15
TORSDOF 3
ENDMDL
MODEL 3
REMARK VINA RESULT:      -6.4      0.929      1.507
REMARK  Name = 
REMARK  3 active torsions:
REMARK  status: ('A' for Active; 'I' for Inactive)
REMARK    1  A    between atoms: C_2  and  C_3
REMARK    2  A    between atoms: C_3  and  N_4
REMARK    3  A    between atoms: C_11  and  N_12
REMARK                            x       y       z     vdW  Elec       q    Type
REMARK                         _______ _______ _______ _____ _____    ______ ____
ROOT
ATOM      1  N   UNL     1       6.873   4.086  12.290  0.00  0.00    +0.000 N 
ATOM      2  C   UNL     1       7.221   4.785  13.411  0.00  0.00    +0.000 C 
ATOM      3  O   UNL     1       8.243   5.455  13.389  0.00  0.00    +0.000 OA
ATOM      4  N   UNL     1       6.370   4.607  14.466  0.00  0.00    +0.000 N 
ATOM      5  C   UNL     1       6.570   5.192  15.678  0.00  0.00    +0.000 A 
ATOM      6  N   UNL     1       7.307   6.224  16.002  0.00  0.00    +0.000 NA
ATOM      7  C   UNL     1       7.275   6.378  17.376  0.00  0.00    +0.000 A 
ATOM      8  C   UNL     1       6.493   5.460  18.035  0.00  0.00    +0.000 A 
ATOM      9  S   UNL     1       5.716   4.423  16.939  0.00  0.00    +0.000 S 
ATOM     10  H   UNL     1       7.569   4.139  11.556  0.00  0.00    +0.000 HD
ATOM     11  H   UNL     1       5.787   3.787  14.470  0.00  0.00    +0.000 HD
ENDROOT
BRANCH   8  12
ATOM     12  N   UNL     1       6.321   5.328  19.445  0.00  0.00    +0.000 N 
ATOM     13  O   UNL     1       5.157   5.246  19.849  0.00  0.00    +0.000 OA
ATOM     14  O   UNL     1       7.333   5.327  20.157  0.00  0.00    +0.000 OA
ENDBRANCH   8  12
BRANCH   1  15
ATOM     15  C   UNL     1       5.658   3.348  12.039  0.00  0.00    +0.000 C 
BRANCH  15  17
ATOM     16  C   UNL     1       6.963   1.547  10.880  0.00  0.00    +0.000 C 
ATOM     17  C   UNL     1       6.036   1.925  11.766  0.00  0.00    +0.000 C 
ENDBRANCH  15  17
ENDBRANCH   1  15
TORSDOF 3
ENDMDL
MODEL 4
REMARK VINA RESULT:      -6.3      3.881      6.093
REMARK  Name = 
REMARK  3 active torsions:
REMARK  status: ('A' for Active; 'I' for Inactive)
REMARK    1  A    between atoms: C_2  and  C_3
REMARK    2  A    between atoms: C_3  and  N_4
REMARK    3  A    between atoms: C_11  and  N_12
REMARK                            x       y       z     vdW  Elec       q    Type
REMARK                         _______ _______ _______ _____ _____    ______ ____
ROOT
ATOM      1  N   UNL     1       1.883   1.965  18.937  0.00  0.00    +0.000 N 
ATOM      2  C   UNL     1       3.021   2.284  18.251  0.00  0.00    +0.000 C 
ATOM      3  O   UNL     1       3.618   1.395  17.662  0.00  0.00    +0.000 OA
ATOM      4  N   UNL     1       3.381   3.600  18.349  0.00  0.00    +0.000 N 
ATOM      5  C   UNL     1       4.503   4.099  17.764  0.00  0.00    +0.000 A 
ATOM      6  N   UNL     1       5.229   3.617  16.788  0.00  0.00    +0.000 NA
ATOM      7  C   UNL     1       6.335   4.429  16.613  0.00  0.00    +0.000 A 
ATOM      8  C   UNL     1       6.388   5.511  17.459  0.00  0.00    +0.000 A 
ATOM      9  S   UNL     1       5.009   5.578  18.448  0.00  0.00    +0.000 S 
ATOM     10  H   UNL     1       1.690   0.972  18.948  0.00  0.00    +0.000 HD
ATOM     11  H   UNL     1       3.019   4.133  19.122  0.00  0.00    +0.000 HD
ENDROOT
BRANCH   8  12
ATOM     12  N   UNL     1       7.431   6.478  17.558  0.00  0.00    +0.000 N 
ATOM     13  O   UNL     1       7.937   6.625  18.674  0.00  0.00    +0.000 OA
ATOM     14  O   UNL     1       7.738   7.109  16.538  0.00  0.00    +0.000 OA
ENDBRANCH   8  12
BRANCH   1  15
ATOM     15  C   UNL     1       0.950   2.858  19.583  0.00  0.00    +0.000 C 
BRANCH  15  17
ATOM     16  C   UNL     1       2.174   3.392  21.705  0.00  0.00    +0.000 C 
ATOM     17  C   UNL     1       1.181   2.771  21.059  0.00  0.00    +0.000 C 
ENDBRANCH  15  17
ENDBRANCH   1  15
TORSDOF 3
ENDMDL
MODEL 5
REMARK VINA RESULT:      -6.3      3.064      4.259
REMARK  Name = 
REMARK  3 active torsions:
REMARK  status: ('A' for Active; 'I' for Inactive)
REMARK    1  A    between atoms: C_2  and  C_3
REMARK    2  A    between atoms: C_3  and  N_4
REMARK    3  A    between atoms: C_11  and  N_12
REMARK                            x       y       z     vdW  Elec       q    Type
REMARK                         _______ _______ _______ _____ _____    ______ ____
ROOT
ATOM      1  N   UNL     1       7.257   4.707  15.860  0.00  0.00    +0.000 N 
ATOM      2  C   UNL     1       6.573   4.501  17.026  0.00  0.00    +0.000 C 
ATOM      3  O   UNL     1       7.208   4.376  18.063  0.00  0.00    +0.000 OA
ATOM      4  N   UNL     1       5.217   4.418  16.870  0.00  0.00    +0.000 N 
ATOM      5  C   UNL     1       4.373   4.181  17.909  0.00  0.00    +0.000 A 
ATOM      6  N   UNL     1       4.562   4.321  19.197  0.00  0.00    +0.000 NA
ATOM      7  C   UNL     1       3.445   3.852  19.864  0.00  0.00    +0.000 A 
ATOM      8  C   UNL     1       2.443   3.390  19.044  0.00  0.00    +0.000 A 
ATOM      9  S   UNL     1       2.847   3.603  17.409  0.00  0.00    +0.000 S 
ATOM     10  H   UNL     1       8.261   4.656  15.974  0.00  0.00    +0.000 HD
ATOM     11  H   UNL     1       4.859   4.191  15.957  0.00  0.00    +0.000 HD
ENDROOT
BRANCH   8  12
ATOM     12  N   UNL     1       1.211   2.791  19.442  0.00  0.00    +0.000 N 
ATOM     13  O   UNL     1       0.994   2.741  20.656  0.00  0.00    +0.000 OA
ATOM     14  O   UNL     1       0.467   2.349  18.557  0.00  0.00    +0.000 OA
ENDBRANCH   8  12
BRANCH   1  15
ATOM     15  C   UNL     1       6.723   5.016  14.555  0.00  0.00    +0.000 C 
BRANCH  15  17
ATOM     16  C   UNL     1       6.012   3.604  12.608  0.00  0.00    +0.000 C 
ATOM     17  C   UNL     1       6.353   3.724  13.896  0.00  0.00    +0.000 C 
ENDBRANCH  15  17
ENDBRANCH   1  15
TORSDOF 3
ENDMDL
MODEL 6
REMARK VINA RESULT:      -6.3      3.976      5.823
REMARK  Name = 
REMARK  3 active torsions:
REMARK  status: ('A' for Active; 'I' for Inactive)
REMARK    1  A    between atoms: C_2  and  C_3
REMARK    2  A    between atoms: C_3  and  N_4
REMARK    3  A    between atoms: C_11  and  N_12
REMARK                            x       y       z     vdW  Elec       q    Type
REMARK                         _______ _______ _______ _____ _____    ______ ____
ROOT
ATOM      1  N   UNL     1       7.274   5.625  17.018  0.00  0.00    +0.000 N 
ATOM      2  C   UNL     1       6.321   4.646  17.001  0.00  0.00    +0.000 C 
ATOM      3  O   UNL     1       6.240   3.924  16.018  0.00  0.00    +0.000 OA
ATOM      4  N   UNL     1       5.525   4.623  18.112  0.00  0.00    +0.000 N 
ATOM      5  C   UNL     1       4.499   3.743  18.263  0.00  0.00    +0.000 A 
ATOM      6  N   UNL     1       4.266   2.609  17.652  0.00  0.00    +0.000 NA
ATOM      7  C   UNL     1       3.041   2.123  18.067  0.00  0.00    +0.000 A 
ATOM      8  C   UNL     1       2.401   2.908  18.997  0.00  0.00    +0.000 A 
ATOM      9  S   UNL     1       3.359   4.241  19.430  0.00  0.00    +0.000 S 
ATOM     10  H   UNL     1       7.782   5.701  16.145  0.00  0.00    +0.000 HD
ATOM     11  H   UNL     1       5.465   5.460  18.669  0.00  0.00    +0.000 HD
ENDROOT
BRANCH   8  12
ATOM     12  N   UNL     1       1.106   2.700  19.556  0.00  0.00    +0.000 N 
ATOM     13  O   UNL     1       0.226   2.326  18.775  0.00  0.00    +0.000 OA
ATOM     14  O   UNL     1       0.950   2.927  20.763  0.00  0.00    +0.000 OA
ENDBRANCH   8  12
BRANCH   1  15
ATOM     15  C   UNL     1       7.642   6.494  18.110  0.00  0.00    +0.000 C 
BRANCH  15  17
ATOM     16  C   UNL     1       8.362   8.896  18.150  0.00  0.00    +0.000 C 
ATOM     17  C   UNL     1       7.675   7.896  17.587  0.00  0.00    +0.000 C 
ENDBRANCH  15  17
ENDBRANCH   1  15
TORSDOF 3
ENDMDL
MODEL 7
REMARK VINA RESULT:      -6.2      3.813      5.815
REMARK  Name = 
REMARK  3 active torsions:
REMARK  status: ('A' for Active; 'I' for Inactive)
REMARK    1  A    between atoms: C_2  and  C_3
REMARK    2  A    between atoms: C_3  and  N_4
REMARK    3  A    between atoms: C_11  and  N_12
REMARK                            x       y       z     vdW  Elec       q    Type
REMARK                         _______ _______ _______ _____ _____    ______ ____
ROOT
ATOM      1  N   UNL     1       7.610   7.120  16.864  0.00  0.00    +0.000 N 
ATOM      2  C   UNL     1       6.634   6.188  16.647  0.00  0.00    +0.000 C 
ATOM      3  O   UNL     1       6.491   5.744  15.517  0.00  0.00    +0.000 OA
ATOM      4  N   UNL     1       5.891   5.890  17.755  0.00  0.00    +0.000 N 
ATOM      5  C   UNL     1       4.853   5.011  17.728  0.00  0.00    +0.000 A 
ATOM      6  N   UNL     1       4.566   4.075  16.861  0.00  0.00    +0.000 NA
ATOM      7  C   UNL     1       3.350   3.511  17.201  0.00  0.00    +0.000 A 
ATOM      8  C   UNL     1       2.774   4.038  18.332  0.00  0.00    +0.000 A 
ATOM      9  S   UNL     1       3.782   5.205  19.042  0.00  0.00    +0.000 S 
ATOM     10  H   UNL     1       8.077   7.412  16.015  0.00  0.00    +0.000 HD
ATOM     11  H   UNL     1       5.878   6.556  18.509  0.00  0.00    +0.000 HD
ENDROOT
BRANCH   8  12
ATOM     12  N   UNL     1       1.502   3.707  18.886  0.00  0.00    +0.000 N 
ATOM     13  O   UNL     1       0.815   2.910  18.241  0.00  0.00    +0.000 OA
ATOM     14  O   UNL     1       1.170   4.251  19.947  0.00  0.00    +0.000 OA
ENDBRANCH   8  12
BRANCH   1  15
ATOM     15  C   UNL     1       8.050   7.676  18.122  0.00  0.00    +0.000 C 
BRANCH  15  17
ATOM     16  C   UNL     1       8.961   9.940  18.699  0.00  0.00    +0.000 C 
ATOM     17  C   UNL     1       8.181   9.157  17.946  0.00  0.00    +0.000 C 
ENDBRANCH  15  17
ENDBRANCH   1  15
TORSDOF 3
ENDMDL
MODEL 8
REMARK VINA RESULT:      -6.2      4.206      5.877
REMARK  Name = 
REMARK  3 active torsions:
REMARK  status: ('A' for Active; 'I' for Inactive)
REMARK    1  A    between atoms: C_2  and  C_3
REMARK    2  A    between atoms: C_3  and  N_4
REMARK    3  A    between atoms: C_11  and  N_12
REMARK                            x       y       z     vdW  Elec       q    Type
REMARK                         _______ _______ _______ _____ _____    ______ ____
ROOT
ATOM      1  N   UNL     1       7.143   6.461  16.869  0.00  0.00    +0.000 N 
ATOM      2  C   UNL     1       6.575   5.368  17.462  0.00  0.00    +0.000 C 
ATOM      3  O   UNL     1       6.934   4.256  17.105  0.00  0.00    +0.000 OA
ATOM      4  N   UNL     1       5.615   5.671  18.387  0.00  0.00    +0.000 N 
ATOM      5  C   UNL     1       4.914   4.717  19.056  0.00  0.00    +0.000 A 
ATOM      6  N   UNL     1       5.185   3.451  19.247  0.00  0.00    +0.000 NA
ATOM      7  C   UNL     1       4.119   2.861  19.900  0.00  0.00    +0.000 A 
ATOM      8  C   UNL     1       3.085   3.718  20.194  0.00  0.00    +0.000 A 
ATOM      9  S   UNL     1       3.458   5.306  19.724  0.00  0.00    +0.000 S 
ATOM     10  H   UNL     1       7.770   6.222  16.111  0.00  0.00    +0.000 HD
ATOM     11  H   UNL     1       5.179   6.577  18.336  0.00  0.00    +0.000 HD
ENDROOT
BRANCH   8  12
ATOM     12  N   UNL     1       1.836   3.387  20.797  0.00  0.00    +0.000 N 
ATOM     13  O   UNL     1       0.834   3.519  20.090  0.00  0.00    +0.000 OA
ATOM     14  O   UNL     1       1.841   3.015  21.978  0.00  0.00    +0.000 OA
ENDBRANCH   8  12
BRANCH   1  15
ATOM     15  C   UNL     1       6.981   7.852  17.219  0.00  0.00    +0.000 C 
BRANCH  15  17
ATOM     16  C   UNL     1       8.508   9.547  18.260  0.00  0.00    +0.000 C 
ATOM     17  C   UNL     1       8.196   8.276  17.983  0.00  0.00    +0.000 C 
ENDBRANCH  15  17
ENDBRANCH   1  15
TORSDOF 3
ENDMDL
MODEL 9
REMARK VINA RESULT:      -6.2      3.289      6.501
REMARK  Name = 
REMARK  3 active torsions:
REMARK  status: ('A' for Active; 'I' for Inactive)
REMARK    1  A    between atoms: C_2  and  C_3
REMARK    2  A    between atoms: C_3  and  N_4
REMARK    3  A    between atoms: C_11  and  N_12
REMARK                            x       y       z     vdW  Elec       q    Type
REMARK                         _______ _______ _______ _____ _____    ______ ____
ROOT
ATOM      1  N   UNL     1       2.018   5.672  20.491  0.00  0.00    +0.000 N 
ATOM      2  C   UNL     1       2.743   6.193  19.456  0.00  0.00    +0.000 C 
ATOM      3  O   UNL     1       2.502   7.333  19.088  0.00  0.00    +0.000 OA
ATOM      4  N   UNL     1       3.653   5.324  18.921  0.00  0.00    +0.000 N 
ATOM      5  C   UNL     1       4.443   5.649  17.862  0.00  0.00    +0.000 A 
ATOM      6  N   UNL     1       4.766   6.823  17.382  0.00  0.00    +0.000 NA
ATOM      7  C   UNL     1       5.508   6.643  16.229  0.00  0.00    +0.000 A 
ATOM      8  C   UNL     1       5.732   5.328  15.894  0.00  0.00    +0.000 A 
ATOM      9  S   UNL     1       5.079   4.283  17.061  0.00  0.00    +0.000 S 
ATOM     10  H   UNL     1       1.275   6.285  20.804  0.00  0.00    +0.000 HD
ATOM     11  H   UNL     1       3.514   4.339  19.074  0.00  0.00    +0.000 HD
ENDROOT
BRANCH   8  12
ATOM     12  N   UNL     1       6.401   4.836  14.735  0.00  0.00    +0.000 N 
ATOM     13  O   UNL     1       7.535   5.277  14.529  0.00  0.00    +0.000 OA
ATOM     14  O   UNL     1       5.799   4.029  14.014  0.00  0.00    +0.000 OA
ENDBRANCH   8  12
BRANCH   1  15
ATOM     15  C   UNL     1       2.215   4.418  21.178  0.00  0.00    +0.000 C 
BRANCH  15  17
ATOM     16  C   UNL     1       1.174   2.741  19.631  0.00  0.00    +0.000 C 
ATOM     17  C   UNL     1       1.130   3.484  20.743  0.00  0.00    +0.000 C 
ENDBRANCH  15  17
ENDBRANCH   1  15
TORSDOF 3
ENDMDL
