MODEL 1
REMARK VINA RESULT:      -7.8      0.000      0.000
REMARK  Name = 
REMARK  12 active torsions:
REMARK  status: ('A' for Active; 'I' for Inactive)
REMARK    1  A    between atoms: C_1  and  C_2
REMARK    2  A    between atoms: C_2  and  C_3
REMARK    3  A    between atoms: C_3  and  C_4
REMARK    4  A    between atoms: C_4  and  C_5
REMARK    5  A    between atoms: C_9  and  C_10
REMARK    6  A    between atoms: C_11  and  C_12
REMARK    7  A    between atoms: N_14  and  O_15
REMARK    8  A    between atoms: N_19  and  C_20
REMARK    9  A    between atoms: C_20  and  C_21
REMARK   10  A    between atoms: C_21  and  C_22
REMARK   11  A    between atoms: C_22  and  C_23
REMARK   12  A    between atoms: C_22  and  C_24
REMARK                            x       y       z     vdW  Elec       q    Type
REMARK                         _______ _______ _______ _____ _____    ______ ____
ROOT
ATOM      1  C   UNL     1       3.022   5.083  19.317  0.00  0.00    +0.000 A 
ATOM      2  N   UNL     1       3.566   4.056  18.694  0.00  0.00    +0.000 NA
ATOM      3  C   UNL     1       4.148   4.565  17.565  0.00  0.00    +0.000 A 
ATOM      4  C   UNL     1       4.876   3.890  16.571  0.00  0.00    +0.000 A 
ATOM      5  C   UNL     1       5.391   4.607  15.478  0.00  0.00    +0.000 A 
ATOM      6  C   UNL     1       5.210   5.992  15.427  0.00  0.00    +0.000 A 
ATOM      7  C   UNL     1       4.508   6.682  16.423  0.00  0.00    +0.000 A 
ATOM      8  C   UNL     1       3.965   5.944  17.482  0.00  0.00    +0.000 A 
ATOM      9  N   UNL     1       3.202   6.254  18.591  0.00  0.00    +0.000 N 
ENDROOT
BRANCH   5  10
ATOM     10  C   UNL     1       6.158   3.966  14.400  0.00  0.00    +0.000 C 
ATOM     11  C   UNL     1       5.719   3.858  13.139  0.00  0.00    +0.000 C 
BRANCH  11  12
ATOM     12  C   UNL     1       6.566   3.221  12.105  0.00  0.00    +0.000 C 
ATOM     13  O   UNL     1       7.498   3.784  11.543  0.00  0.00    +0.000 OA
ATOM     14  N   UNL     1       6.202   1.929  11.837  0.00  0.00    +0.000 N 
ATOM     15  H   UNL     1       5.460   1.415  12.295  0.00  0.00    +0.000 HD
BRANCH  14  16
ATOM     16  O   UNL     1       6.970   1.237  10.877  0.00  0.00    +0.000 OA
ATOM     17  H   UNL     1       6.280   0.871  10.282  0.00  0.00    +0.000 HD
ENDBRANCH  14  16
ENDBRANCH  11  12
ENDBRANCH   5  10
BRANCH   1  18
ATOM     18  C   UNL     1       2.334   4.990  20.645  0.00  0.00    +0.000 C 
BRANCH  18  19
ATOM     19  C   UNL     1       0.961   4.327  20.523  0.00  0.00    +0.000 C 
BRANCH  19  21
ATOM     20  C   UNL     1       2.231   2.536  21.759  0.00  0.00    +0.000 C 
ATOM     21  C   UNL     1       1.012   2.847  20.904  0.00  0.00    +0.000 C 
ENDBRANCH  19  21
ENDBRANCH  18  19
ENDBRANCH   1  18
BRANCH   9  22
ATOM     22  C   UNL     1       2.729   7.556  19.025  0.00  0.00    +0.000 C 
BRANCH  22  23
ATOM     23  C   UNL     1       2.021   8.471  18.020  0.00  0.00    +0.000 C 
BRANCH  23  24
ATOM     24  C   UNL     1       1.104   9.549  18.628  0.00  0.00    +0.000 C 
ATOM     25  C   UNL     1       0.865   9.316  20.118  0.00  0.00    +0.000 C 
ATOM     26  C   UNL     1       1.720  10.932  18.405  0.00  0.00    +0.000 C 
ENDBRANCH  23  24
ENDBRANCH  22  23
ENDBRANCH   9  22
TORSDOF 9
ENDMDL
MODEL 2
REMARK VINA RESULT:      -7.7      0.952      4.292
REMARK  Name = 
REMARK  12 active torsions:
REMARK  status: ('A' for Active; 'I' for Inactive)
REMARK    1  A    between atoms: C_1  and  C_2
REMARK    2  A    between atoms: C_2  and  C_3
REMARK    3  A    between atoms: C_3  and  C_4
REMARK    4  A    between atoms: C_4  and  C_5
REMARK    5  A    between atoms: C_9  and  C_10
REMARK    6  A    between atoms: C_11  and  C_12
REMARK    7  A    between atoms: N_14  and  O_15
REMARK    8  A    between atoms: N_19  and  C_20
REMARK    9  A    between atoms: C_20  and  C_21
REMARK   10  A    between atoms: C_21  and  C_22
REMARK   11  A    between atoms: C_22  and  C_23
REMARK   12  A    between atoms: C_22  and  C_24
REMARK                            x       y       z     vdW  Elec       q    Type
REMARK                         _______ _______ _______ _____ _____    ______ ____
ROOT
ATOM      1  C   UNL     1       2.679   7.311  18.903  0.00  0.00    +0.000 A 
ATOM      2  N   UNL     1       3.342   7.630  17.809  0.00  0.00    +0.000 NA
ATOM      3  C   UNL     1       3.934   6.475  17.375  0.00  0.00    +0.000 A 
ATOM      4  C   UNL     1       4.734   6.270  16.239  0.00  0.00    +0.000 A 
ATOM      5  C   UNL     1       5.254   4.993  15.974  0.00  0.00    +0.000 A 
ATOM      6  C   UNL     1       4.922   3.934  16.825  0.00  0.00    +0.000 A 
ATOM      7  C   UNL     1       4.106   4.118  17.948  0.00  0.00    +0.000 A 
ATOM      8  C   UNL     1       3.632   5.407  18.219  0.00  0.00    +0.000 A 
ATOM      9  N   UNL     1       2.863   5.970  19.219  0.00  0.00    +0.000 N 
ENDROOT
BRANCH   5  10
ATOM     10  C   UNL     1       6.100   4.707  14.807  0.00  0.00    +0.000 C 
ATOM     11  C   UNL     1       5.727   3.909  13.797  0.00  0.00    +0.000 C 
BRANCH  11  12
ATOM     12  C   UNL     1       6.630   3.693  12.643  0.00  0.00    +0.000 C 
ATOM     13  O   UNL     1       7.405   4.540  12.214  0.00  0.00    +0.000 OA
ATOM     14  N   UNL     1       6.514   2.443  12.100  0.00  0.00    +0.000 N 
ATOM     15  H   UNL     1       5.910   1.703  12.437  0.00  0.00    +0.000 HD
BRANCH  14  16
ATOM     16  O   UNL     1       7.354   2.142  11.007  0.00  0.00    +0.000 OA
ATOM     17  H   UNL     1       7.594   3.035  10.677  0.00  0.00    +0.000 HD
ENDBRANCH  14  16
ENDBRANCH  11  12
ENDBRANCH   5  10
BRANCH   1  18
ATOM     18  C   UNL     1       1.821   8.267  19.674  0.00  0.00    +0.000 C 
BRANCH  18  19
ATOM     19  C   UNL     1       1.325   9.415  18.793  0.00  0.00    +0.000 C 
BRANCH  19  21
ATOM     20  C   UNL     1      -0.068  11.463  19.251  0.00  0.00    +0.000 C 
ATOM     21  C   UNL     1      -0.032   9.943  19.262  0.00  0.00    +0.000 C 
ENDBRANCH  19  21
ENDBRANCH  18  19
ENDBRANCH   1  18
BRANCH   9  22
ATOM     22  C   UNL     1       2.249   5.315  20.360  0.00  0.00    +0.000 C 
BRANCH  22  23
ATOM     23  C   UNL     1       1.023   4.422  20.143  0.00  0.00    +0.000 C 
BRANCH  23  24
ATOM     24  C   UNL     1       1.210   2.933  20.493  0.00  0.00    +0.000 C 
ATOM     25  C   UNL     1       1.476   2.087  19.250  0.00  0.00    +0.000 C 
ATOM     26  C   UNL     1       2.364   2.782  21.488  0.00  0.00    +0.000 C 
ENDBRANCH  23  24
ENDBRANCH  22  23
ENDBRANCH   9  22
TORSDOF 9
ENDMDL
MODEL 3
REMARK VINA RESULT:      -7.6      4.674      8.059
REMARK  Name = 
REMARK  12 active torsions:
REMARK  status: ('A' for Active; 'I' for Inactive)
REMARK    1  A    between atoms: C_1  and  C_2
REMARK    2  A    between atoms: C_2  and  C_3
REMARK    3  A    between atoms: C_3  and  C_4
REMARK    4  A    between atoms: C_4  and  C_5
REMARK    5  A    between atoms: C_9  and  C_10
REMARK    6  A    between atoms: C_11  and  C_12
REMARK    7  A    between atoms: N_14  and  O_15
REMARK    8  A    between atoms: N_19  and  C_20
REMARK    9  A    between atoms: C_20  and  C_21
REMARK   10  A    between atoms: C_21  and  C_22
REMARK   11  A    between atoms: C_22  and  C_23
REMARK   12  A    between atoms: C_22  and  C_24
REMARK                            x       y       z     vdW  Elec       q    Type
REMARK                         _______ _______ _______ _____ _____    ______ ____
ROOT
ATOM      1  C   UNL     1       5.203   5.228  17.301  0.00  0.00    +0.000 A 
ATOM      2  N   UNL     1       4.850   6.389  16.786  0.00  0.00    +0.000 NA
ATOM      3  C   UNL     1       3.861   6.877  17.597  0.00  0.00    +0.000 A 
ATOM      4  C   UNL     1       3.163   8.092  17.497  0.00  0.00    +0.000 A 
ATOM      5  C   UNL     1       2.171   8.403  18.441  0.00  0.00    +0.000 A 
ATOM      6  C   UNL     1       1.931   7.516  19.494  0.00  0.00    +0.000 A 
ATOM      7  C   UNL     1       2.636   6.313  19.620  0.00  0.00    +0.000 A 
ATOM      8  C   UNL     1       3.591   6.000  18.646  0.00  0.00    +0.000 A 
ATOM      9  N   UNL     1       4.430   4.926  18.416  0.00  0.00    +0.000 N 
ENDROOT
BRANCH   5  10
ATOM     10  C   UNL     1       1.398   9.653  18.397  0.00  0.00    +0.000 C 
ATOM     11  C   UNL     1       0.391   9.933  19.235  0.00  0.00    +0.000 C 
BRANCH  11  12
ATOM     12  C   UNL     1      -0.321  11.229  19.140  0.00  0.00    +0.000 C 
ATOM     13  O   UNL     1      -0.710  11.867  20.112  0.00  0.00    +0.000 OA
ATOM     14  N   UNL     1      -0.503  11.646  17.850  0.00  0.00    +0.000 N 
ATOM     15  H   UNL     1      -0.175  11.168  17.021  0.00  0.00    +0.000 HD
BRANCH  14  16
ATOM     16  O   UNL     1      -1.155  12.884  17.667  0.00  0.00    +0.000 OA
ATOM     17  H   UNL     1      -0.884  13.130  16.756  0.00  0.00    +0.000 HD
ENDBRANCH  14  16
ENDBRANCH  11  12
ENDBRANCH   5  10
BRANCH   1  18
ATOM     18  C   UNL     1       6.312   4.375  16.766  0.00  0.00    +0.000 C 
BRANCH  18  19
ATOM     19  C   UNL     1       5.871   3.586  15.532  0.00  0.00    +0.000 C 
BRANCH  19  21
ATOM     20  C   UNL     1       6.190   3.606  13.033  0.00  0.00    +0.000 C 
ATOM     21  C   UNL     1       5.905   4.447  14.268  0.00  0.00    +0.000 C 
ENDBRANCH  19  21
ENDBRANCH  18  19
ENDBRANCH   1  18
BRANCH   9  22
ATOM     22  C   UNL     1       4.590   3.722  19.210  0.00  0.00    +0.000 C 
BRANCH  22  23
ATOM     23  C   UNL     1       3.790   2.467  18.842  0.00  0.00    +0.000 C 
BRANCH  23  24
ATOM     24  C   UNL     1       2.448   2.290  19.577  0.00  0.00    +0.000 C 
ATOM     25  C   UNL     1       2.492   2.875  20.987  0.00  0.00    +0.000 C 
ATOM     26  C   UNL     1       1.330   2.953  18.768  0.00  0.00    +0.000 C 
ENDBRANCH  23  24
ENDBRANCH  22  23
ENDBRANCH   9  22
TORSDOF 9
ENDMDL
MODEL 4
REMARK VINA RESULT:      -7.4      1.030      1.375
REMARK  Name = 
REMARK  12 active torsions:
REMARK  status: ('A' for Active; 'I' for Inactive)
REMARK    1  A    between atoms: C_1  and  C_2
REMARK    2  A    between atoms: C_2  and  C_3
REMARK    3  A    between atoms: C_3  and  C_4
REMARK    4  A    between atoms: C_4  and  C_5
REMARK    5  A    between atoms: C_9  and  C_10
REMARK    6  A    between atoms: C_11  and  C_12
REMARK    7  A    between atoms: N_14  and  O_15
REMARK    8  A    between atoms: N_19  and  C_20
REMARK    9  A    between atoms: C_20  and  C_21
REMARK   10  A    between atoms: C_21  and  C_22
REMARK   11  A    between atoms: C_22  and  C_23
REMARK   12  A    between atoms: C_22  and  C_24
REMARK                            x       y       z     vdW  Elec       q    Type
REMARK                         _______ _______ _______ _____ _____    ______ ____
ROOT
ATOM      1  C   UNL     1       1.895   4.628  19.031  0.00  0.00    +0.000 A 
ATOM      2  N   UNL     1       2.397   3.822  18.117  0.00  0.00    +0.000 NA
ATOM      3  C   UNL     1       3.349   4.548  17.455  0.00  0.00    +0.000 A 
ATOM      4  C   UNL     1       4.191   4.143  16.405  0.00  0.00    +0.000 A 
ATOM      5  C   UNL     1       5.106   5.056  15.856  0.00  0.00    +0.000 A 
ATOM      6  C   UNL     1       5.196   6.340  16.401  0.00  0.00    +0.000 A 
ATOM      7  C   UNL     1       4.382   6.750  17.463  0.00  0.00    +0.000 A 
ATOM      8  C   UNL     1       3.445   5.840  17.969  0.00  0.00    +0.000 A 
ATOM      9  N   UNL     1       2.474   5.889  18.950  0.00  0.00    +0.000 N 
ENDROOT
BRANCH   5  10
ATOM     10  C   UNL     1       6.014   4.703  14.755  0.00  0.00    +0.000 C 
ATOM     11  C   UNL     1       5.660   3.929  13.719  0.00  0.00    +0.000 C 
BRANCH  11  12
ATOM     12  C   UNL     1       6.628   3.643  12.636  0.00  0.00    +0.000 C 
ATOM     13  O   UNL     1       7.491   4.431  12.264  0.00  0.00    +0.000 OA
ATOM     14  N   UNL     1       6.464   2.400  12.087  0.00  0.00    +0.000 N 
ATOM     15  H   UNL     1       5.787   1.707  12.380  0.00  0.00    +0.000 HD
BRANCH  14  16
ATOM     16  O   UNL     1       7.360   2.034  11.059  0.00  0.00    +0.000 OA
ATOM     17  H   UNL     1       6.768   1.978  10.278  0.00  0.00    +0.000 HD
ENDBRANCH  14  16
ENDBRANCH  11  12
ENDBRANCH   5  10
BRANCH   1  18
ATOM     18  C   UNL     1       0.863   4.218  20.036  0.00  0.00    +0.000 C 
BRANCH  18  19
ATOM     19  C   UNL     1       1.252   2.920  20.747  0.00  0.00    +0.000 C 
BRANCH  19  21
ATOM     20  C   UNL     1       3.688   2.329  21.005  0.00  0.00    +0.000 C 
ATOM     21  C   UNL     1       2.513   3.095  21.594  0.00  0.00    +0.000 C 
ENDBRANCH  19  21
ENDBRANCH  18  19
ENDBRANCH   1  18
BRANCH   9  22
ATOM     22  C   UNL     1       2.140   6.991  19.833  0.00  0.00    +0.000 C 
BRANCH  22  23
ATOM     23  C   UNL     1       1.885   8.380  19.237  0.00  0.00    +0.000 C 
BRANCH  23  24
ATOM     24  C   UNL     1       1.039   9.333  20.102  0.00  0.00    +0.000 C 
ATOM     25  C   UNL     1      -0.126   9.930  19.314  0.00  0.00    +0.000 C 
ATOM     26  C   UNL     1       0.512   8.583  21.328  0.00  0.00    +0.000 C 
ENDBRANCH  23  24
ENDBRANCH  22  23
ENDBRANCH   9  22
TORSDOF 9
ENDMDL
MODEL 5
REMARK VINA RESULT:      -7.3      0.772      1.002
REMARK  Name = 
REMARK  12 active torsions:
REMARK  status: ('A' for Active; 'I' for Inactive)
REMARK    1  A    between atoms: C_1  and  C_2
REMARK    2  A    between atoms: C_2  and  C_3
REMARK    3  A    between atoms: C_3  and  C_4
REMARK    4  A    between atoms: C_4  and  C_5
REMARK    5  A    between atoms: C_9  and  C_10
REMARK    6  A    between atoms: C_11  and  C_12
REMARK    7  A    between atoms: N_14  and  O_15
REMARK    8  A    between atoms: N_19  and  C_20
REMARK    9  A    between atoms: C_20  and  C_21
REMARK   10  A    between atoms: C_21  and  C_22
REMARK   11  A    between atoms: C_22  and  C_23
REMARK   12  A    between atoms: C_22  and  C_24
REMARK                            x       y       z     vdW  Elec       q    Type
REMARK                         _______ _______ _______ _____ _____    ______ ____
ROOT
ATOM      1  C   UNL     1       3.170   4.725  19.715  0.00  0.00    +0.000 A 
ATOM      2  N   UNL     1       3.819   3.841  18.984  0.00  0.00    +0.000 NA
ATOM      3  C   UNL     1       4.293   4.525  17.898  0.00  0.00    +0.000 A 
ATOM      4  C   UNL     1       5.069   4.047  16.828  0.00  0.00    +0.000 A 
ATOM      5  C   UNL     1       5.451   4.923  15.799  0.00  0.00    +0.000 A 
ATOM      6  C   UNL     1       5.092   6.272  15.887  0.00  0.00    +0.000 A 
ATOM      7  C   UNL     1       4.341   6.768  16.959  0.00  0.00    +0.000 A 
ATOM      8  C   UNL     1       3.932   5.870  17.953  0.00  0.00    +0.000 A 
ATOM      9  N   UNL     1       3.174   5.972  19.103  0.00  0.00    +0.000 N 
ENDROOT
BRANCH   5  10
ATOM     10  C   UNL     1       6.258   4.493  14.649  0.00  0.00    +0.000 C 
ATOM     11  C   UNL     1       5.738   3.959  13.535  0.00  0.00    +0.000 C 
BRANCH  11  12
ATOM     12  C   UNL     1       6.619   3.574  12.409  0.00  0.00    +0.000 C 
ATOM     13  O   UNL     1       7.384   4.348  11.845  0.00  0.00    +0.000 OA
ATOM     14  N   UNL     1       6.494   2.257  12.058  0.00  0.00    +0.000 N 
ATOM     15  H   UNL     1       5.899   1.576  12.512  0.00  0.00    +0.000 HD
BRANCH  14  16
ATOM     16  O   UNL     1       7.314   1.798  11.005  0.00  0.00    +0.000 OA
ATOM     17  H   UNL     1       7.383   0.838  11.198  0.00  0.00    +0.000 HD
ENDBRANCH  14  16
ENDBRANCH  11  12
ENDBRANCH   5  10
BRANCH   1  18
ATOM     18  C   UNL     1       2.544   4.419  21.042  0.00  0.00    +0.000 C 
BRANCH  18  19
ATOM     19  C   UNL     1       1.668   3.166  20.976  0.00  0.00    +0.000 C 
BRANCH  19  21
ATOM     20  C   UNL     1       0.622   2.249  18.876  0.00  0.00    +0.000 C 
ATOM     21  C   UNL     1       0.539   3.317  19.956  0.00  0.00    +0.000 C 
ENDBRANCH  19  21
ENDBRANCH  18  19
ENDBRANCH   1  18
BRANCH   9  22
ATOM     22  C   UNL     1       2.552   7.155  19.670  0.00  0.00    +0.000 C 
BRANCH  22  23
ATOM     23  C   UNL     1       2.120   8.296  18.742  0.00  0.00    +0.000 C 
BRANCH  23  24
ATOM     24  C   UNL     1       0.814   9.014  19.128  0.00  0.00    +0.000 C 
ATOM     25  C   UNL     1       0.974   9.833  20.408  0.00  0.00    +0.000 C 
ATOM     26  C   UNL     1       0.368   9.921  17.978  0.00  0.00    +0.000 C 
ENDBRANCH  23  24
ENDBRANCH  22  23
ENDBRANCH   9  22
TORSDOF 9
ENDMDL
MODEL 6
REMARK VINA RESULT:      -7.3      4.805      8.124
REMARK  Name = 
REMARK  12 active torsions:
REMARK  status: ('A' for Active; 'I' for Inactive)
REMARK    1  A    between atoms: C_1  and  C_2
REMARK    2  A    between atoms: C_2  and  C_3
REMARK    3  A    between atoms: C_3  and  C_4
REMARK    4  A    between atoms: C_4  and  C_5
REMARK    5  A    between atoms: C_9  and  C_10
REMARK    6  A    between atoms: C_11  and  C_12
REMARK    7  A    between atoms: N_14  and  O_15
REMARK    8  A    between atoms: N_19  and  C_20
REMARK    9  A    between atoms: C_20  and  C_21
REMARK   10  A    between atoms: C_21  and  C_22
REMARK   11  A    between atoms: C_22  and  C_23
REMARK   12  A    between atoms: C_22  and  C_24
REMARK                            x       y       z     vdW  Elec       q    Type
REMARK                         _______ _______ _______ _____ _____    ______ ____
ROOT
ATOM      1  C   UNL     1       4.654   5.356  17.603  0.00  0.00    +0.000 A 
ATOM      2  N   UNL     1       4.304   6.480  17.010  0.00  0.00    +0.000 NA
ATOM      3  C   UNL     1       3.389   7.074  17.837  0.00  0.00    +0.000 A 
ATOM      4  C   UNL     1       2.725   8.301  17.675  0.00  0.00    +0.000 A 
ATOM      5  C   UNL     1       1.810   8.731  18.649  0.00  0.00    +0.000 A 
ATOM      6  C   UNL     1       1.614   7.948  19.791  0.00  0.00    +0.000 A 
ATOM      7  C   UNL     1       2.287   6.735  19.978  0.00  0.00    +0.000 A 
ATOM      8  C   UNL     1       3.163   6.302  18.975  0.00  0.00    +0.000 A 
ATOM      9  N   UNL     1       3.949   5.181  18.788  0.00  0.00    +0.000 N 
ENDROOT
BRANCH   5  10
ATOM     10  C   UNL     1       1.077  10.001  18.544  0.00  0.00    +0.000 C 
ATOM     11  C   UNL     1      -0.241  10.117  18.757  0.00  0.00    +0.000 C 
BRANCH  11  12
ATOM     12  C   UNL     1      -0.900  11.440  18.656  0.00  0.00    +0.000 C 
ATOM     13  O   UNL     1      -0.308  12.479  18.386  0.00  0.00    +0.000 OA
ATOM     14  N   UNL     1      -2.246  11.386  18.895  0.00  0.00    +0.000 N 
ATOM     15  H   UNL     1      -2.780  10.550  19.093  0.00  0.00    +0.000 HD
BRANCH  14  16
ATOM     16  O   UNL     1      -2.959  12.601  18.800  0.00  0.00    +0.000 OA
ATOM     17  H   UNL     1      -2.297  13.256  19.110  0.00  0.00    +0.000 HD
ENDBRANCH  14  16
ENDBRANCH  11  12
ENDBRANCH   5  10
BRANCH   1  18
ATOM     18  C   UNL     1       5.696   4.417  17.075  0.00  0.00    +0.000 C 
BRANCH  18  19
ATOM     19  C   UNL     1       7.053   5.108  16.927  0.00  0.00    +0.000 C 
BRANCH  19  21
ATOM     20  C   UNL     1       7.883   7.094  18.236  0.00  0.00    +0.000 C 
ATOM     21  C   UNL     1       7.586   5.603  18.272  0.00  0.00    +0.000 C 
ENDBRANCH  19  21
ENDBRANCH  18  19
ENDBRANCH   1  18
BRANCH   9  22
ATOM     22  C   UNL     1       4.124   4.045  19.674  0.00  0.00    +0.000 C 
BRANCH  22  23
ATOM     23  C   UNL     1       3.307   2.771  19.432  0.00  0.00    +0.000 C 
BRANCH  23  24
ATOM     24  C   UNL     1       2.036   2.619  20.288  0.00  0.00    +0.000 C 
ATOM     25  C   UNL     1       2.141   3.388  21.603  0.00  0.00    +0.000 C 
ATOM     26  C   UNL     1       0.822   3.105  19.492  0.00  0.00    +0.000 C 
ENDBRANCH  23  24
ENDBRANCH  22  23
ENDBRANCH   9  22
TORSDOF 9
ENDMDL
MODEL 7
REMARK VINA RESULT:      -7.3      1.729      4.604
REMARK  Name = 
REMARK  12 active torsions:
REMARK  status: ('A' for Active; 'I' for Inactive)
REMARK    1  A    between atoms: C_1  and  C_2
REMARK    2  A    between atoms: C_2  and  C_3
REMARK    3  A    between atoms: C_3  and  C_4
REMARK    4  A    between atoms: C_4  and  C_5
REMARK    5  A    between atoms: C_9  and  C_10
REMARK    6  A    between atoms: C_11  and  C_12
REMARK    7  A    between atoms: N_14  and  O_15
REMARK    8  A    between atoms: N_19  and  C_20
REMARK    9  A    between atoms: C_20  and  C_21
REMARK   10  A    between atoms: C_21  and  C_22
REMARK   11  A    between atoms: C_22  and  C_23
REMARK   12  A    between atoms: C_22  and  C_24
REMARK                            x       y       z     vdW  Elec       q    Type
REMARK                         _______ _______ _______ _____ _____    ______ ____
ROOT
ATOM      1  C   UNL     1       2.063   7.349  19.775  0.00  0.00    +0.000 A 
ATOM      2  N   UNL     1       2.778   7.862  18.794  0.00  0.00    +0.000 NA
ATOM      3  C   UNL     1       3.525   6.831  18.292  0.00  0.00    +0.000 A 
ATOM      4  C   UNL     1       4.436   6.845  17.222  0.00  0.00    +0.000 A 
ATOM      5  C   UNL     1       5.111   5.666  16.867  0.00  0.00    +0.000 A 
ATOM      6  C   UNL     1       4.823   4.484  17.556  0.00  0.00    +0.000 A 
ATOM      7  C   UNL     1       3.900   4.449  18.608  0.00  0.00    +0.000 A 
ATOM      8  C   UNL     1       3.270   5.644  18.976  0.00  0.00    +0.000 A 
ATOM      9  N   UNL     1       2.362   6.003  19.954  0.00  0.00    +0.000 N 
ENDROOT
BRANCH   5  10
ATOM     10  C   UNL     1       6.079   5.608  15.762  0.00  0.00    +0.000 C 
ATOM     11  C   UNL     1       5.974   4.763  14.727  0.00  0.00    +0.000 C 
BRANCH  11  12
ATOM     12  C   UNL     1       6.980   4.786  13.640  0.00  0.00    +0.000 C 
ATOM     13  O   UNL     1       6.913   4.090  12.633  0.00  0.00    +0.000 OA
ATOM     14  N   UNL     1       7.999   5.668  13.873  0.00  0.00    +0.000 N 
ATOM     15  H   UNL     1       8.081   6.282  14.674  0.00  0.00    +0.000 HD
BRANCH  14  16
ATOM     16  O   UNL     1       8.994   5.770  12.877  0.00  0.00    +0.000 OA
ATOM     17  H   UNL     1       9.614   6.422  13.268  0.00  0.00    +0.000 HD
ENDBRANCH  14  16
ENDBRANCH  11  12
ENDBRANCH   5  10
BRANCH   1  18
ATOM     18  C   UNL     1       1.046   8.116  20.563  0.00  0.00    +0.000 C 
BRANCH  18  19
ATOM     19  C   UNL     1       0.815   9.511  19.977  0.00  0.00    +0.000 C 
BRANCH  19  21
ATOM     20  C   UNL     1       0.030   9.862  22.345  0.00  0.00    +0.000 C 
ATOM     21  C   UNL     1       0.501  10.537  21.067  0.00  0.00    +0.000 C 
ENDBRANCH  19  21
ENDBRANCH  18  19
ENDBRANCH   1  18
BRANCH   9  22
ATOM     22  C   UNL     1       1.728   5.158  20.949  0.00  0.00    +0.000 C 
BRANCH  22  23
ATOM     23  C   UNL     1       0.770   4.052  20.494  0.00  0.00    +0.000 C 
BRANCH  23  24
ATOM     24  C   UNL     1       1.291   2.611  20.650  0.00  0.00    +0.000 C 
ATOM     25  C   UNL     1       1.600   1.970  19.299  0.00  0.00    +0.000 C 
ATOM     26  C   UNL     1       2.544   2.611  21.529  0.00  0.00    +0.000 C 
ENDBRANCH  23  24
ENDBRANCH  22  23
ENDBRANCH   9  22
TORSDOF 9
ENDMDL
MODEL 8
REMARK VINA RESULT:      -7.2      1.401      4.553
REMARK  Name = 
REMARK  12 active torsions:
REMARK  status: ('A' for Active; 'I' for Inactive)
REMARK    1  A    between atoms: C_1  and  C_2
REMARK    2  A    between atoms: C_2  and  C_3
REMARK    3  A    between atoms: C_3  and  C_4
REMARK    4  A    between atoms: C_4  and  C_5
REMARK    5  A    between atoms: C_9  and  C_10
REMARK    6  A    between atoms: C_11  and  C_12
REMARK    7  A    between atoms: N_14  and  O_15
REMARK    8  A    between atoms: N_19  and  C_20
REMARK    9  A    between atoms: C_20  and  C_21
REMARK   10  A    between atoms: C_21  and  C_22
REMARK   11  A    between atoms: C_22  and  C_23
REMARK   12  A    between atoms: C_22  and  C_24
REMARK                            x       y       z     vdW  Elec       q    Type
REMARK                         _______ _______ _______ _____ _____    ______ ____
ROOT
ATOM      1  C   UNL     1       2.124   7.393  19.802  0.00  0.00    +0.000 A 
ATOM      2  N   UNL     1       2.721   7.914  18.749  0.00  0.00    +0.000 NA
ATOM      3  C   UNL     1       3.361   6.877  18.127  0.00  0.00    +0.000 A 
ATOM      4  C   UNL     1       4.124   6.897  16.947  0.00  0.00    +0.000 A 
ATOM      5  C   UNL     1       4.706   5.710  16.475  0.00  0.00    +0.000 A 
ATOM      6  C   UNL     1       4.471   4.516  17.164  0.00  0.00    +0.000 A 
ATOM      7  C   UNL     1       3.693   4.477  18.327  0.00  0.00    +0.000 A 
ATOM      8  C   UNL     1       3.157   5.678  18.807  0.00  0.00    +0.000 A 
ATOM      9  N   UNL     1       2.398   6.034  19.905  0.00  0.00    +0.000 N 
ENDROOT
BRANCH   5  10
ATOM     10  C   UNL     1       5.519   5.656  15.251  0.00  0.00    +0.000 C 
ATOM     11  C   UNL     1       6.324   4.631  14.939  0.00  0.00    +0.000 C 
BRANCH  11  12
ATOM     12  C   UNL     1       7.091   4.643  13.672  0.00  0.00    +0.000 C 
ATOM     13  O   UNL     1       7.988   5.441  13.424  0.00  0.00    +0.000 OA
ATOM     14  N   UNL     1       6.696   3.667  12.798  0.00  0.00    +0.000 N 
ATOM     15  H   UNL     1       5.982   2.970  12.971  0.00  0.00    +0.000 HD
BRANCH  14  16
ATOM     16  O   UNL     1       7.389   3.592  11.571  0.00  0.00    +0.000 OA
ATOM     17  H   UNL     1       6.958   2.826  11.135  0.00  0.00    +0.000 HD
ENDBRANCH  14  16
ENDBRANCH  11  12
ENDBRANCH   5  10
BRANCH   1  18
ATOM     18  C   UNL     1       1.244   8.166  20.737  0.00  0.00    +0.000 C 
BRANCH  18  19
ATOM     19  C   UNL     1       0.898   9.545  20.173  0.00  0.00    +0.000 C 
BRANCH  19  21
ATOM     20  C   UNL     1      -0.778  11.426  20.144  0.00  0.00    +0.000 C 
ATOM     21  C   UNL     1      -0.420  10.075  20.741  0.00  0.00    +0.000 C 
ENDBRANCH  19  21
ENDBRANCH  18  19
ENDBRANCH   1  18
BRANCH   9  22
ATOM     22  C   UNL     1       1.871   5.178  20.952  0.00  0.00    +0.000 C 
BRANCH  22  23
ATOM     23  C   UNL     1       0.829   4.111  20.596  0.00  0.00    +0.000 C 
BRANCH  23  24
ATOM     24  C   UNL     1       1.303   2.650  20.710  0.00  0.00    +0.000 C 
ATOM     25  C   UNL     1       1.513   2.013  19.338  0.00  0.00    +0.000 C 
ATOM     26  C   UNL     1       2.602   2.594  21.518  0.00  0.00    +0.000 C 
ENDBRANCH  23  24
ENDBRANCH  22  23
ENDBRANCH   9  22
TORSDOF 9
ENDMDL
MODEL 9
REMARK VINA RESULT:      -7.2      5.581      8.328
REMARK  Name = 
REMARK  12 active torsions:
REMARK  status: ('A' for Active; 'I' for Inactive)
REMARK    1  A    between atoms: C_1  and  C_2
REMARK    2  A    between atoms: C_2  and  C_3
REMARK    3  A    between atoms: C_3  and  C_4
REMARK    4  A    between atoms: C_4  and  C_5
REMARK    5  A    between atoms: C_9  and  C_10
REMARK    6  A    between atoms: C_11  and  C_12
REMARK    7  A    between atoms: N_14  and  O_15
REMARK    8  A    between atoms: N_19  and  C_20
REMARK    9  A    between atoms: C_20  and  C_21
REMARK   10  A    between atoms: C_21  and  C_22
REMARK   11  A    between atoms: C_22  and  C_23
REMARK   12  A    between atoms: C_22  and  C_24
REMARK                            x       y       z     vdW  Elec       q    Type
REMARK                         _______ _______ _______ _____ _____    ______ ____
ROOT
ATOM      1  C   UNL     1       3.620   4.987  19.108  0.00  0.00    +0.000 A 
ATOM      2  N   UNL     1       2.867   5.473  20.075  0.00  0.00    +0.000 NA
ATOM      3  C   UNL     1       2.453   6.705  19.649  0.00  0.00    +0.000 A 
ATOM      4  C   UNL     1       1.613   7.625  20.301  0.00  0.00    +0.000 A 
ATOM      5  C   UNL     1       1.313   8.850  19.685  0.00  0.00    +0.000 A 
ATOM      6  C   UNL     1       1.818   9.112  18.408  0.00  0.00    +0.000 A 
ATOM      7  C   UNL     1       2.635   8.195  17.736  0.00  0.00    +0.000 A 
ATOM      8  C   UNL     1       2.959   6.997  18.384  0.00  0.00    +0.000 A 
ATOM      9  N   UNL     1       3.742   5.903  18.070  0.00  0.00    +0.000 N 
ENDROOT
BRANCH   5  10
ATOM     10  C   UNL     1       0.446   9.860  20.309  0.00  0.00    +0.000 C 
ATOM     11  C   UNL     1       0.289   9.987  21.635  0.00  0.00    +0.000 C 
BRANCH  11  12
ATOM     12  C   UNL     1      -0.584  11.049  22.184  0.00  0.00    +0.000 C 
ATOM     13  O   UNL     1      -0.905  11.127  23.365  0.00  0.00    +0.000 OA
ATOM     14  N   UNL     1      -1.002  11.943  21.236  0.00  0.00    +0.000 N 
ATOM     15  H   UNL     1      -0.740  11.935  20.258  0.00  0.00    +0.000 HD
BRANCH  14  16
ATOM     16  O   UNL     1      -1.823  13.002  21.677  0.00  0.00    +0.000 OA
ATOM     17  H   UNL     1      -2.537  13.006  21.003  0.00  0.00    +0.000 HD
ENDBRANCH  14  16
ENDBRANCH  11  12
ENDBRANCH   5  10
BRANCH   1  18
ATOM     18  C   UNL     1       4.229   3.619  19.125  0.00  0.00    +0.000 C 
BRANCH  18  19
ATOM     19  C   UNL     1       3.392   2.619  18.325  0.00  0.00    +0.000 C 
BRANCH  19  21
ATOM     20  C   UNL     1       0.913   2.485  18.756  0.00  0.00    +0.000 C 
ATOM     21  C   UNL     1       2.289   1.994  19.180  0.00  0.00    +0.000 C 
ENDBRANCH  19  21
ENDBRANCH  18  19
ENDBRANCH   1  18
BRANCH   9  22
ATOM     22  C   UNL     1       4.497   5.654  16.856  0.00  0.00    +0.000 C 
BRANCH  22  23
ATOM     23  C   UNL     1       5.783   6.447  16.595  0.00  0.00    +0.000 C 
BRANCH  23  24
ATOM     24  C   UNL     1       6.752   6.559  17.786  0.00  0.00    +0.000 C 
ATOM     25  C   UNL     1       7.556   5.276  17.987  0.00  0.00    +0.000 C 
ATOM     26  C   UNL     1       7.699   7.742  17.567  0.00  0.00    +0.000 C 
ENDBRANCH  23  24
ENDBRANCH  22  23
ENDBRANCH   9  22
TORSDOF 9
ENDMDL
