MODEL 1
REMARK VINA RESULT:      -8.9      0.000      0.000
REMARK  Name = 
REMARK  11 active torsions:
REMARK  status: ('A' for Active; 'I' for Inactive)
REMARK    1  A    between atoms: C_1  and  C_2
REMARK    2  A    between atoms: C_2  and  C_3
REMARK    3  A    between atoms: C_6  and  C_7
REMARK    4  A    between atoms: C_8  and  C_9
REMARK    5  A    between atoms: C_9  and  O_11
REMARK    6  A    between atoms: O_11  and  C_12
REMARK    7  A    between atoms: C_15  and  N_16
REMARK    8  A    between atoms: N_16  and  C_17
REMARK    9  A    between atoms: N_16  and  S_18
REMARK   10  A    between atoms: S_18  and  C_21
REMARK   11  A    between atoms: C_24  and  C_25
REMARK                            x       y       z     vdW  Elec       q    Type
REMARK                         _______ _______ _______ _____ _____    ______ ____
ROOT
ATOM      1  C   UNL     1       3.342   5.976  18.354  0.00  0.00    +0.000 A 
ATOM      2  C   UNL     1       3.161   7.140  17.605  0.00  0.00    +0.000 A 
ATOM      3  C   UNL     1       2.436   8.207  18.153  0.00  0.00    +0.000 A 
ATOM      4  C   UNL     1       1.886   8.095  19.433  0.00  0.00    +0.000 A 
ATOM      5  C   UNL     1       2.062   6.920  20.167  0.00  0.00    +0.000 A 
ATOM      6  C   UNL     1       2.781   5.858  19.628  0.00  0.00    +0.000 A 
ENDROOT
BRANCH   4   7
ATOM      7  N   UNL     1       1.126   9.140  20.041  0.00  0.00    +0.000 N 
ATOM      8  C   UNL     1       0.904   9.091  21.491  0.00  0.00    +0.000 C 
BRANCH   7   9
ATOM      9  S   UNL     1       1.094  10.664  19.286  0.00  0.00    +0.000 S 
ATOM     10  O   UNL     1       1.273  11.701  20.282  0.00  0.00    +0.000 OA
ATOM     11  O   UNL     1       1.965  10.599  18.129  0.00  0.00    +0.000 OA
BRANCH   9  12
ATOM     12  C   UNL     1      -0.573  10.806  18.666  0.00  0.00    +0.000 A 
ATOM     13  C   UNL     1      -1.025   9.925  17.681  0.00  0.00    +0.000 A 
ATOM     14  C   UNL     1      -2.351   9.998  17.247  0.00  0.00    +0.000 A 
ATOM     15  C   UNL     1      -3.233  10.934  17.805  0.00  0.00    +0.000 A 
ATOM     16  C   UNL     1      -4.666  11.003  17.362  0.00  0.00    +0.000 C 
ATOM     17  C   UNL     1      -2.774  11.795  18.809  0.00  0.00    +0.000 A 
ATOM     18  C   UNL     1      -1.450  11.727  19.247  0.00  0.00    +0.000 A 
ENDBRANCH   9  12
ENDBRANCH   7   9
ENDBRANCH   4   7
BRANCH   1  19
ATOM     19  O   UNL     1       3.991   4.883  17.751  0.00  0.00    +0.000 OA
BRANCH  19  20
ATOM     20  C   UNL     1       5.336   4.701  18.088  0.00  0.00    +0.000 C 
ATOM     21  O   UNL     1       5.719   4.110  19.092  0.00  0.00    +0.000 OA
BRANCH  20  27
ATOM     22  C   UNL     1       6.326   4.911  15.715  0.00  0.00    +0.000 A 
ATOM     23  N   UNL     1       7.288   5.606  15.097  0.00  0.00    +0.000 NA
ATOM     24  O   UNL     1       7.845   6.415  16.063  0.00  0.00    +0.000 OA
ATOM     25  C   UNL     1       7.223   6.209  17.253  0.00  0.00    +0.000 A 
ATOM     26  C   UNL     1       7.699   7.054  18.365  0.00  0.00    +0.000 C 
ATOM     27  C   UNL     1       6.256   5.234  17.102  0.00  0.00    +0.000 A 
BRANCH  22  29
ATOM     28  C   UNL     1       5.972   3.823  13.491  0.00  0.00    +0.000 C 
ATOM     29  C   UNL     1       5.465   3.986  14.919  0.00  0.00    +0.000 C 
ENDBRANCH  22  29
ENDBRANCH  20  27
ENDBRANCH  19  20
ENDBRANCH   1  19
TORSDOF 7
ENDMDL
MODEL 2
REMARK VINA RESULT:      -8.7      0.486      2.152
REMARK  Name = 
REMARK  11 active torsions:
REMARK  status: ('A' for Active; 'I' for Inactive)
REMARK    1  A    between atoms: C_1  and  C_2
REMARK    2  A    between atoms: C_2  and  C_3
REMARK    3  A    between atoms: C_6  and  C_7
REMARK    4  A    between atoms: C_8  and  C_9
REMARK    5  A    between atoms: C_9  and  O_11
REMARK    6  A    between atoms: O_11  and  C_12
REMARK    7  A    between atoms: C_15  and  N_16
REMARK    8  A    between atoms: N_16  and  C_17
REMARK    9  A    between atoms: N_16  and  S_18
REMARK   10  A    between atoms: S_18  and  C_21
REMARK   11  A    between atoms: C_24  and  C_25
REMARK                            x       y       z     vdW  Elec       q    Type
REMARK                         _______ _______ _______ _____ _____    ______ ____
ROOT
ATOM      1  C   UNL     1       3.327   5.897  18.454  0.00  0.00    +0.000 A 
ATOM      2  C   UNL     1       3.126   7.048  17.691  0.00  0.00    +0.000 A 
ATOM      3  C   UNL     1       2.407   8.120  18.237  0.00  0.00    +0.000 A 
ATOM      4  C   UNL     1       1.884   8.026  19.530  0.00  0.00    +0.000 A 
ATOM      5  C   UNL     1       2.079   6.863  20.278  0.00  0.00    +0.000 A 
ATOM      6  C   UNL     1       2.793   5.795  19.741  0.00  0.00    +0.000 A 
ENDROOT
BRANCH   4   7
ATOM      7  N   UNL     1       1.131   9.077  20.137  0.00  0.00    +0.000 N 
ATOM      8  C   UNL     1       0.953   9.058  21.594  0.00  0.00    +0.000 C 
BRANCH   7   9
ATOM      9  S   UNL     1       1.061  10.583  19.350  0.00  0.00    +0.000 S 
ATOM     10  O   UNL     1       1.234  11.645  20.320  0.00  0.00    +0.000 OA
ATOM     11  O   UNL     1       1.919  10.508  18.183  0.00  0.00    +0.000 OA
BRANCH   9  12
ATOM     12  C   UNL     1      -0.616  10.680  18.749  0.00  0.00    +0.000 A 
ATOM     13  C   UNL     1      -1.490  11.631  19.281  0.00  0.00    +0.000 A 
ATOM     14  C   UNL     1      -2.782  11.748  18.761  0.00  0.00    +0.000 A 
ATOM     15  C   UNL     1      -3.200  10.931  17.701  0.00  0.00    +0.000 A 
ATOM     16  C   UNL     1      -4.578  11.066  17.120  0.00  0.00    +0.000 C 
ATOM     17  C   UNL     1      -2.306   9.997  17.161  0.00  0.00    +0.000 A 
ATOM     18  C   UNL     1      -1.014   9.876  17.677  0.00  0.00    +0.000 A 
ENDBRANCH   9  12
ENDBRANCH   7   9
ENDBRANCH   4   7
BRANCH   1  19
ATOM     19  O   UNL     1       3.969   4.798  17.855  0.00  0.00    +0.000 OA
BRANCH  19  20
ATOM     20  C   UNL     1       5.332   4.654  18.128  0.00  0.00    +0.000 C 
ATOM     21  O   UNL     1       5.779   4.134  19.146  0.00  0.00    +0.000 OA
BRANCH  20  27
ATOM     22  C   UNL     1       7.158   6.179  17.129  0.00  0.00    +0.000 A 
ATOM     23  N   UNL     1       7.782   6.346  15.957  0.00  0.00    +0.000 NA
ATOM     24  O   UNL     1       7.252   5.396  15.111  0.00  0.00    +0.000 OA
ATOM     25  C   UNL     1       6.317   4.662  15.769  0.00  0.00    +0.000 A 
ATOM     26  C   UNL     1       5.704   3.574  14.983  0.00  0.00    +0.000 C 
ATOM     27  C   UNL     1       6.189   5.134  17.062  0.00  0.00    +0.000 A 
BRANCH  22  29
ATOM     28  C   UNL     1       8.021   8.403  17.877  0.00  0.00    +0.000 C 
ATOM     29  C   UNL     1       7.563   7.013  18.300  0.00  0.00    +0.000 C 
ENDBRANCH  22  29
ENDBRANCH  20  27
ENDBRANCH  19  20
ENDBRANCH   1  19
TORSDOF 7
ENDMDL
MODEL 3
REMARK VINA RESULT:      -8.7      2.836      4.379
REMARK  Name = 
REMARK  11 active torsions:
REMARK  status: ('A' for Active; 'I' for Inactive)
REMARK    1  A    between atoms: C_1  and  C_2
REMARK    2  A    between atoms: C_2  and  C_3
REMARK    3  A    between atoms: C_6  and  C_7
REMARK    4  A    between atoms: C_8  and  C_9
REMARK    5  A    between atoms: C_9  and  O_11
REMARK    6  A    between atoms: O_11  and  C_12
REMARK    7  A    between atoms: C_15  and  N_16
REMARK    8  A    between atoms: N_16  and  C_17
REMARK    9  A    between atoms: N_16  and  S_18
REMARK   10  A    between atoms: S_18  and  C_21
REMARK   11  A    between atoms: C_24  and  C_25
REMARK                            x       y       z     vdW  Elec       q    Type
REMARK                         _______ _______ _______ _____ _____    ______ ____
ROOT
ATOM      1  C   UNL     1       2.465   7.518  18.551  0.00  0.00    +0.000 A 
ATOM      2  C   UNL     1       1.961   7.645  19.846  0.00  0.00    +0.000 A 
ATOM      3  C   UNL     1       1.335   8.839  20.228  0.00  0.00    +0.000 A 
ATOM      4  C   UNL     1       1.232   9.897  19.320  0.00  0.00    +0.000 A 
ATOM      5  C   UNL     1       1.753   9.763  18.032  0.00  0.00    +0.000 A 
ATOM      6  C   UNL     1       2.376   8.579  17.647  0.00  0.00    +0.000 A 
ENDROOT
BRANCH   4   7
ATOM      7  N   UNL     1       0.619  11.143  19.653  0.00  0.00    +0.000 N 
ATOM      8  C   UNL     1       1.479  12.319  19.835  0.00  0.00    +0.000 C 
BRANCH   7   9
ATOM      9  S   UNL     1      -0.992  11.407  19.177  0.00  0.00    +0.000 S 
ATOM     10  O   UNL     1      -1.054  12.551  18.290  0.00  0.00    +0.000 OA
ATOM     11  O   UNL     1      -1.543  10.130  18.767  0.00  0.00    +0.000 OA
BRANCH   9  12
ATOM     12  C   UNL     1      -1.822  11.863  20.689  0.00  0.00    +0.000 A 
ATOM     13  C   UNL     1      -3.038  12.547  20.635  0.00  0.00    +0.000 A 
ATOM     14  C   UNL     1      -3.716  12.843  21.820  0.00  0.00    +0.000 A 
ATOM     15  C   UNL     1      -3.194  12.444  23.059  0.00  0.00    +0.000 A 
ATOM     16  C   UNL     1      -3.928  12.737  24.336  0.00  0.00    +0.000 C 
ATOM     17  C   UNL     1      -1.985  11.739  23.097  0.00  0.00    +0.000 A 
ATOM     18  C   UNL     1      -1.303  11.440  21.917  0.00  0.00    +0.000 A 
ENDBRANCH   9  12
ENDBRANCH   7   9
ENDBRANCH   4   7
BRANCH   1  19
ATOM     19  O   UNL     1       3.172   6.348  18.217  0.00  0.00    +0.000 OA
BRANCH  19  20
ATOM     20  C   UNL     1       2.453   5.151  18.281  0.00  0.00    +0.000 C 
ATOM     21  O   UNL     1       1.404   4.946  17.678  0.00  0.00    +0.000 OA
BRANCH  20  27
ATOM     22  C   UNL     1       4.462   3.738  19.070  0.00  0.00    +0.000 A 
ATOM     23  N   UNL     1       4.711   2.780  19.971  0.00  0.00    +0.000 NA
ATOM     24  O   UNL     1       3.516   2.555  20.619  0.00  0.00    +0.000 OA
ATOM     25  C   UNL     1       2.555   3.371  20.113  0.00  0.00    +0.000 A 
ATOM     26  C   UNL     1       1.232   3.260  20.757  0.00  0.00    +0.000 C 
ATOM     27  C   UNL     1       3.092   4.136  19.095  0.00  0.00    +0.000 A 
BRANCH  22  29
ATOM     28  C   UNL     1       6.417   5.295  19.010  0.00  0.00    +0.000 C 
ATOM     29  C   UNL     1       5.583   4.275  18.243  0.00  0.00    +0.000 C 
ENDBRANCH  22  29
ENDBRANCH  20  27
ENDBRANCH  19  20
ENDBRANCH   1  19
TORSDOF 7
ENDMDL
MODEL 4
REMARK VINA RESULT:      -8.6      0.769      2.406
REMARK  Name = 
REMARK  11 active torsions:
REMARK  status: ('A' for Active; 'I' for Inactive)
REMARK    1  A    between atoms: C_1  and  C_2
REMARK    2  A    between atoms: C_2  and  C_3
REMARK    3  A    between atoms: C_6  and  C_7
REMARK    4  A    between atoms: C_8  and  C_9
REMARK    5  A    between atoms: C_9  and  O_11
REMARK    6  A    between atoms: O_11  and  C_12
REMARK    7  A    between atoms: C_15  and  N_16
REMARK    8  A    between atoms: N_16  and  C_17
REMARK    9  A    between atoms: N_16  and  S_18
REMARK   10  A    between atoms: S_18  and  C_21
REMARK   11  A    between atoms: C_24  and  C_25
REMARK                            x       y       z     vdW  Elec       q    Type
REMARK                         _______ _______ _______ _____ _____    ______ ____
ROOT
ATOM      1  C   UNL     1       3.520   5.644  18.783  0.00  0.00    +0.000 A 
ATOM      2  C   UNL     1       2.781   5.600  19.966  0.00  0.00    +0.000 A 
ATOM      3  C   UNL     1       1.980   6.694  20.320  0.00  0.00    +0.000 A 
ATOM      4  C   UNL     1       1.936   7.824  19.498  0.00  0.00    +0.000 A 
ATOM      5  C   UNL     1       2.691   7.862  18.324  0.00  0.00    +0.000 A 
ATOM      6  C   UNL     1       3.488   6.778  17.968  0.00  0.00    +0.000 A 
ENDROOT
BRANCH   4   7
ATOM      7  N   UNL     1       1.151   8.975  19.810  0.00  0.00    +0.000 N 
ATOM      8  C   UNL     1       0.930   9.308  21.223  0.00  0.00    +0.000 C 
BRANCH   7   9
ATOM      9  S   UNL     1       1.084  10.242  18.678  0.00  0.00    +0.000 S 
ATOM     10  O   UNL     1       1.609  11.453  19.275  0.00  0.00    +0.000 OA
ATOM     11  O   UNL     1       1.626   9.744  17.429  0.00  0.00    +0.000 OA
BRANCH   9  12
ATOM     12  C   UNL     1      -0.663  10.496  18.415  0.00  0.00    +0.000 A 
ATOM     13  C   UNL     1      -1.332  11.501  19.115  0.00  0.00    +0.000 A 
ATOM     14  C   UNL     1      -2.684  11.739  18.856  0.00  0.00    +0.000 A 
ATOM     15  C   UNL     1      -3.367  10.989  17.889  0.00  0.00    +0.000 A 
ATOM     16  C   UNL     1      -4.814  11.253  17.587  0.00  0.00    +0.000 C 
ATOM     17  C   UNL     1      -2.678   9.998  17.177  0.00  0.00    +0.000 A 
ATOM     18  C   UNL     1      -1.327   9.756  17.431  0.00  0.00    +0.000 A 
ENDBRANCH   9  12
ENDBRANCH   7   9
ENDBRANCH   4   7
BRANCH   1  19
ATOM     19  O   UNL     1       4.390   4.577  18.493  0.00  0.00    +0.000 OA
BRANCH  19  20
ATOM     20  C   UNL     1       5.753   4.822  18.680  0.00  0.00    +0.000 C 
ATOM     21  O   UNL     1       6.348   4.634  19.736  0.00  0.00    +0.000 OA
BRANCH  20  27
ATOM     22  C   UNL     1       7.347   6.361  17.358  0.00  0.00    +0.000 A 
ATOM     23  N   UNL     1       7.791   6.489  16.102  0.00  0.00    +0.000 NA
ATOM     24  O   UNL     1       7.192   5.475  15.387  0.00  0.00    +0.000 OA
ATOM     25  C   UNL     1       6.394   4.742  16.206  0.00  0.00    +0.000 A 
ATOM     26  C   UNL     1       5.728   3.590  15.569  0.00  0.00    +0.000 C 
ATOM     27  C   UNL     1       6.428   5.277  17.480  0.00  0.00    +0.000 A 
BRANCH  22  29
ATOM     28  C   UNL     1       8.108   8.683  17.890  0.00  0.00    +0.000 C 
ATOM     29  C   UNL     1       7.874   7.273  18.417  0.00  0.00    +0.000 C 
ENDBRANCH  22  29
ENDBRANCH  20  27
ENDBRANCH  19  20
ENDBRANCH   1  19
TORSDOF 7
ENDMDL
MODEL 5
REMARK VINA RESULT:      -8.5      3.312      8.293
REMARK  Name = 
REMARK  11 active torsions:
REMARK  status: ('A' for Active; 'I' for Inactive)
REMARK    1  A    between atoms: C_1  and  C_2
REMARK    2  A    between atoms: C_2  and  C_3
REMARK    3  A    between atoms: C_6  and  C_7
REMARK    4  A    between atoms: C_8  and  C_9
REMARK    5  A    between atoms: C_9  and  O_11
REMARK    6  A    between atoms: O_11  and  C_12
REMARK    7  A    between atoms: C_15  and  N_16
REMARK    8  A    between atoms: N_16  and  C_17
REMARK    9  A    between atoms: N_16  and  S_18
REMARK   10  A    between atoms: S_18  and  C_21
REMARK   11  A    between atoms: C_24  and  C_25
REMARK                            x       y       z     vdW  Elec       q    Type
REMARK                         _______ _______ _______ _____ _____    ______ ____
ROOT
ATOM      1  C   UNL     1       2.151   7.761  18.681  0.00  0.00    +0.000 A 
ATOM      2  C   UNL     1       2.159   6.858  17.617  0.00  0.00    +0.000 A 
ATOM      3  C   UNL     1       2.196   5.482  17.880  0.00  0.00    +0.000 A 
ATOM      4  C   UNL     1       2.241   5.024  19.200  0.00  0.00    +0.000 A 
ATOM      5  C   UNL     1       2.247   5.937  20.256  0.00  0.00    +0.000 A 
ATOM      6  C   UNL     1       2.210   7.305  20.000  0.00  0.00    +0.000 A 
ENDROOT
BRANCH   4   7
ATOM      7  N   UNL     1       2.294   3.636  19.533  0.00  0.00    +0.000 N 
ATOM      8  C   UNL     1       1.032   2.927  19.777  0.00  0.00    +0.000 C 
BRANCH   7   9
ATOM      9  S   UNL     1       3.623   2.723  18.993  0.00  0.00    +0.000 S 
ATOM     10  O   UNL     1       4.198   1.999  20.108  0.00  0.00    +0.000 OA
ATOM     11  O   UNL     1       3.214   2.019  17.793  0.00  0.00    +0.000 OA
BRANCH   9  12
ATOM     12  C   UNL     1       4.815   3.951  18.487  0.00  0.00    +0.000 A 
ATOM     13  C   UNL     1       4.992   4.229  17.130  0.00  0.00    +0.000 A 
ATOM     14  C   UNL     1       5.877   5.238  16.742  0.00  0.00    +0.000 A 
ATOM     15  C   UNL     1       6.574   5.982  17.704  0.00  0.00    +0.000 A 
ATOM     16  C   UNL     1       7.510   7.084  17.298  0.00  0.00    +0.000 C 
ATOM     17  C   UNL     1       6.370   5.709  19.063  0.00  0.00    +0.000 A 
ATOM     18  C   UNL     1       5.487   4.702  19.456  0.00  0.00    +0.000 A 
ENDBRANCH   9  12
ENDBRANCH   7   9
ENDBRANCH   4   7
BRANCH   1  19
ATOM     19  O   UNL     1       2.209   9.138  18.395  0.00  0.00    +0.000 OA
BRANCH  19  20
ATOM     20  C   UNL     1       1.001   9.837  18.476  0.00  0.00    +0.000 C 
ATOM     21  O   UNL     1       0.008   9.574  17.807  0.00  0.00    +0.000 OA
BRANCH  20  27
ATOM     22  C   UNL     1       0.456  10.837  20.792  0.00  0.00    +0.000 A 
ATOM     23  N   UNL     1       0.657  11.983  21.451  0.00  0.00    +0.000 NA
ATOM     24  O   UNL     1       1.366  12.792  20.591  0.00  0.00    +0.000 OA
ATOM     25  C   UNL     1       1.591  12.138  19.422  0.00  0.00    +0.000 A 
ATOM     26  C   UNL     1       2.386  12.884  18.427  0.00  0.00    +0.000 C 
ATOM     27  C   UNL     1       1.007  10.887  19.477  0.00  0.00    +0.000 A 
BRANCH  22  29
ATOM     28  C   UNL     1       0.450   9.355  22.805  0.00  0.00    +0.000 C 
ATOM     29  C   UNL     1      -0.225   9.703  21.484  0.00  0.00    +0.000 C 
ENDBRANCH  22  29
ENDBRANCH  20  27
ENDBRANCH  19  20
ENDBRANCH   1  19
TORSDOF 7
ENDMDL
MODEL 6
REMARK VINA RESULT:      -8.5      2.888      4.449
REMARK  Name = 
REMARK  11 active torsions:
REMARK  status: ('A' for Active; 'I' for Inactive)
REMARK    1  A    between atoms: C_1  and  C_2
REMARK    2  A    between atoms: C_2  and  C_3
REMARK    3  A    between atoms: C_6  and  C_7
REMARK    4  A    between atoms: C_8  and  C_9
REMARK    5  A    between atoms: C_9  and  O_11
REMARK    6  A    between atoms: O_11  and  C_12
REMARK    7  A    between atoms: C_15  and  N_16
REMARK    8  A    between atoms: N_16  and  C_17
REMARK    9  A    between atoms: N_16  and  S_18
REMARK   10  A    between atoms: S_18  and  C_21
REMARK   11  A    between atoms: C_24  and  C_25
REMARK                            x       y       z     vdW  Elec       q    Type
REMARK                         _______ _______ _______ _____ _____    ______ ____
ROOT
ATOM      1  C   UNL     1       2.549   7.581  18.479  0.00  0.00    +0.000 A 
ATOM      2  C   UNL     1       2.037   7.656  19.775  0.00  0.00    +0.000 A 
ATOM      3  C   UNL     1       1.381   8.822  20.191  0.00  0.00    +0.000 A 
ATOM      4  C   UNL     1       1.257   9.905  19.315  0.00  0.00    +0.000 A 
ATOM      5  C   UNL     1       1.786   9.823  18.026  0.00  0.00    +0.000 A 
ATOM      6  C   UNL     1       2.438   8.667  17.607  0.00  0.00    +0.000 A 
ENDROOT
BRANCH   4   7
ATOM      7  N   UNL     1       0.612  11.125  19.683  0.00  0.00    +0.000 N 
ATOM      8  C   UNL     1       1.443  12.315  19.906  0.00  0.00    +0.000 C 
BRANCH   7   9
ATOM      9  S   UNL     1      -1.003  11.364  19.207  0.00  0.00    +0.000 S 
ATOM     10  O   UNL     1      -1.078  12.488  18.296  0.00  0.00    +0.000 OA
ATOM     11  O   UNL     1      -1.545  10.074  18.828  0.00  0.00    +0.000 OA
BRANCH   9  12
ATOM     12  C   UNL     1      -1.831  11.846  20.713  0.00  0.00    +0.000 A 
ATOM     13  C   UNL     1      -3.020  12.575  20.648  0.00  0.00    +0.000 A 
ATOM     14  C   UNL     1      -3.700  12.892  21.827  0.00  0.00    +0.000 A 
ATOM     15  C   UNL     1      -3.206  12.470  23.070  0.00  0.00    +0.000 A 
ATOM     16  C   UNL     1      -3.942  12.785  24.340  0.00  0.00    +0.000 C 
ATOM     17  C   UNL     1      -2.024  11.719  23.119  0.00  0.00    +0.000 A 
ATOM     18  C   UNL     1      -1.341  11.400  21.944  0.00  0.00    +0.000 A 
ENDBRANCH   9  12
ENDBRANCH   7   9
ENDBRANCH   4   7
BRANCH   1  19
ATOM     19  O   UNL     1       3.286   6.439  18.113  0.00  0.00    +0.000 OA
BRANCH  19  20
ATOM     20  C   UNL     1       2.623   5.214  18.223  0.00  0.00    +0.000 C 
ATOM     21  O   UNL     1       1.525   4.979  17.727  0.00  0.00    +0.000 OA
BRANCH  20  27
ATOM     22  C   UNL     1       2.878   3.212  19.830  0.00  0.00    +0.000 A 
ATOM     23  N   UNL     1       3.861   2.438  20.305  0.00  0.00    +0.000 NA
ATOM     24  O   UNL     1       5.019   2.897  19.716  0.00  0.00    +0.000 OA
ATOM     25  C   UNL     1       4.735   3.939  18.892  0.00  0.00    +0.000 A 
ATOM     26  C   UNL     1       5.890   4.494  18.160  0.00  0.00    +0.000 C 
ATOM     27  C   UNL     1       3.381   4.209  18.942  0.00  0.00    +0.000 A 
BRANCH  22  29
ATOM     28  C   UNL     1       1.321   2.703  21.719  0.00  0.00    +0.000 C 
ATOM     29  C   UNL     1       1.465   2.922  20.218  0.00  0.00    +0.000 C 
ENDBRANCH  22  29
ENDBRANCH  20  27
ENDBRANCH  19  20
ENDBRANCH   1  19
TORSDOF 7
ENDMDL
MODEL 7
REMARK VINA RESULT:      -8.5      2.705      4.334
REMARK  Name = 
REMARK  11 active torsions:
REMARK  status: ('A' for Active; 'I' for Inactive)
REMARK    1  A    between atoms: C_1  and  C_2
REMARK    2  A    between atoms: C_2  and  C_3
REMARK    3  A    between atoms: C_6  and  C_7
REMARK    4  A    between atoms: C_8  and  C_9
REMARK    5  A    between atoms: C_9  and  O_11
REMARK    6  A    between atoms: O_11  and  C_12
REMARK    7  A    between atoms: C_15  and  N_16
REMARK    8  A    between atoms: N_16  and  C_17
REMARK    9  A    between atoms: N_16  and  S_18
REMARK   10  A    between atoms: S_18  and  C_21
REMARK   11  A    between atoms: C_24  and  C_25
REMARK                            x       y       z     vdW  Elec       q    Type
REMARK                         _______ _______ _______ _____ _____    ______ ____
ROOT
ATOM      1  C   UNL     1       2.291   7.663  19.419  0.00  0.00    +0.000 A 
ATOM      2  C   UNL     1       2.299   8.293  18.173  0.00  0.00    +0.000 A 
ATOM      3  C   UNL     1       1.429   9.366  17.938  0.00  0.00    +0.000 A 
ATOM      4  C   UNL     1       0.551   9.788  18.941  0.00  0.00    +0.000 A 
ATOM      5  C   UNL     1       0.542   9.140  20.177  0.00  0.00    +0.000 A 
ATOM      6  C   UNL     1       1.404   8.074  20.417  0.00  0.00    +0.000 A 
ENDROOT
BRANCH   4   7
ATOM      7  N   UNL     1      -0.369  10.865  18.758  0.00  0.00    +0.000 N 
ATOM      8  C   UNL     1      -1.751  10.547  18.382  0.00  0.00    +0.000 C 
BRANCH   7   9
ATOM      9  S   UNL     1      -0.089  12.320  19.593  0.00  0.00    +0.000 S 
ATOM     10  O   UNL     1       1.241  12.302  20.166  0.00  0.00    +0.000 OA
ATOM     11  O   UNL     1      -0.501  13.409  18.728  0.00  0.00    +0.000 OA
BRANCH   9  12
ATOM     12  C   UNL     1      -1.251  12.272  20.946  0.00  0.00    +0.000 A 
ATOM     13  C   UNL     1      -0.898  11.643  22.143  0.00  0.00    +0.000 A 
ATOM     14  C   UNL     1      -1.785  11.666  23.222  0.00  0.00    +0.000 A 
ATOM     15  C   UNL     1      -3.016  12.329  23.118  0.00  0.00    +0.000 A 
ATOM     16  C   UNL     1      -3.966  12.380  24.280  0.00  0.00    +0.000 C 
ATOM     17  C   UNL     1      -3.348  12.976  21.920  0.00  0.00    +0.000 A 
ATOM     18  C   UNL     1      -2.466  12.956  20.839  0.00  0.00    +0.000 A 
ENDBRANCH   9  12
ENDBRANCH   7   9
ENDBRANCH   4   7
BRANCH   1  19
ATOM     19  O   UNL     1       3.104   6.529  19.604  0.00  0.00    +0.000 OA
BRANCH  19  20
ATOM     20  C   UNL     1       2.638   5.336  19.042  0.00  0.00    +0.000 C 
ATOM     21  O   UNL     1       1.782   5.277  18.165  0.00  0.00    +0.000 OA
BRANCH  20  27
ATOM     22  C   UNL     1       4.619   3.696  19.249  0.00  0.00    +0.000 A 
ATOM     23  N   UNL     1       4.917   2.578  19.921  0.00  0.00    +0.000 NA
ATOM     24  O   UNL     1       3.815   2.302  20.700  0.00  0.00    +0.000 OA
ATOM     25  C   UNL     1       2.860   3.248  20.499  0.00  0.00    +0.000 A 
ATOM     26  C   UNL     1       1.641   3.092  21.315  0.00  0.00    +0.000 C 
ATOM     27  C   UNL     1       3.304   4.156  19.558  0.00  0.00    +0.000 A 
BRANCH  22  29
ATOM     28  C   UNL     1       6.450   5.390  19.084  0.00  0.00    +0.000 C 
ATOM     29  C   UNL     1       5.648   4.314  18.361  0.00  0.00    +0.000 C 
ENDBRANCH  22  29
ENDBRANCH  20  27
ENDBRANCH  19  20
ENDBRANCH   1  19
TORSDOF 7
ENDMDL
MODEL 8
REMARK VINA RESULT:      -8.5      2.837      4.430
REMARK  Name = 
REMARK  11 active torsions:
REMARK  status: ('A' for Active; 'I' for Inactive)
REMARK    1  A    between atoms: C_1  and  C_2
REMARK    2  A    between atoms: C_2  and  C_3
REMARK    3  A    between atoms: C_6  and  C_7
REMARK    4  A    between atoms: C_8  and  C_9
REMARK    5  A    between atoms: C_9  and  O_11
REMARK    6  A    between atoms: O_11  and  C_12
REMARK    7  A    between atoms: C_15  and  N_16
REMARK    8  A    between atoms: N_16  and  C_17
REMARK    9  A    between atoms: N_16  and  S_18
REMARK   10  A    between atoms: S_18  and  C_21
REMARK   11  A    between atoms: C_24  and  C_25
REMARK                            x       y       z     vdW  Elec       q    Type
REMARK                         _______ _______ _______ _____ _____    ______ ____
ROOT
ATOM      1  C   UNL     1       2.299   7.750  19.139  0.00  0.00    +0.000 A 
ATOM      2  C   UNL     1       1.524   8.062  20.257  0.00  0.00    +0.000 A 
ATOM      3  C   UNL     1       0.681   9.181  20.221  0.00  0.00    +0.000 A 
ATOM      4  C   UNL     1       0.633   9.985  19.078  0.00  0.00    +0.000 A 
ATOM      5  C   UNL     1       1.424   9.671  17.971  0.00  0.00    +0.000 A 
ATOM      6  C   UNL     1       2.263   8.560  18.001  0.00  0.00    +0.000 A 
ENDROOT
BRANCH   4   7
ATOM      7  N   UNL     1      -0.194  11.145  18.985  0.00  0.00    +0.000 N 
ATOM      8  C   UNL     1      -1.607  10.970  18.628  0.00  0.00    +0.000 C 
BRANCH   7   9
ATOM      9  S   UNL     1       0.227  12.516  19.899  0.00  0.00    +0.000 S 
ATOM     10  O   UNL     1       1.527  12.313  20.505  0.00  0.00    +0.000 OA
ATOM     11  O   UNL     1      -0.026  13.685  19.079  0.00  0.00    +0.000 OA
BRANCH   9  12
ATOM     12  C   UNL     1      -0.974  12.543  21.218  0.00  0.00    +0.000 A 
ATOM     13  C   UNL     1      -2.033  13.454  21.174  0.00  0.00    +0.000 A 
ATOM     14  C   UNL     1      -3.008  13.426  22.175  0.00  0.00    +0.000 A 
ATOM     15  C   UNL     1      -2.940  12.483  23.210  0.00  0.00    +0.000 A 
ATOM     16  C   UNL     1      -3.996  12.430  24.276  0.00  0.00    +0.000 C 
ATOM     17  C   UNL     1      -1.886  11.561  23.229  0.00  0.00    +0.000 A 
ATOM     18  C   UNL     1      -0.909  11.583  22.232  0.00  0.00    +0.000 A 
ENDBRANCH   9  12
ENDBRANCH   7   9
ENDBRANCH   4   7
BRANCH   1  19
ATOM     19  O   UNL     1       3.208   6.679  19.228  0.00  0.00    +0.000 OA
BRANCH  19  20
ATOM     20  C   UNL     1       2.775   5.457  18.705  0.00  0.00    +0.000 C 
ATOM     21  O   UNL     1       1.914   5.346  17.839  0.00  0.00    +0.000 OA
BRANCH  20  27
ATOM     22  C   UNL     1       2.930   3.198  19.942  0.00  0.00    +0.000 A 
ATOM     23  N   UNL     1       3.876   2.316  20.287  0.00  0.00    +0.000 NA
ATOM     24  O   UNL     1       5.059   2.826  19.800  0.00  0.00    +0.000 OA
ATOM     25  C   UNL     1       4.828   4.005  19.167  0.00  0.00    +0.000 A 
ATOM     26  C   UNL     1       6.016   4.634  18.556  0.00  0.00    +0.000 C 
ATOM     27  C   UNL     1       3.484   4.314  19.247  0.00  0.00    +0.000 A 
BRANCH  22  29
ATOM     28  C   UNL     1       0.758   2.340  19.050  0.00  0.00    +0.000 C 
ATOM     29  C   UNL     1       1.501   2.900  20.257  0.00  0.00    +0.000 C 
ENDBRANCH  22  29
ENDBRANCH  20  27
ENDBRANCH  19  20
ENDBRANCH   1  19
TORSDOF 7
ENDMDL
MODEL 9
REMARK VINA RESULT:      -8.5      3.430      8.538
REMARK  Name = 
REMARK  11 active torsions:
REMARK  status: ('A' for Active; 'I' for Inactive)
REMARK    1  A    between atoms: C_1  and  C_2
REMARK    2  A    between atoms: C_2  and  C_3
REMARK    3  A    between atoms: C_6  and  C_7
REMARK    4  A    between atoms: C_8  and  C_9
REMARK    5  A    between atoms: C_9  and  O_11
REMARK    6  A    between atoms: O_11  and  C_12
REMARK    7  A    between atoms: C_15  and  N_16
REMARK    8  A    between atoms: N_16  and  C_17
REMARK    9  A    between atoms: N_16  and  S_18
REMARK   10  A    between atoms: S_18  and  C_21
REMARK   11  A    between atoms: C_24  and  C_25
REMARK                            x       y       z     vdW  Elec       q    Type
REMARK                         _______ _______ _______ _____ _____    ______ ____
ROOT
ATOM      1  C   UNL     1       2.196   7.705  19.149  0.00  0.00    +0.000 A 
ATOM      2  C   UNL     1       2.066   7.062  20.382  0.00  0.00    +0.000 A 
ATOM      3  C   UNL     1       2.023   5.662  20.428  0.00  0.00    +0.000 A 
ATOM      4  C   UNL     1       2.095   4.920  19.245  0.00  0.00    +0.000 A 
ATOM      5  C   UNL     1       2.211   5.575  18.017  0.00  0.00    +0.000 A 
ATOM      6  C   UNL     1       2.254   6.966  17.965  0.00  0.00    +0.000 A 
ENDROOT
BRANCH   4   7
ATOM      7  N   UNL     1       2.043   3.493  19.225  0.00  0.00    +0.000 N 
ATOM      8  C   UNL     1       0.882   2.845  18.604  0.00  0.00    +0.000 C 
BRANCH   7   9
ATOM      9  S   UNL     1       3.506   2.628  19.262  0.00  0.00    +0.000 S 
ATOM     10  O   UNL     1       3.864   2.341  20.636  0.00  0.00    +0.000 OA
ATOM     11  O   UNL     1       3.408   1.556  18.291  0.00  0.00    +0.000 OA
BRANCH   9  12
ATOM     12  C   UNL     1       4.710   3.785  18.631  0.00  0.00    +0.000 A 
ATOM     13  C   UNL     1       4.890   3.917  17.252  0.00  0.00    +0.000 A 
ATOM     14  C   UNL     1       5.784   4.871  16.762  0.00  0.00    +0.000 A 
ATOM     15  C   UNL     1       6.489   5.706  17.641  0.00  0.00    +0.000 A 
ATOM     16  C   UNL     1       7.435   6.750  17.122  0.00  0.00    +0.000 C 
ATOM     17  C   UNL     1       6.282   5.579  19.021  0.00  0.00    +0.000 A 
ATOM     18  C   UNL     1       5.389   4.628  19.516  0.00  0.00    +0.000 A 
ENDBRANCH   9  12
ENDBRANCH   7   9
ENDBRANCH   4   7
BRANCH   1  19
ATOM     19  O   UNL     1       2.142   9.110  19.116  0.00  0.00    +0.000 OA
BRANCH  19  20
ATOM     20  C   UNL     1       0.866   9.681  19.150  0.00  0.00    +0.000 C 
ATOM     21  O   UNL     1      -0.000   9.478  18.306  0.00  0.00    +0.000 OA
BRANCH  20  27
ATOM     22  C   UNL     1       0.854  11.910  20.449  0.00  0.00    +0.000 A 
ATOM     23  N   UNL     1       0.514  12.349  21.666  0.00  0.00    +0.000 NA
ATOM     24  O   UNL     1       0.041  11.248  22.344  0.00  0.00    +0.000 OA
ATOM     25  C   UNL     1       0.094  10.153  21.541  0.00  0.00    +0.000 A 
ATOM     26  C   UNL     1      -0.431   8.910  22.136  0.00  0.00    +0.000 C 
ATOM     27  C   UNL     1       0.634  10.507  20.318  0.00  0.00    +0.000 A 
BRANCH  22  29
ATOM     28  C   UNL     1       2.627  13.572  19.860  0.00  0.00    +0.000 C 
ATOM     29  C   UNL     1       1.337  12.886  19.426  0.00  0.00    +0.000 C 
ENDBRANCH  22  29
ENDBRANCH  20  27
ENDBRANCH  19  20
ENDBRANCH   1  19
TORSDOF 7
ENDMDL
