MODEL 1
REMARK VINA RESULT:      -8.5      0.000      0.000
REMARK  Name = 
REMARK  5 active torsions:
REMARK  status: ('A' for Active; 'I' for Inactive)
REMARK    1  A    between atoms: C_2  and  C_4
REMARK    2  A    between atoms: C_8  and  C_9
REMARK    3  A    between atoms: C_11  and  C_12
REMARK    4  A    between atoms: N_14  and  C_15
REMARK    5  A    between atoms: C_18  and  O_19
REMARK                            x       y       z     vdW  Elec       q    Type
REMARK                         _______ _______ _______ _____ _____    ______ ____
ROOT
ATOM      1  C   UNL     1       4.189   5.443  17.008  0.00  0.00    +0.000 A 
ATOM      2  C   UNL     1       3.640   6.695  17.236  0.00  0.00    +0.000 A 
ATOM      3  C   UNL     1       2.806   6.632  18.392  0.00  0.00    +0.000 A 
ATOM      4  C   UNL     1       2.747   5.287  18.734  0.00  0.00    +0.000 A 
ATOM      5  C   UNL     1       2.072   4.545  19.755  0.00  0.00    +0.000 A 
ATOM      6  N   UNL     1       1.291   5.099  20.721  0.00  0.00    +0.000 N 
ATOM      7  N   UNL     1       2.203   3.253  19.772  0.00  0.00    +0.000 NA
ATOM      8  C   UNL     1       3.001   2.650  18.838  0.00  0.00    +0.000 A 
ATOM      9  N   UNL     1       3.682   3.236  17.906  0.00  0.00    +0.000 NA
ATOM     10  N   UNL     1       3.545   4.578  17.875  0.00  0.00    +0.000 N 
ATOM     11  H   UNL     1       0.905   6.023  20.510  0.00  0.00    +0.000 HD
ATOM     12  H   UNL     1       0.626   4.457  21.129  0.00  0.00    +0.000 HD
ENDROOT
BRANCH   1  17
ATOM     13  C   UNL     1       6.014   4.171  13.952  0.00  0.00    +0.000 A 
ATOM     14  C   UNL     1       7.317   4.617  14.200  0.00  0.00    +0.000 A 
ATOM     15  C   UNL     1       7.607   5.271  15.394  0.00  0.00    +0.000 A 
ATOM     16  C   UNL     1       6.594   5.496  16.330  0.00  0.00    +0.000 A 
ATOM     17  C   UNL     1       5.277   5.078  16.090  0.00  0.00    +0.000 A 
ATOM     18  C   UNL     1       4.999   4.409  14.889  0.00  0.00    +0.000 A 
BRANCH  13  20
ATOM     19  N   UNL     1       6.622   2.697  12.116  0.00  0.00    +0.000 N 
ATOM     20  C   UNL     1       5.659   3.481  12.687  0.00  0.00    +0.000 C 
ATOM     21  O   UNL     1       4.544   3.578  12.192  0.00  0.00    +0.000 OA
ATOM     22  H   UNL     1       6.336   2.141  11.321  0.00  0.00    +0.000 HD
ATOM     23  H   UNL     1       7.445   2.402  12.623  0.00  0.00    +0.000 HD
ENDBRANCH  13  20
ENDBRANCH   1  17
BRANCH   3  24
ATOM     24  C   UNL     1       2.150   7.738  19.083  0.00  0.00    +0.000 C 
ATOM     25  O   UNL     1       2.053   7.796  20.305  0.00  0.00    +0.000 OA
ATOM     26  N   UNL     1       1.673   8.725  18.238  0.00  0.00    +0.000 N 
ATOM     27  H   UNL     1       1.941   8.682  17.265  0.00  0.00    +0.000 HD
BRANCH  26  28
ATOM     28  C   UNL     1       1.073   9.959  18.726  0.00  0.00    +0.000 C 
ATOM     29  C   UNL     1       1.871  11.193  18.276  0.00  0.00    +0.000 C 
ATOM     30  C   UNL     1       1.213  12.493  18.745  0.00  0.00    +0.000 C 
ATOM     31  C   UNL     1      -0.263  12.577  18.356  0.00  0.00    +0.000 C 
ATOM     32  C   UNL     1      -1.033  11.330  18.789  0.00  0.00    +0.000 C 
ATOM     33  C   UNL     1      -0.378  10.067  18.243  0.00  0.00    +0.000 C 
BRANCH  31  34
ATOM     34  O   UNL     1      -0.852  13.730  18.945  0.00  0.00    +0.000 OA
ATOM     35  H   UNL     1      -1.375  13.449  19.715  0.00  0.00    +0.000 HD
ENDBRANCH  31  34
ENDBRANCH  26  28
ENDBRANCH   3  24
TORSDOF 5
ENDMDL
MODEL 2
REMARK VINA RESULT:      -8.3      1.721      1.850
REMARK  Name = 
REMARK  5 active torsions:
REMARK  status: ('A' for Active; 'I' for Inactive)
REMARK    1  A    between atoms: C_2  and  C_4
REMARK    2  A    between atoms: C_8  and  C_9
REMARK    3  A    between atoms: C_11  and  C_12
REMARK    4  A    between atoms: N_14  and  C_15
REMARK    5  A    between atoms: C_18  and  O_19
REMARK                            x       y       z     vdW  Elec       q    Type
REMARK                         _______ _______ _______ _____ _____    ______ ____
ROOT
ATOM      1  C   UNL     1       3.971   4.995  17.359  0.00  0.00    +0.000 A 
ATOM      2  C   UNL     1       3.592   6.134  18.051  0.00  0.00    +0.000 A 
ATOM      3  C   UNL     1       2.630   5.775  19.042  0.00  0.00    +0.000 A 
ATOM      4  C   UNL     1       2.334   4.439  18.805  0.00  0.00    +0.000 A 
ATOM      5  C   UNL     1       1.444   3.492  19.404  0.00  0.00    +0.000 A 
ATOM      6  N   UNL     1       0.648   3.755  20.476  0.00  0.00    +0.000 N 
ATOM      7  N   UNL     1       1.380   2.297  18.901  0.00  0.00    +0.000 NA
ATOM      8  C   UNL     1       2.182   1.975  17.840  0.00  0.00    +0.000 A 
ATOM      9  N   UNL     1       3.044   2.745  17.259  0.00  0.00    +0.000 NA
ATOM     10  N   UNL     1       3.111   3.992  17.770  0.00  0.00    +0.000 N 
ATOM     11  H   UNL     1       0.430   4.740  20.642  0.00  0.00    +0.000 HD
ATOM     12  H   UNL     1      -0.147   3.136  20.557  0.00  0.00    +0.000 HD
ENDROOT
BRANCH   1  17
ATOM     13  C   UNL     1       5.918   4.200  14.218  0.00  0.00    +0.000 A 
ATOM     14  C   UNL     1       7.168   4.754  14.518  0.00  0.00    +0.000 A 
ATOM     15  C   UNL     1       7.389   5.323  15.769  0.00  0.00    +0.000 A 
ATOM     16  C   UNL     1       6.359   5.357  16.711  0.00  0.00    +0.000 A 
ATOM     17  C   UNL     1       5.091   4.828  16.422  0.00  0.00    +0.000 A 
ATOM     18  C   UNL     1       4.884   4.247  15.163  0.00  0.00    +0.000 A 
BRANCH  13  20
ATOM     19  N   UNL     1       6.661   2.922  12.288  0.00  0.00    +0.000 N 
ATOM     20  C   UNL     1       5.637   3.595  12.893  0.00  0.00    +0.000 C 
ATOM     21  O   UNL     1       4.529   3.663  12.376  0.00  0.00    +0.000 OA
ATOM     22  H   UNL     1       6.429   2.416  11.443  0.00  0.00    +0.000 HD
ATOM     23  H   UNL     1       7.489   2.638  12.792  0.00  0.00    +0.000 HD
ENDBRANCH  13  20
ENDBRANCH   1  17
BRANCH   3  24
ATOM     24  C   UNL     1       2.070   6.621  20.092  0.00  0.00    +0.000 C 
ATOM     25  O   UNL     1       1.877   6.221  21.237  0.00  0.00    +0.000 OA
ATOM     26  N   UNL     1       1.803   7.917  19.688  0.00  0.00    +0.000 N 
ATOM     27  H   UNL     1       2.146   8.208  18.783  0.00  0.00    +0.000 HD
BRANCH  26  28
ATOM     28  C   UNL     1       1.333   8.948  20.603  0.00  0.00    +0.000 C 
ATOM     29  C   UNL     1       0.984  10.248  19.861  0.00  0.00    +0.000 C 
ATOM     30  C   UNL     1       0.442  11.315  20.814  0.00  0.00    +0.000 C 
ATOM     31  C   UNL     1      -0.716  10.801  21.672  0.00  0.00    +0.000 C 
ATOM     32  C   UNL     1      -0.358   9.495  22.380  0.00  0.00    +0.000 C 
ATOM     33  C   UNL     1       0.113   8.444  21.383  0.00  0.00    +0.000 C 
BRANCH  31  34
ATOM     34  O   UNL     1      -1.076  11.785  22.635  0.00  0.00    +0.000 OA
ATOM     35  H   UNL     1      -0.353  12.433  22.697  0.00  0.00    +0.000 HD
ENDBRANCH  31  34
ENDBRANCH  26  28
ENDBRANCH   3  24
TORSDOF 5
ENDMDL
MODEL 3
REMARK VINA RESULT:      -8.3      3.260      8.672
REMARK  Name = 
REMARK  5 active torsions:
REMARK  status: ('A' for Active; 'I' for Inactive)
REMARK    1  A    between atoms: C_2  and  C_4
REMARK    2  A    between atoms: C_8  and  C_9
REMARK    3  A    between atoms: C_11  and  C_12
REMARK    4  A    between atoms: N_14  and  C_15
REMARK    5  A    between atoms: C_18  and  O_19
REMARK                            x       y       z     vdW  Elec       q    Type
REMARK                         _______ _______ _______ _____ _____    ______ ____
ROOT
ATOM      1  C   UNL     1      -0.748  10.121  18.459  0.00  0.00    +0.000 A 
ATOM      2  C   UNL     1       0.245   9.245  18.051  0.00  0.00    +0.000 A 
ATOM      3  C   UNL     1       1.018   8.861  19.188  0.00  0.00    +0.000 A 
ATOM      4  C   UNL     1       0.563   9.655  20.232  0.00  0.00    +0.000 A 
ATOM      5  C   UNL     1       0.924   9.796  21.610  0.00  0.00    +0.000 A 
ATOM      6  N   UNL     1       1.880   9.058  22.235  0.00  0.00    +0.000 N 
ATOM      7  N   UNL     1       0.306  10.687  22.324  0.00  0.00    +0.000 NA
ATOM      8  C   UNL     1      -0.684  11.436  21.749  0.00  0.00    +0.000 A 
ATOM      9  N   UNL     1      -1.109  11.353  20.529  0.00  0.00    +0.000 NA
ATOM     10  N   UNL     1      -0.466  10.435  19.776  0.00  0.00    +0.000 N 
ATOM     11  H   UNL     1       2.587   8.635  21.629  0.00  0.00    +0.000 HD
ATOM     12  H   UNL     1       2.256   9.494  23.065  0.00  0.00    +0.000 HD
ENDROOT
BRANCH   1  17
ATOM     13  C   UNL     1      -3.280  10.536  15.682  0.00  0.00    +0.000 A 
ATOM     14  C   UNL     1      -4.281  11.272  16.326  0.00  0.00    +0.000 A 
ATOM     15  C   UNL     1      -4.094  11.688  17.641  0.00  0.00    +0.000 A 
ATOM     16  C   UNL     1      -2.920  11.352  18.319  0.00  0.00    +0.000 A 
ATOM     17  C   UNL     1      -1.914  10.594  17.699  0.00  0.00    +0.000 A 
ATOM     18  C   UNL     1      -2.108  10.192  16.371  0.00  0.00    +0.000 A 
BRANCH  13  20
ATOM     19  N   UNL     1      -4.723   9.908  13.829  0.00  0.00    +0.000 N 
ATOM     20  C   UNL     1      -3.444  10.063  14.286  0.00  0.00    +0.000 C 
ATOM     21  O   UNL     1      -2.481   9.853  13.560  0.00  0.00    +0.000 OA
ATOM     22  H   UNL     1      -4.826   9.698  12.845  0.00  0.00    +0.000 HD
ATOM     23  H   UNL     1      -5.517  10.307  14.309  0.00  0.00    +0.000 HD
ENDBRANCH  13  20
ENDBRANCH   1  17
BRANCH   3  24
ATOM     24  C   UNL     1       2.065   7.846  19.255  0.00  0.00    +0.000 C 
ATOM     25  O   UNL     1       2.302   7.200  20.272  0.00  0.00    +0.000 OA
ATOM     26  N   UNL     1       2.745   7.659  18.064  0.00  0.00    +0.000 N 
ATOM     27  H   UNL     1       2.378   8.108  17.237  0.00  0.00    +0.000 HD
BRANCH  26  28
ATOM     28  C   UNL     1       3.760   6.630  17.888  0.00  0.00    +0.000 C 
ATOM     29  C   UNL     1       3.133   5.236  17.735  0.00  0.00    +0.000 C 
ATOM     30  C   UNL     1       4.195   4.160  17.499  0.00  0.00    +0.000 C 
ATOM     31  C   UNL     1       5.135   4.509  16.344  0.00  0.00    +0.000 C 
ATOM     32  C   UNL     1       5.728   5.908  16.500  0.00  0.00    +0.000 C 
ATOM     33  C   UNL     1       4.630   6.951  16.666  0.00  0.00    +0.000 C 
BRANCH  31  34
ATOM     34  O   UNL     1       6.184   3.550  16.270  0.00  0.00    +0.000 OA
ATOM     35  H   UNL     1       6.387   3.389  15.333  0.00  0.00    +0.000 HD
ENDBRANCH  31  34
ENDBRANCH  26  28
ENDBRANCH   3  24
TORSDOF 5
ENDMDL
MODEL 4
REMARK VINA RESULT:      -8.0      1.996      2.619
REMARK  Name = 
REMARK  5 active torsions:
REMARK  status: ('A' for Active; 'I' for Inactive)
REMARK    1  A    between atoms: C_2  and  C_4
REMARK    2  A    between atoms: C_8  and  C_9
REMARK    3  A    between atoms: C_11  and  C_12
REMARK    4  A    between atoms: N_14  and  C_15
REMARK    5  A    between atoms: C_18  and  O_19
REMARK                            x       y       z     vdW  Elec       q    Type
REMARK                         _______ _______ _______ _____ _____    ______ ____
ROOT
ATOM      1  C   UNL     1       3.973   6.452  17.946  0.00  0.00    +0.000 A 
ATOM      2  C   UNL     1       3.351   7.554  17.380  0.00  0.00    +0.000 A 
ATOM      3  C   UNL     1       2.348   8.030  18.277  0.00  0.00    +0.000 A 
ATOM      4  C   UNL     1       2.284   7.090  19.296  0.00  0.00    +0.000 A 
ATOM      5  C   UNL     1       1.483   6.947  20.474  0.00  0.00    +0.000 A 
ATOM      6  N   UNL     1       0.541   7.841  20.878  0.00  0.00    +0.000 N 
ATOM      7  N   UNL     1       1.656   5.896  21.217  0.00  0.00    +0.000 NA
ATOM      8  C   UNL     1       2.611   4.981  20.868  0.00  0.00    +0.000 A 
ATOM      9  N   UNL     1       3.409   5.042  19.851  0.00  0.00    +0.000 NA
ATOM     10  N   UNL     1       3.231   6.127  19.068  0.00  0.00    +0.000 N 
ATOM     11  H   UNL     1       0.161   8.451  20.150  0.00  0.00    +0.000 HD
ATOM     12  H   UNL     1      -0.156   7.450  21.495  0.00  0.00    +0.000 HD
ENDROOT
BRANCH   1  17
ATOM     13  C   UNL     1       6.637   4.956  15.720  0.00  0.00    +0.000 A 
ATOM     14  C   UNL     1       7.671   4.733  16.635  0.00  0.00    +0.000 A 
ATOM     15  C   UNL     1       7.470   5.007  17.985  0.00  0.00    +0.000 A 
ATOM     16  C   UNL     1       6.245   5.523  18.416  0.00  0.00    +0.000 A 
ATOM     17  C   UNL     1       5.203   5.776  17.511  0.00  0.00    +0.000 A 
ATOM     18  C   UNL     1       5.413   5.484  16.157  0.00  0.00    +0.000 A 
BRANCH  13  20
ATOM     19  N   UNL     1       6.134   3.624  13.749  0.00  0.00    +0.000 N 
ATOM     20  C   UNL     1       6.814   4.688  14.271  0.00  0.00    +0.000 C 
ATOM     21  O   UNL     1       7.508   5.407  13.564  0.00  0.00    +0.000 OA
ATOM     22  H   UNL     1       6.168   3.519  12.744  0.00  0.00    +0.000 HD
ATOM     23  H   UNL     1       5.373   3.179  14.242  0.00  0.00    +0.000 HD
ENDBRANCH  13  20
ENDBRANCH   1  17
BRANCH   3  24
ATOM     24  C   UNL     1       1.553   9.249  18.162  0.00  0.00    +0.000 C 
ATOM     25  O   UNL     1       2.044  10.373  18.229  0.00  0.00    +0.000 OA
ATOM     26  N   UNL     1       0.205   9.024  17.944  0.00  0.00    +0.000 N 
ATOM     27  H   UNL     1      -0.086   8.080  17.735  0.00  0.00    +0.000 HD
BRANCH  26  28
ATOM     28  C   UNL     1      -0.746  10.100  17.705  0.00  0.00    +0.000 C 
ATOM     29  C   UNL     1      -1.831   9.685  16.699  0.00  0.00    +0.000 C 
ATOM     30  C   UNL     1      -2.860  10.797  16.485  0.00  0.00    +0.000 C 
ATOM     31  C   UNL     1      -3.447  11.312  17.800  0.00  0.00    +0.000 C 
ATOM     32  C   UNL     1      -2.354  11.695  18.796  0.00  0.00    +0.000 C 
ATOM     33  C   UNL     1      -1.393  10.535  19.025  0.00  0.00    +0.000 C 
BRANCH  31  34
ATOM     34  O   UNL     1      -4.280  12.437  17.547  0.00  0.00    +0.000 OA
ATOM     35  H   UNL     1      -3.767  13.093  17.043  0.00  0.00    +0.000 HD
ENDBRANCH  31  34
ENDBRANCH  26  28
ENDBRANCH   3  24
TORSDOF 5
ENDMDL
MODEL 5
REMARK VINA RESULT:      -7.9      2.177      8.428
REMARK  Name = 
REMARK  5 active torsions:
REMARK  status: ('A' for Active; 'I' for Inactive)
REMARK    1  A    between atoms: C_2  and  C_4
REMARK    2  A    between atoms: C_8  and  C_9
REMARK    3  A    between atoms: C_11  and  C_12
REMARK    4  A    between atoms: N_14  and  C_15
REMARK    5  A    between atoms: C_18  and  O_19
REMARK                            x       y       z     vdW  Elec       q    Type
REMARK                         _______ _______ _______ _____ _____    ______ ____
ROOT
ATOM      1  C   UNL     1       2.814   6.860  19.082  0.00  0.00    +0.000 A 
ATOM      2  C   UNL     1       3.878   6.775  18.198  0.00  0.00    +0.000 A 
ATOM      3  C   UNL     1       4.346   5.427  18.167  0.00  0.00    +0.000 A 
ATOM      4  C   UNL     1       3.647   4.767  19.168  0.00  0.00    +0.000 A 
ATOM      5  C   UNL     1       3.657   3.430  19.679  0.00  0.00    +0.000 A 
ATOM      6  N   UNL     1       4.430   2.424  19.187  0.00  0.00    +0.000 N 
ATOM      7  N   UNL     1       2.881   3.142  20.679  0.00  0.00    +0.000 NA
ATOM      8  C   UNL     1       2.063   4.113  21.191  0.00  0.00    +0.000 A 
ATOM      9  N   UNL     1       1.952   5.333  20.773  0.00  0.00    +0.000 NA
ATOM     10  N   UNL     1       2.761   5.643  19.739  0.00  0.00    +0.000 N 
ATOM     11  H   UNL     1       5.265   2.712  18.671  0.00  0.00    +0.000 HD
ATOM     12  H   UNL     1       4.589   1.672  19.844  0.00  0.00    +0.000 HD
ENDROOT
BRANCH   1  17
ATOM     13  C   UNL     1       0.573   9.407  20.751  0.00  0.00    +0.000 A 
ATOM     14  C   UNL     1       0.283  10.264  19.683  0.00  0.00    +0.000 A 
ATOM     15  C   UNL     1       0.763   9.968  18.411  0.00  0.00    +0.000 A 
ATOM     16  C   UNL     1       1.549   8.831  18.208  0.00  0.00    +0.000 A 
ATOM     17  C   UNL     1       1.871   7.972  19.270  0.00  0.00    +0.000 A 
ATOM     18  C   UNL     1       1.371   8.272  20.544  0.00  0.00    +0.000 A 
BRANCH  13  20
ATOM     19  N   UNL     1      -0.655   8.721  22.734  0.00  0.00    +0.000 N 
ATOM     20  C   UNL     1       0.090   9.691  22.125  0.00  0.00    +0.000 C 
ATOM     21  O   UNL     1       0.374  10.731  22.704  0.00  0.00    +0.000 OA
ATOM     22  H   UNL     1      -0.880   8.873  23.708  0.00  0.00    +0.000 HD
ATOM     23  H   UNL     1      -0.688   7.773  22.387  0.00  0.00    +0.000 HD
ENDBRANCH  13  20
ENDBRANCH   1  17
BRANCH   3  24
ATOM     24  C   UNL     1       5.345   4.849  17.273  0.00  0.00    +0.000 C 
ATOM     25  O   UNL     1       6.381   4.329  17.679  0.00  0.00    +0.000 OA
ATOM     26  N   UNL     1       5.007   4.917  15.932  0.00  0.00    +0.000 N 
ATOM     27  H   UNL     1       4.068   5.207  15.698  0.00  0.00    +0.000 HD
BRANCH  26  28
ATOM     28  C   UNL     1       5.817   4.315  14.883  0.00  0.00    +0.000 C 
ATOM     29  C   UNL     1       4.952   3.819  13.713  0.00  0.00    +0.000 C 
ATOM     30  C   UNL     1       5.806   3.232  12.587  0.00  0.00    +0.000 C 
ATOM     31  C   UNL     1       6.914   4.185  12.134  0.00  0.00    +0.000 C 
ATOM     32  C   UNL     1       7.745   4.686  13.313  0.00  0.00    +0.000 C 
ATOM     33  C   UNL     1       6.858   5.321  14.377  0.00  0.00    +0.000 C 
BRANCH  31  34
ATOM     34  O   UNL     1       7.759   3.529  11.197  0.00  0.00    +0.000 OA
ATOM     35  H   UNL     1       7.557   2.577  11.213  0.00  0.00    +0.000 HD
ENDBRANCH  31  34
ENDBRANCH  26  28
ENDBRANCH   3  24
TORSDOF 5
ENDMDL
MODEL 6
REMARK VINA RESULT:      -7.7      4.077      6.533
REMARK  Name = 
REMARK  5 active torsions:
REMARK  status: ('A' for Active; 'I' for Inactive)
REMARK    1  A    between atoms: C_2  and  C_4
REMARK    2  A    between atoms: C_8  and  C_9
REMARK    3  A    between atoms: C_11  and  C_12
REMARK    4  A    between atoms: N_14  and  C_15
REMARK    5  A    between atoms: C_18  and  O_19
REMARK                            x       y       z     vdW  Elec       q    Type
REMARK                         _______ _______ _______ _____ _____    ______ ____
ROOT
ATOM      1  C   UNL     1       1.304   8.699  19.812  0.00  0.00    +0.000 A 
ATOM      2  C   UNL     1       1.069   9.645  18.827  0.00  0.00    +0.000 A 
ATOM      3  C   UNL     1       0.579  10.838  19.438  0.00  0.00    +0.000 A 
ATOM      4  C   UNL     1       0.376  10.515  20.773  0.00  0.00    +0.000 A 
ATOM      5  C   UNL     1      -0.120  11.230  21.909  0.00  0.00    +0.000 A 
ATOM      6  N   UNL     1      -0.500  12.536  21.891  0.00  0.00    +0.000 N 
ATOM      7  N   UNL     1      -0.220  10.602  23.042  0.00  0.00    +0.000 NA
ATOM      8  C   UNL     1       0.177   9.295  23.118  0.00  0.00    +0.000 A 
ATOM      9  N   UNL     1       0.674   8.579  22.162  0.00  0.00    +0.000 NA
ATOM     10  N   UNL     1       0.774   9.221  20.979  0.00  0.00    +0.000 N 
ATOM     11  H   UNL     1      -0.758  12.915  20.977  0.00  0.00    +0.000 HD
ATOM     12  H   UNL     1      -1.134  12.788  22.637  0.00  0.00    +0.000 HD
ENDROOT
BRANCH   1  17
ATOM     13  C   UNL     1       2.214   5.056  20.247  0.00  0.00    +0.000 A 
ATOM     14  C   UNL     1       3.213   4.901  19.280  0.00  0.00    +0.000 A 
ATOM     15  C   UNL     1       3.633   6.002  18.539  0.00  0.00    +0.000 A 
ATOM     16  C   UNL     1       3.042   7.250  18.748  0.00  0.00    +0.000 A 
ATOM     17  C   UNL     1       2.021   7.422  19.696  0.00  0.00    +0.000 A 
ATOM     18  C   UNL     1       1.616   6.309  20.446  0.00  0.00    +0.000 A 
BRANCH  13  20
ATOM     19  N   UNL     1       0.661   3.211  20.558  0.00  0.00    +0.000 N 
ATOM     20  C   UNL     1       1.729   3.907  21.050  0.00  0.00    +0.000 C 
ATOM     21  O   UNL     1       2.281   3.570  22.090  0.00  0.00    +0.000 OA
ATOM     22  H   UNL     1       0.411   2.363  21.049  0.00  0.00    +0.000 HD
ATOM     23  H   UNL     1       0.354   3.306  19.600  0.00  0.00    +0.000 HD
ENDBRANCH  13  20
ENDBRANCH   1  17
BRANCH   3  24
ATOM     24  C   UNL     1       0.341  12.133  18.807  0.00  0.00    +0.000 C 
ATOM     25  O   UNL     1      -0.690  12.395  18.193  0.00  0.00    +0.000 OA
ATOM     26  N   UNL     1       1.367  13.043  18.985  0.00  0.00    +0.000 N 
ATOM     27  H   UNL     1       2.099  12.805  19.640  0.00  0.00    +0.000 HD
BRANCH  26  28
ATOM     28  C   UNL     1       1.290  14.421  18.520  0.00  0.00    +0.000 C 
ATOM     29  C   UNL     1       0.484  15.301  19.488  0.00  0.00    +0.000 C 
ATOM     30  C   UNL     1       0.445  16.760  19.027  0.00  0.00    +0.000 C 
ATOM     31  C   UNL     1       1.839  17.323  18.746  0.00  0.00    +0.000 C 
ATOM     32  C   UNL     1       2.634  16.421  17.803  0.00  0.00    +0.000 C 
ATOM     33  C   UNL     1       2.700  14.996  18.338  0.00  0.00    +0.000 C 
BRANCH  31  34
ATOM     34  O   UNL     1       1.728  18.625  18.182  0.00  0.00    +0.000 OA
ATOM     35  H   UNL     1       2.610  19.034  18.179  0.00  0.00    +0.000 HD
ENDBRANCH  31  34
ENDBRANCH  26  28
ENDBRANCH   3  24
TORSDOF 5
ENDMDL
MODEL 7
REMARK VINA RESULT:      -7.7      0.665      1.123
REMARK  Name = 
REMARK  5 active torsions:
REMARK  status: ('A' for Active; 'I' for Inactive)
REMARK    1  A    between atoms: C_2  and  C_4
REMARK    2  A    between atoms: C_8  and  C_9
REMARK    3  A    between atoms: C_11  and  C_12
REMARK    4  A    between atoms: N_14  and  C_15
REMARK    5  A    between atoms: C_18  and  O_19
REMARK                            x       y       z     vdW  Elec       q    Type
REMARK                         _______ _______ _______ _____ _____    ______ ____
ROOT
ATOM      1  C   UNL     1       4.354   5.522  17.022  0.00  0.00    +0.000 A 
ATOM      2  C   UNL     1       3.654   6.717  17.079  0.00  0.00    +0.000 A 
ATOM      3  C   UNL     1       2.946   6.781  18.316  0.00  0.00    +0.000 A 
ATOM      4  C   UNL     1       3.112   5.534  18.904  0.00  0.00    +0.000 A 
ATOM      5  C   UNL     1       2.645   4.930  20.115  0.00  0.00    +0.000 A 
ATOM      6  N   UNL     1       1.884   5.564  21.047  0.00  0.00    +0.000 N 
ATOM      7  N   UNL     1       2.962   3.693  20.353  0.00  0.00    +0.000 NA
ATOM      8  C   UNL     1       3.750   3.021  19.459  0.00  0.00    +0.000 A 
ATOM      9  N   UNL     1       4.252   3.491  18.363  0.00  0.00    +0.000 NA
ATOM     10  N   UNL     1       3.921   4.773  18.102  0.00  0.00    +0.000 N 
ATOM     11  H   UNL     1       1.353   6.373  20.717  0.00  0.00    +0.000 HD
ATOM     12  H   UNL     1       1.358   4.938  21.641  0.00  0.00    +0.000 HD
ENDROOT
BRANCH   1  17
ATOM     13  C   UNL     1       6.024   4.151  13.921  0.00  0.00    +0.000 A 
ATOM     14  C   UNL     1       7.343   4.585  14.100  0.00  0.00    +0.000 A 
ATOM     15  C   UNL     1       7.694   5.262  15.264  0.00  0.00    +0.000 A 
ATOM     16  C   UNL     1       6.727   5.524  16.237  0.00  0.00    +0.000 A 
ATOM     17  C   UNL     1       5.395   5.119  16.066  0.00  0.00    +0.000 A 
ATOM     18  C   UNL     1       5.055   4.426  14.896  0.00  0.00    +0.000 A 
BRANCH  13  20
ATOM     19  N   UNL     1       6.497   2.552  12.151  0.00  0.00    +0.000 N 
ATOM     20  C   UNL     1       5.605   3.436  12.690  0.00  0.00    +0.000 C 
ATOM     21  O   UNL     1       4.497   3.601  12.196  0.00  0.00    +0.000 OA
ATOM     22  H   UNL     1       6.161   1.986  11.383  0.00  0.00    +0.000 HD
ATOM     23  H   UNL     1       7.297   2.215  12.667  0.00  0.00    +0.000 HD
ENDBRANCH  13  20
ENDBRANCH   1  17
BRANCH   3  24
ATOM     24  C   UNL     1       2.204   7.912  18.864  0.00  0.00    +0.000 C 
ATOM     25  O   UNL     1       2.159   8.160  20.065  0.00  0.00    +0.000 OA
ATOM     26  N   UNL     1       1.580   8.693  17.906  0.00  0.00    +0.000 N 
ATOM     27  H   UNL     1       1.805   8.518  16.937  0.00  0.00    +0.000 HD
BRANCH  26  28
ATOM     28  C   UNL     1       0.870   9.922  18.230  0.00  0.00    +0.000 C 
ATOM     29  C   UNL     1      -0.067   9.734  19.433  0.00  0.00    +0.000 C 
ATOM     30  C   UNL     1      -0.777  11.038  19.806  0.00  0.00    +0.000 C 
ATOM     31  C   UNL     1       0.198  12.201  19.998  0.00  0.00    +0.000 C 
ATOM     32  C   UNL     1       1.137  12.355  18.803  0.00  0.00    +0.000 C 
ATOM     33  C   UNL     1       1.869  11.050  18.513  0.00  0.00    +0.000 C 
BRANCH  31  34
ATOM     34  O   UNL     1      -0.527  13.409  20.195  0.00  0.00    +0.000 OA
ATOM     35  H   UNL     1      -0.168  14.085  19.594  0.00  0.00    +0.000 HD
ENDBRANCH  31  34
ENDBRANCH  26  28
ENDBRANCH   3  24
TORSDOF 5
ENDMDL
MODEL 8
REMARK VINA RESULT:      -7.7      2.769      3.574
REMARK  Name = 
REMARK  5 active torsions:
REMARK  status: ('A' for Active; 'I' for Inactive)
REMARK    1  A    between atoms: C_2  and  C_4
REMARK    2  A    between atoms: C_8  and  C_9
REMARK    3  A    between atoms: C_11  and  C_12
REMARK    4  A    between atoms: N_14  and  C_15
REMARK    5  A    between atoms: C_18  and  O_19
REMARK                            x       y       z     vdW  Elec       q    Type
REMARK                         _______ _______ _______ _____ _____    ______ ____
ROOT
ATOM      1  C   UNL     1       3.612   7.046  17.805  0.00  0.00    +0.000 A 
ATOM      2  C   UNL     1       2.944   8.200  17.426  0.00  0.00    +0.000 A 
ATOM      3  C   UNL     1       2.021   8.560  18.454  0.00  0.00    +0.000 A 
ATOM      4  C   UNL     1       2.044   7.507  19.359  0.00  0.00    +0.000 A 
ATOM      5  C   UNL     1       1.347   7.221  20.575  0.00  0.00    +0.000 A 
ATOM      6  N   UNL     1       0.443   8.054  21.159  0.00  0.00    +0.000 N 
ATOM      7  N   UNL     1       1.582   6.093  21.174  0.00  0.00    +0.000 NA
ATOM      8  C   UNL     1       2.505   5.234  20.642  0.00  0.00    +0.000 A 
ATOM      9  N   UNL     1       3.213   5.421  19.575  0.00  0.00    +0.000 NA
ATOM     10  N   UNL     1       2.968   6.587  18.941  0.00  0.00    +0.000 N 
ATOM     11  H   UNL     1       0.002   8.740  20.542  0.00  0.00    +0.000 HD
ATOM     12  H   UNL     1      -0.199   7.587  21.784  0.00  0.00    +0.000 HD
ENDROOT
BRANCH   1  17
ATOM     13  C   UNL     1       6.939   5.294  17.426  0.00  0.00    +0.000 A 
ATOM     14  C   UNL     1       6.957   5.025  16.053  0.00  0.00    +0.000 A 
ATOM     15  C   UNL     1       5.916   5.477  15.247  0.00  0.00    +0.000 A 
ATOM     16  C   UNL     1       4.849   6.178  15.815  0.00  0.00    +0.000 A 
ATOM     17  C   UNL     1       4.801   6.438  17.193  0.00  0.00    +0.000 A 
ATOM     18  C   UNL     1       5.861   5.988  17.992  0.00  0.00    +0.000 A 
BRANCH  13  20
ATOM     19  N   UNL     1       8.099   5.392  19.561  0.00  0.00    +0.000 N 
ATOM     20  C   UNL     1       8.023   4.820  18.322  0.00  0.00    +0.000 C 
ATOM     21  O   UNL     1       8.794   3.931  17.984  0.00  0.00    +0.000 OA
ATOM     22  H   UNL     1       8.764   4.983  20.204  0.00  0.00    +0.000 HD
ATOM     23  H   UNL     1       7.339   5.931  19.951  0.00  0.00    +0.000 HD
ENDBRANCH  13  20
ENDBRANCH   1  17
BRANCH   3  24
ATOM     24  C   UNL     1       1.220   9.776  18.549  0.00  0.00    +0.000 C 
ATOM     25  O   UNL     1       1.713  10.886  18.729  0.00  0.00    +0.000 OA
ATOM     26  N   UNL     1      -0.139   9.569  18.391  0.00  0.00    +0.000 N 
ATOM     27  H   UNL     1      -0.443   8.657  18.081  0.00  0.00    +0.000 HD
BRANCH  26  28
ATOM     28  C   UNL     1      -1.105  10.658  18.355  0.00  0.00    +0.000 C 
ATOM     29  C   UNL     1      -2.388  10.253  17.613  0.00  0.00    +0.000 C 
ATOM     30  C   UNL     1      -3.424  11.379  17.619  0.00  0.00    +0.000 C 
ATOM     31  C   UNL     1      -3.704  11.912  19.025  0.00  0.00    +0.000 C 
ATOM     32  C   UNL     1      -2.415  12.284  19.755  0.00  0.00    +0.000 C 
ATOM     33  C   UNL     1      -1.443  11.111  19.780  0.00  0.00    +0.000 C 
BRANCH  31  34
ATOM     34  O   UNL     1      -4.556  13.048  18.949  0.00  0.00    +0.000 OA
ATOM     35  H   UNL     1      -4.348  13.639  19.694  0.00  0.00    +0.000 HD
ENDBRANCH  31  34
ENDBRANCH  26  28
ENDBRANCH   3  24
TORSDOF 5
ENDMDL
MODEL 9
REMARK VINA RESULT:      -7.6      1.950      2.679
REMARK  Name = 
REMARK  5 active torsions:
REMARK  status: ('A' for Active; 'I' for Inactive)
REMARK    1  A    between atoms: C_2  and  C_4
REMARK    2  A    between atoms: C_8  and  C_9
REMARK    3  A    between atoms: C_11  and  C_12
REMARK    4  A    between atoms: N_14  and  C_15
REMARK    5  A    between atoms: C_18  and  O_19
REMARK                            x       y       z     vdW  Elec       q    Type
REMARK                         _______ _______ _______ _____ _____    ______ ____
ROOT
ATOM      1  C   UNL     1       3.889   6.605  17.977  0.00  0.00    +0.000 A 
ATOM      2  C   UNL     1       3.344   7.747  17.411  0.00  0.00    +0.000 A 
ATOM      3  C   UNL     1       2.349   8.270  18.289  0.00  0.00    +0.000 A 
ATOM      4  C   UNL     1       2.207   7.323  19.295  0.00  0.00    +0.000 A 
ATOM      5  C   UNL     1       1.372   7.213  20.452  0.00  0.00    +0.000 A 
ATOM      6  N   UNL     1       0.473   8.155  20.846  0.00  0.00    +0.000 N 
ATOM      7  N   UNL     1       1.467   6.145  21.186  0.00  0.00    +0.000 NA
ATOM      8  C   UNL     1       2.378   5.182  20.849  0.00  0.00    +0.000 A 
ATOM      9  N   UNL     1       3.202   5.209  19.851  0.00  0.00    +0.000 NA
ATOM     10  N   UNL     1       3.104   6.311  19.077  0.00  0.00    +0.000 N 
ATOM     11  H   UNL     1       0.145   8.793  20.117  0.00  0.00    +0.000 HD
ATOM     12  H   UNL     1      -0.260   7.797  21.442  0.00  0.00    +0.000 HD
ENDROOT
BRANCH   1  17
ATOM     13  C   UNL     1       6.525   5.000  15.794  0.00  0.00    +0.000 A 
ATOM     14  C   UNL     1       7.516   4.693  16.735  0.00  0.00    +0.000 A 
ATOM     15  C   UNL     1       7.289   4.949  18.084  0.00  0.00    +0.000 A 
ATOM     16  C   UNL     1       6.086   5.529  18.492  0.00  0.00    +0.000 A 
ATOM     17  C   UNL     1       5.089   5.866  17.563  0.00  0.00    +0.000 A 
ATOM     18  C   UNL     1       5.323   5.592  16.208  0.00  0.00    +0.000 A 
BRANCH  13  20
ATOM     19  N   UNL     1       7.742   5.443  13.736  0.00  0.00    +0.000 N 
ATOM     20  C   UNL     1       6.731   4.755  14.346  0.00  0.00    +0.000 C 
ATOM     21  O   UNL     1       6.050   3.946  13.727  0.00  0.00    +0.000 OA
ATOM     22  H   UNL     1       7.949   5.185  12.781  0.00  0.00    +0.000 HD
ATOM     23  H   UNL     1       8.465   5.913  14.263  0.00  0.00    +0.000 HD
ENDBRANCH  13  20
ENDBRANCH   1  17
BRANCH   3  24
ATOM     24  C   UNL     1       1.627   9.533  18.171  0.00  0.00    +0.000 C 
ATOM     25  O   UNL     1       0.443   9.596  17.852  0.00  0.00    +0.000 OA
ATOM     26  N   UNL     1       2.389  10.647  18.477  0.00  0.00    +0.000 N 
ATOM     27  H   UNL     1       3.298  10.496  18.891  0.00  0.00    +0.000 HD
BRANCH  26  28
ATOM     28  C   UNL     1       1.837  11.994  18.516  0.00  0.00    +0.000 C 
ATOM     29  C   UNL     1       1.177  12.298  19.870  0.00  0.00    +0.000 C 
ATOM     30  C   UNL     1       0.642  13.730  19.930  0.00  0.00    +0.000 C 
ATOM     31  C   UNL     1       1.699  14.767  19.548  0.00  0.00    +0.000 C 
ATOM     32  C   UNL     1       2.362  14.434  18.213  0.00  0.00    +0.000 C 
ATOM     33  C   UNL     1       2.937  13.023  18.225  0.00  0.00    +0.000 C 
BRANCH  31  34
ATOM     34  O   UNL     1       1.105  16.058  19.479  0.00  0.00    +0.000 OA
ATOM     35  H   UNL     1       1.813  16.717  19.373  0.00  0.00    +0.000 HD
ENDBRANCH  31  34
ENDBRANCH  26  28
ENDBRANCH   3  24
TORSDOF 5
ENDMDL
