MODEL 1
REMARK VINA RESULT:      -9.0      0.000      0.000
REMARK  Name = 
REMARK  9 active torsions:
REMARK  status: ('A' for Active; 'I' for Inactive)
REMARK    1  A    between atoms: C_1  and  O_2
REMARK    2  A    between atoms: O_2  and  C_3
REMARK    3  A    between atoms: C_5  and  O_6
REMARK    4  A    between atoms: O_6  and  C_7
REMARK    5  A    between atoms: C_9  and  O_10
REMARK    6  A    between atoms: O_10  and  C_11
REMARK    7  A    between atoms: C_15  and  N_16
REMARK    8  A    between atoms: C_18  and  N_19
REMARK    9  A    between atoms: C_22  and  C_23
REMARK                            x       y       z     vdW  Elec       q    Type
REMARK                         _______ _______ _______ _____ _____    ______ ____
ROOT
ATOM      1  C   UNL     1       2.722   6.540  18.271  0.00  0.00    +0.000 A 
ATOM      2  N   UNL     1       1.642   5.748  18.139  0.00  0.00    +0.000 NA
ATOM      3  C   UNL     1       1.875   4.424  18.618  0.00  0.00    +0.000 A 
ATOM      4  C   UNL     1       2.490   3.452  17.830  0.00  0.00    +0.000 A 
ATOM      5  C   UNL     1       2.766   2.176  18.392  0.00  0.00    +0.000 A 
ATOM      6  C   UNL     1       2.154   1.948  19.658  0.00  0.00    +0.000 A 
ATOM      7  C   UNL     1       1.777   3.111  20.293  0.00  0.00    +0.000 A 
ATOM      8  C   UNL     1       2.322   4.364  19.772  0.00  0.00    +0.000 A 
ATOM      9  N   UNL     1       3.663   4.976  19.712  0.00  0.00    +0.000 NA
ATOM     10  C   UNL     1       3.928   6.036  18.749  0.00  0.00    +0.000 A 
ENDROOT
BRANCH  10  11
ATOM     11  C   UNL     1       5.290   5.882  17.639  0.00  0.00    +0.000 A 
ATOM     12  C   UNL     1       6.660   5.187  18.127  0.00  0.00    +0.000 A 
ATOM     13  C   UNL     1       7.720   4.518  16.966  0.00  0.00    +0.000 A 
ATOM     14  C   UNL     1       7.303   4.694  15.423  0.00  0.00    +0.000 A 
ATOM     15  C   UNL     1       6.000   5.431  14.993  0.00  0.00    +0.000 A 
ATOM     16  C   UNL     1       4.972   6.027  16.108  0.00  0.00    +0.000 A 
ENDBRANCH  10  11
BRANCH   5  17
ATOM     17  N   UNL     1       3.670   1.309  17.918  0.00  0.00    +0.000 N 
ATOM     18  H   UNL     1       3.812   1.249  16.903  0.00  0.00    +0.000 HD
ATOM     19  H   UNL     1       3.914   0.484  18.455  0.00  0.00    +0.000 HD
ENDBRANCH   5  17
BRANCH   7  20
ATOM     20  N   UNL     1       0.718   2.947  21.235  0.00  0.00    +0.000 N 
ATOM     21  H   UNL     1      -0.043   2.386  20.883  0.00  0.00    +0.000 HD
ATOM     22  H   UNL     1       0.319   3.851  21.575  0.00  0.00    +0.000 HD
ENDBRANCH   7  20
BRANCH   1  23
ATOM     23  O   UNL     1       2.426   7.923  18.031  0.00  0.00    +0.000 OA
BRANCH  23  28
ATOM     24  C   UNL     1       0.659  10.774  19.314  0.00  0.00    +0.000 A 
ATOM     25  C   UNL     1       0.596  10.453  20.718  0.00  0.00    +0.000 A 
ATOM     26  C   UNL     1       1.012   9.177  21.205  0.00  0.00    +0.000 A 
ATOM     27  C   UNL     1       1.671   8.276  20.345  0.00  0.00    +0.000 A 
ATOM     28  C   UNL     1       1.586   8.531  18.957  0.00  0.00    +0.000 A 
ATOM     29  C   UNL     1       0.772   9.603  18.549  0.00  0.00    +0.000 A 
BRANCH  24  31
ATOM     30  C   UNL     1       2.626  12.851  18.197  0.00  0.00    +0.000 C 
ATOM     31  O   UNL     1       1.268  11.995  18.732  0.00  0.00    +0.000 OA
ENDBRANCH  24  31
BRANCH  26  32
ATOM     32  O   UNL     1       0.826   9.019  22.558  0.00  0.00    +0.000 OA
ATOM     33  C   UNL     1      -0.287   9.697  23.126  0.00  0.00    +0.000 C 
ENDBRANCH  26  32
ENDBRANCH  23  28
ENDBRANCH   1  23
TORSDOF 7
ENDMDL
MODEL 2
REMARK VINA RESULT:      -8.0      4.495      7.203
REMARK  Name = 
REMARK  9 active torsions:
REMARK  status: ('A' for Active; 'I' for Inactive)
REMARK    1  A    between atoms: C_1  and  O_2
REMARK    2  A    between atoms: O_2  and  C_3
REMARK    3  A    between atoms: C_5  and  O_6
REMARK    4  A    between atoms: O_6  and  C_7
REMARK    5  A    between atoms: C_9  and  O_10
REMARK    6  A    between atoms: O_10  and  C_11
REMARK    7  A    between atoms: C_15  and  N_16
REMARK    8  A    between atoms: C_18  and  N_19
REMARK    9  A    between atoms: C_22  and  C_23
REMARK                            x       y       z     vdW  Elec       q    Type
REMARK                         _______ _______ _______ _____ _____    ______ ____
ROOT
ATOM      1  C   UNL     1       4.740   3.308  17.077  0.00  0.00    +0.000 A 
ATOM      2  N   UNL     1       4.194   2.356  17.856  0.00  0.00    +0.000 NA
ATOM      3  C   UNL     1       3.175   2.871  18.713  0.00  0.00    +0.000 A 
ATOM      4  C   UNL     1       3.473   3.477  19.932  0.00  0.00    +0.000 A 
ATOM      5  C   UNL     1       2.420   4.041  20.703  0.00  0.00    +0.000 A 
ATOM      6  C   UNL     1       1.114   3.705  20.244  0.00  0.00    +0.000 A 
ATOM      7  C   UNL     1       1.095   3.274  18.936  0.00  0.00    +0.000 A 
ATOM      8  C   UNL     1       2.292   3.519  18.134  0.00  0.00    +0.000 A 
ATOM      9  N   UNL     1       2.966   4.718  17.599  0.00  0.00    +0.000 NA
ATOM     10  C   UNL     1       4.366   4.642  17.206  0.00  0.00    +0.000 A 
ENDROOT
BRANCH  10  11
ATOM     11  C   UNL     1       5.521   5.793  17.878  0.00  0.00    +0.000 A 
ATOM     12  C   UNL     1       6.531   5.340  19.048  0.00  0.00    +0.000 A 
ATOM     13  C   UNL     1       7.985   6.206  19.284  0.00  0.00    +0.000 A 
ATOM     14  C   UNL     1       8.219   7.491  18.345  0.00  0.00    +0.000 A 
ATOM     15  C   UNL     1       7.183   7.933  17.268  0.00  0.00    +0.000 A 
ATOM     16  C   UNL     1       5.821   7.075  17.020  0.00  0.00    +0.000 A 
ENDBRANCH  10  11
BRANCH   5  17
ATOM     17  N   UNL     1       2.578   4.968  21.656  0.00  0.00    +0.000 N 
ATOM     18  H   UNL     1       2.229   5.918  21.483  0.00  0.00    +0.000 HD
ATOM     19  H   UNL     1       3.330   4.882  22.331  0.00  0.00    +0.000 HD
ENDBRANCH   5  17
BRANCH   7  20
ATOM     20  N   UNL     1      -0.014   2.436  18.611  0.00  0.00    +0.000 N 
ATOM     21  H   UNL     1      -0.423   1.989  19.417  0.00  0.00    +0.000 HD
ATOM     22  H   UNL     1       0.215   1.693  17.914  0.00  0.00    +0.000 HD
ENDBRANCH   7  20
BRANCH   1  23
ATOM     23  O   UNL     1       5.576   2.765  16.047  0.00  0.00    +0.000 OA
BRANCH  23  28
ATOM     24  C   UNL     1       5.758   3.625  12.564  0.00  0.00    +0.000 A 
ATOM     25  C   UNL     1       6.884   4.525  12.558  0.00  0.00    +0.000 A 
ATOM     26  C   UNL     1       7.480   4.972  13.777  0.00  0.00    +0.000 A 
ATOM     27  C   UNL     1       7.100   4.389  15.002  0.00  0.00    +0.000 A 
ATOM     28  C   UNL     1       5.904   3.636  15.014  0.00  0.00    +0.000 A 
ATOM     29  C   UNL     1       5.147   3.613  13.827  0.00  0.00    +0.000 A 
BRANCH  24  31
ATOM     30  C   UNL     1       6.352   1.001  11.084  0.00  0.00    +0.000 C 
ATOM     31  O   UNL     1       5.646   2.375  11.774  0.00  0.00    +0.000 OA
ENDBRANCH  24  31
BRANCH  26  32
ATOM     32  O   UNL     1       8.501   5.874  13.589  0.00  0.00    +0.000 OA
ATOM     33  C   UNL     1       8.770   6.252  12.245  0.00  0.00    +0.000 C 
ENDBRANCH  26  32
ENDBRANCH  23  28
ENDBRANCH   1  23
TORSDOF 7
ENDMDL
MODEL 3
REMARK VINA RESULT:      -7.9      1.222      1.601
REMARK  Name = 
REMARK  9 active torsions:
REMARK  status: ('A' for Active; 'I' for Inactive)
REMARK    1  A    between atoms: C_1  and  O_2
REMARK    2  A    between atoms: O_2  and  C_3
REMARK    3  A    between atoms: C_5  and  O_6
REMARK    4  A    between atoms: O_6  and  C_7
REMARK    5  A    between atoms: C_9  and  O_10
REMARK    6  A    between atoms: O_10  and  C_11
REMARK    7  A    between atoms: C_15  and  N_16
REMARK    8  A    between atoms: C_18  and  N_19
REMARK    9  A    between atoms: C_22  and  C_23
REMARK                            x       y       z     vdW  Elec       q    Type
REMARK                         _______ _______ _______ _____ _____    ______ ____
ROOT
ATOM      1  C   UNL     1       2.595   6.542  18.158  0.00  0.00    +0.000 A 
ATOM      2  N   UNL     1       1.729   5.678  17.598  0.00  0.00    +0.000 NA
ATOM      3  C   UNL     1       1.904   4.344  18.076  0.00  0.00    +0.000 A 
ATOM      4  C   UNL     1       2.864   3.488  17.539  0.00  0.00    +0.000 A 
ATOM      5  C   UNL     1       3.042   2.200  18.112  0.00  0.00    +0.000 A 
ATOM      6  C   UNL     1       2.032   1.827  19.044  0.00  0.00    +0.000 A 
ATOM      7  C   UNL     1       1.329   2.904  19.537  0.00  0.00    +0.000 A 
ATOM      8  C   UNL     1       1.895   4.233  19.310  0.00  0.00    +0.000 A 
ATOM      9  N   UNL     1       3.092   4.954  19.783  0.00  0.00    +0.000 NA
ATOM     10  C   UNL     1       3.584   6.102  19.034  0.00  0.00    +0.000 A 
ENDROOT
BRANCH  10  11
ATOM     11  C   UNL     1       5.268   6.143  18.512  0.00  0.00    +0.000 A 
ATOM     12  C   UNL     1       5.761   7.247  17.447  0.00  0.00    +0.000 A 
ATOM     13  C   UNL     1       7.415   7.673  17.385  0.00  0.00    +0.000 A 
ATOM     14  C   UNL     1       8.402   6.872  18.368  0.00  0.00    +0.000 A 
ATOM     15  C   UNL     1       7.892   5.764  19.338  0.00  0.00    +0.000 A 
ATOM     16  C   UNL     1       6.307   5.396  19.423  0.00  0.00    +0.000 A 
ENDBRANCH  10  11
BRANCH   5  17
ATOM     17  N   UNL     1       4.142   1.446  17.978  0.00  0.00    +0.000 N 
ATOM     18  H   UNL     1       4.626   1.125  18.825  0.00  0.00    +0.000 HD
ATOM     19  H   UNL     1       4.704   1.510  17.137  0.00  0.00    +0.000 HD
ENDBRANCH   5  17
BRANCH   7  20
ATOM     20  N   UNL     1       0.019   2.585  20.005  0.00  0.00    +0.000 N 
ATOM     21  H   UNL     1      -0.581   2.218  19.282  0.00  0.00    +0.000 HD
ATOM     22  H   UNL     1      -0.472   3.391  20.451  0.00  0.00    +0.000 HD
ENDBRANCH   7  20
BRANCH   1  23
ATOM     23  O   UNL     1       2.268   7.910  17.880  0.00  0.00    +0.000 OA
BRANCH  23  28
ATOM     24  C   UNL     1       0.792  10.863  19.295  0.00  0.00    +0.000 A 
ATOM     25  C   UNL     1       0.746  10.509  20.692  0.00  0.00    +0.000 A 
ATOM     26  C   UNL     1       1.066   9.188  21.131  0.00  0.00    +0.000 A 
ATOM     27  C   UNL     1       1.620   8.260  20.226  0.00  0.00    +0.000 A 
ATOM     28  C   UNL     1       1.513   8.560  18.849  0.00  0.00    +0.000 A 
ATOM     29  C   UNL     1       0.780   9.709  18.496  0.00  0.00    +0.000 A 
BRANCH  24  31
ATOM     30  C   UNL     1       1.894  13.684  18.789  0.00  0.00    +0.000 C 
ATOM     31  O   UNL     1       1.485  12.044  18.724  0.00  0.00    +0.000 OA
ENDBRANCH  24  31
BRANCH  26  32
ATOM     32  O   UNL     1       0.910   9.008  22.485  0.00  0.00    +0.000 OA
ATOM     33  C   UNL     1      -0.232   9.614  23.075  0.00  0.00    +0.000 C 
ENDBRANCH  26  32
ENDBRANCH  23  28
ENDBRANCH   1  23
TORSDOF 7
ENDMDL
MODEL 4
REMARK VINA RESULT:      -7.3      1.959      5.010
REMARK  Name = 
REMARK  9 active torsions:
REMARK  status: ('A' for Active; 'I' for Inactive)
REMARK    1  A    between atoms: C_1  and  O_2
REMARK    2  A    between atoms: O_2  and  C_3
REMARK    3  A    between atoms: C_5  and  O_6
REMARK    4  A    between atoms: O_6  and  C_7
REMARK    5  A    between atoms: C_9  and  O_10
REMARK    6  A    between atoms: O_10  and  C_11
REMARK    7  A    between atoms: C_15  and  N_16
REMARK    8  A    between atoms: C_18  and  N_19
REMARK    9  A    between atoms: C_22  and  C_23
REMARK                            x       y       z     vdW  Elec       q    Type
REMARK                         _______ _______ _______ _____ _____    ______ ____
ROOT
ATOM      1  C   UNL     1       3.037   6.447  17.592  0.00  0.00    +0.000 A 
ATOM      2  N   UNL     1       4.104   7.165  17.198  0.00  0.00    +0.000 NA
ATOM      3  C   UNL     1       5.225   6.343  16.875  0.00  0.00    +0.000 A 
ATOM      4  C   UNL     1       6.100   5.871  17.852  0.00  0.00    +0.000 A 
ATOM      5  C   UNL     1       7.151   4.991  17.476  0.00  0.00    +0.000 A 
ATOM      6  C   UNL     1       7.342   4.874  16.069  0.00  0.00    +0.000 A 
ATOM      7  C   UNL     1       6.244   5.273  15.340  0.00  0.00    +0.000 A 
ATOM      8  C   UNL     1       4.984   5.437  16.064  0.00  0.00    +0.000 A 
ATOM      9  N   UNL     1       4.045   4.529  16.749  0.00  0.00    +0.000 NA
ATOM     10  C   UNL     1       3.113   5.064  17.732  0.00  0.00    +0.000 A 
ENDROOT
BRANCH  10  11
ATOM     11  C   UNL     1       3.056   4.363  19.349  0.00  0.00    +0.000 A 
ATOM     12  C   UNL     1       1.724   4.496  20.245  0.00  0.00    +0.000 A 
ATOM     13  C   UNL     1       1.442   3.372  21.501  0.00  0.00    +0.000 A 
ATOM     14  C   UNL     1       2.589   2.275  21.756  0.00  0.00    +0.000 A 
ATOM     15  C   UNL     1       3.895   2.223  20.907  0.00  0.00    +0.000 A 
ATOM     16  C   UNL     1       4.134   3.270  19.682  0.00  0.00    +0.000 A 
ENDBRANCH  10  11
BRANCH   5  17
ATOM     17  N   UNL     1       7.800   4.170  18.311  0.00  0.00    +0.000 N 
ATOM     18  H   UNL     1       7.690   4.307  19.323  0.00  0.00    +0.000 HD
ATOM     19  H   UNL     1       8.651   3.707  18.011  0.00  0.00    +0.000 HD
ENDBRANCH   5  17
BRANCH   7  20
ATOM     20  N   UNL     1       6.545   5.694  14.010  0.00  0.00    +0.000 N 
ATOM     21  H   UNL     1       5.724   5.809  13.435  0.00  0.00    +0.000 HD
ATOM     22  H   UNL     1       7.201   5.055  13.509  0.00  0.00    +0.000 HD
ENDBRANCH   7  20
BRANCH   1  23
ATOM     23  O   UNL     1       1.841   7.235  17.676  0.00  0.00    +0.000 OA
BRANCH  23  28
ATOM     24  C   UNL     1       1.314   9.314  20.557  0.00  0.00    +0.000 A 
ATOM     25  C   UNL     1       1.260  10.621  19.950  0.00  0.00    +0.000 A 
ATOM     26  C   UNL     1       1.573  10.809  18.570  0.00  0.00    +0.000 A 
ATOM     27  C   UNL     1       1.753   9.692  17.729  0.00  0.00    +0.000 A 
ATOM     28  C   UNL     1       1.959   8.441  18.356  0.00  0.00    +0.000 A 
ATOM     29  C   UNL     1       2.062   8.435  19.759  0.00  0.00    +0.000 A 
BRANCH  24  31
ATOM     30  C   UNL     1      -0.801   8.745  22.709  0.00  0.00    +0.000 C 
ATOM     31  O   UNL     1       0.245   8.698  21.381  0.00  0.00    +0.000 OA
ENDBRANCH  24  31
BRANCH  26  32
ATOM     32  O   UNL     1       1.532  12.125  18.173  0.00  0.00    +0.000 OA
ATOM     33  C   UNL     1       2.392  13.020  18.866  0.00  0.00    +0.000 C 
ENDBRANCH  26  32
ENDBRANCH  23  28
ENDBRANCH   1  23
TORSDOF 7
ENDMDL
MODEL 5
REMARK VINA RESULT:      -7.2      1.503      2.433
REMARK  Name = 
REMARK  9 active torsions:
REMARK  status: ('A' for Active; 'I' for Inactive)
REMARK    1  A    between atoms: C_1  and  O_2
REMARK    2  A    between atoms: O_2  and  C_3
REMARK    3  A    between atoms: C_5  and  O_6
REMARK    4  A    between atoms: O_6  and  C_7
REMARK    5  A    between atoms: C_9  and  O_10
REMARK    6  A    between atoms: O_10  and  C_11
REMARK    7  A    between atoms: C_15  and  N_16
REMARK    8  A    between atoms: C_18  and  N_19
REMARK    9  A    between atoms: C_22  and  C_23
REMARK                            x       y       z     vdW  Elec       q    Type
REMARK                         _______ _______ _______ _____ _____    ______ ____
ROOT
ATOM      1  C   UNL     1       2.340   6.073  18.213  0.00  0.00    +0.000 A 
ATOM      2  N   UNL     1       1.576   4.972  18.330  0.00  0.00    +0.000 NA
ATOM      3  C   UNL     1       2.138   4.010  19.222  0.00  0.00    +0.000 A 
ATOM      4  C   UNL     1       3.111   3.101  18.810  0.00  0.00    +0.000 A 
ATOM      5  C   UNL     1       3.689   2.222  19.766  0.00  0.00    +0.000 A 
ATOM      6  C   UNL     1       3.023   2.206  21.025  0.00  0.00    +0.000 A 
ATOM      7  C   UNL     1       2.236   3.316  21.234  0.00  0.00    +0.000 A 
ATOM      8  C   UNL     1       2.436   4.455  20.340  0.00  0.00    +0.000 A 
ATOM      9  N   UNL     1       3.524   5.423  20.105  0.00  0.00    +0.000 NA
ATOM     10  C   UNL     1       3.573   6.162  18.851  0.00  0.00    +0.000 A 
ENDROOT
BRANCH  10  11
ATOM     11  C   UNL     1       5.044   6.130  17.879  0.00  0.00    +0.000 A 
ATOM     12  C   UNL     1       6.397   5.489  18.474  0.00  0.00    +0.000 A 
ATOM     13  C   UNL     1       7.602   4.928  17.400  0.00  0.00    +0.000 A 
ATOM     14  C   UNL     1       7.329   5.150  15.831  0.00  0.00    +0.000 A 
ATOM     15  C   UNL     1       6.034   5.836  15.301  0.00  0.00    +0.000 A 
ATOM     16  C   UNL     1       4.870   6.326  16.330  0.00  0.00    +0.000 A 
ENDBRANCH  10  11
BRANCH   5  17
ATOM     17  N   UNL     1       4.864   1.597  19.621  0.00  0.00    +0.000 N 
ATOM     18  H   UNL     1       5.696   2.156  19.397  0.00  0.00    +0.000 HD
ATOM     19  H   UNL     1       4.892   0.621  19.347  0.00  0.00    +0.000 HD
ENDBRANCH   5  17
BRANCH   7  20
ATOM     20  N   UNL     1       1.169   3.113  22.159  0.00  0.00    +0.000 N 
ATOM     21  H   UNL     1       0.749   3.973  22.476  0.00  0.00    +0.000 HD
ATOM     22  H   UNL     1       1.446   2.561  23.001  0.00  0.00    +0.000 HD
ENDBRANCH   7  20
BRANCH   1  23
ATOM     23  O   UNL     1       1.671   7.139  17.525  0.00  0.00    +0.000 OA
BRANCH  23  28
ATOM     24  C   UNL     1       0.157   9.911  19.236  0.00  0.00    +0.000 A 
ATOM     25  C   UNL     1       1.024  10.991  18.836  0.00  0.00    +0.000 A 
ATOM     26  C   UNL     1       2.230  10.742  18.114  0.00  0.00    +0.000 A 
ATOM     27  C   UNL     1       2.498   9.453  17.611  0.00  0.00    +0.000 A 
ATOM     28  C   UNL     1       1.734   8.386  18.136  0.00  0.00    +0.000 A 
ATOM     29  C   UNL     1       0.842   8.687  19.182  0.00  0.00    +0.000 A 
BRANCH  24  31
ATOM     30  C   UNL     1      -2.654  10.077  18.011  0.00  0.00    +0.000 C 
ATOM     31  O   UNL     1      -1.308   9.848  19.009  0.00  0.00    +0.000 OA
ENDBRANCH  24  31
BRANCH  26  32
ATOM     32  O   UNL     1       2.967  11.878  17.870  0.00  0.00    +0.000 OA
ATOM     33  C   UNL     1       2.486  13.080  18.457  0.00  0.00    +0.000 C 
ENDBRANCH  26  32
ENDBRANCH  23  28
ENDBRANCH   1  23
TORSDOF 7
ENDMDL
MODEL 6
REMARK VINA RESULT:      -7.2      7.193     10.190
REMARK  Name = 
REMARK  9 active torsions:
REMARK  status: ('A' for Active; 'I' for Inactive)
REMARK    1  A    between atoms: C_1  and  O_2
REMARK    2  A    between atoms: O_2  and  C_3
REMARK    3  A    between atoms: C_5  and  O_6
REMARK    4  A    between atoms: O_6  and  C_7
REMARK    5  A    between atoms: C_9  and  O_10
REMARK    6  A    between atoms: O_10  and  C_11
REMARK    7  A    between atoms: C_15  and  N_16
REMARK    8  A    between atoms: C_18  and  N_19
REMARK    9  A    between atoms: C_22  and  C_23
REMARK                            x       y       z     vdW  Elec       q    Type
REMARK                         _______ _______ _______ _____ _____    ______ ____
ROOT
ATOM      1  C   UNL     1      -0.406  11.855  19.830  0.00  0.00    +0.000 A 
ATOM      2  N   UNL     1      -0.135  12.673  18.796  0.00  0.00    +0.000 NA
ATOM      3  C   UNL     1       0.874  13.632  19.111  0.00  0.00    +0.000 A 
ATOM      4  C   UNL     1       0.578  14.824  19.772  0.00  0.00    +0.000 A 
ATOM      5  C   UNL     1       1.637  15.702  20.127  0.00  0.00    +0.000 A 
ATOM      6  C   UNL     1       2.894  15.371  19.543  0.00  0.00    +0.000 A 
ATOM      7  C   UNL     1       2.960  14.066  19.107  0.00  0.00    +0.000 A 
ATOM      8  C   UNL     1       1.918  13.152  19.573  0.00  0.00    +0.000 A 
ATOM      9  N   UNL     1       1.545  12.568  20.875  0.00  0.00    +0.000 NA
ATOM     10  C   UNL     1       0.203  12.037  21.068  0.00  0.00    +0.000 A 
ENDROOT
BRANCH  10  11
ATOM     11  C   UNL     1      -0.771  12.605  22.425  0.00  0.00    +0.000 A 
ATOM     12  C   UNL     1      -0.730  14.156  22.860  0.00  0.00    +0.000 A 
ATOM     13  C   UNL     1      -2.043  14.818  23.731  0.00  0.00    +0.000 A 
ATOM     14  C   UNL     1      -3.227  13.805  24.129  0.00  0.00    +0.000 A 
ATOM     15  C   UNL     1      -3.195  12.296  23.744  0.00  0.00    +0.000 A 
ATOM     16  C   UNL     1      -1.961  11.683  22.875  0.00  0.00    +0.000 A 
ENDBRANCH  10  11
BRANCH   5  17
ATOM     17  N   UNL     1       1.567  16.646  21.074  0.00  0.00    +0.000 N 
ATOM     18  H   UNL     1       1.616  17.632  20.792  0.00  0.00    +0.000 HD
ATOM     19  H   UNL     1       1.850  16.436  22.025  0.00  0.00    +0.000 HD
ENDBRANCH   5  17
BRANCH   7  20
ATOM     20  N   UNL     1       3.913  13.842  18.069  0.00  0.00    +0.000 N 
ATOM     21  H   UNL     1       3.599  13.178  17.378  0.00  0.00    +0.000 HD
ATOM     22  H   UNL     1       4.844  13.524  18.420  0.00  0.00    +0.000 HD
ENDBRANCH   7  20
BRANCH   1  23
ATOM     23  O   UNL     1      -1.225  10.740  19.452  0.00  0.00    +0.000 OA
BRANCH  23  28
ATOM     24  C   UNL     1      -4.349  11.316  17.777  0.00  0.00    +0.000 A 
ATOM     25  C   UNL     1      -4.114  10.659  16.516  0.00  0.00    +0.000 A 
ATOM     26  C   UNL     1      -2.820  10.161  16.171  0.00  0.00    +0.000 A 
ATOM     27  C   UNL     1      -1.796  10.132  17.138  0.00  0.00    +0.000 A 
ATOM     28  C   UNL     1      -1.987  10.912  18.303  0.00  0.00    +0.000 A 
ATOM     29  C   UNL     1      -3.135  11.723  18.352  0.00  0.00    +0.000 A 
BRANCH  24  31
ATOM     30  C   UNL     1      -6.825  10.112  19.139  0.00  0.00    +0.000 C 
ATOM     31  O   UNL     1      -5.446  11.000  18.726  0.00  0.00    +0.000 OA
ENDBRANCH  24  31
BRANCH  26  32
ATOM     32  O   UNL     1      -2.760   9.621  14.908  0.00  0.00    +0.000 OA
ATOM     33  C   UNL     1      -3.710  10.105  13.968  0.00  0.00    +0.000 C 
ENDBRANCH  26  32
ENDBRANCH  23  28
ENDBRANCH   1  23
TORSDOF 7
ENDMDL
MODEL 7
REMARK VINA RESULT:      -7.2      3.722      8.468
REMARK  Name = 
REMARK  9 active torsions:
REMARK  status: ('A' for Active; 'I' for Inactive)
REMARK    1  A    between atoms: C_1  and  O_2
REMARK    2  A    between atoms: O_2  and  C_3
REMARK    3  A    between atoms: C_5  and  O_6
REMARK    4  A    between atoms: O_6  and  C_7
REMARK    5  A    between atoms: C_9  and  O_10
REMARK    6  A    between atoms: O_10  and  C_11
REMARK    7  A    between atoms: C_15  and  N_16
REMARK    8  A    between atoms: C_18  and  N_19
REMARK    9  A    between atoms: C_22  and  C_23
REMARK                            x       y       z     vdW  Elec       q    Type
REMARK                         _______ _______ _______ _____ _____    ______ ____
ROOT
ATOM      1  C   UNL     1       1.359  10.296  18.051  0.00  0.00    +0.000 A 
ATOM      2  N   UNL     1       2.151  11.368  17.861  0.00  0.00    +0.000 NA
ATOM      3  C   UNL     1       1.793  12.465  18.700  0.00  0.00    +0.000 A 
ATOM      4  C   UNL     1       0.774  13.354  18.359  0.00  0.00    +0.000 A 
ATOM      5  C   UNL     1       0.412  14.379  19.274  0.00  0.00    +0.000 A 
ATOM      6  C   UNL     1       1.314  14.536  20.366  0.00  0.00    +0.000 A 
ATOM      7  C   UNL     1       2.107  13.429  20.574  0.00  0.00    +0.000 A 
ATOM      8  C   UNL     1       1.714  12.189  19.905  0.00  0.00    +0.000 A 
ATOM      9  N   UNL     1       0.584  11.249  20.025  0.00  0.00    +0.000 NA
ATOM     10  C   UNL     1       0.275  10.350  18.922  0.00  0.00    +0.000 A 
ENDROOT
BRANCH  10  11
ATOM     11  C   UNL     1      -1.358  10.317  18.257  0.00  0.00    +0.000 A 
ATOM     12  C   UNL     1      -2.472  11.351  18.790  0.00  0.00    +0.000 A 
ATOM     13  C   UNL     1      -3.812  11.726  17.797  0.00  0.00    +0.000 A 
ATOM     14  C   UNL     1      -3.910  10.946  16.395  0.00  0.00    +0.000 A 
ATOM     15  C   UNL     1      -2.842   9.903  15.947  0.00  0.00    +0.000 A 
ATOM     16  C   UNL     1      -1.544   9.586  16.879  0.00  0.00    +0.000 A 
ENDBRANCH  10  11
BRANCH   5  17
ATOM     17  N   UNL     1      -0.757  15.031  19.272  0.00  0.00    +0.000 N 
ATOM     18  H   UNL     1      -0.837  15.901  19.811  0.00  0.00    +0.000 HD
ATOM     19  H   UNL     1      -1.621  14.529  19.100  0.00  0.00    +0.000 HD
ENDBRANCH   5  17
BRANCH   7  20
ATOM     20  N   UNL     1       3.340  13.707  21.237  0.00  0.00    +0.000 N 
ATOM     21  H   UNL     1       4.125  13.765  20.606  0.00  0.00    +0.000 HD
ATOM     22  H   UNL     1       3.578  13.016  21.982  0.00  0.00    +0.000 HD
ENDBRANCH   7  20
BRANCH   1  23
ATOM     23  O   UNL     1       1.860   9.118  17.404  0.00  0.00    +0.000 OA
BRANCH  23  28
ATOM     24  C   UNL     1       4.106   6.374  17.977  0.00  0.00    +0.000 A 
ATOM     25  C   UNL     1       3.491   5.746  19.120  0.00  0.00    +0.000 A 
ATOM     26  C   UNL     1       2.397   6.359  19.801  0.00  0.00    +0.000 A 
ATOM     27  C   UNL     1       1.773   7.497  19.252  0.00  0.00    +0.000 A 
ATOM     28  C   UNL     1       2.473   8.187  18.235  0.00  0.00    +0.000 A 
ATOM     29  C   UNL     1       3.769   7.736  17.927  0.00  0.00    +0.000 A 
BRANCH  24  31
ATOM     30  C   UNL     1       5.408   5.417  15.366  0.00  0.00    +0.000 C 
ATOM     31  O   UNL     1       4.379   5.721  16.673  0.00  0.00    +0.000 OA
ENDBRANCH  24  31
BRANCH  26  32
ATOM     32  O   UNL     1       1.974   5.655  20.904  0.00  0.00    +0.000 OA
ATOM     33  C   UNL     1       2.228   4.256  20.896  0.00  0.00    +0.000 C 
ENDBRANCH  26  32
ENDBRANCH  23  28
ENDBRANCH   1  23
TORSDOF 7
ENDMDL
MODEL 8
REMARK VINA RESULT:      -7.1      4.646      7.994
REMARK  Name = 
REMARK  9 active torsions:
REMARK  status: ('A' for Active; 'I' for Inactive)
REMARK    1  A    between atoms: C_1  and  O_2
REMARK    2  A    between atoms: O_2  and  C_3
REMARK    3  A    between atoms: C_5  and  O_6
REMARK    4  A    between atoms: O_6  and  C_7
REMARK    5  A    between atoms: C_9  and  O_10
REMARK    6  A    between atoms: O_10  and  C_11
REMARK    7  A    between atoms: C_15  and  N_16
REMARK    8  A    between atoms: C_18  and  N_19
REMARK    9  A    between atoms: C_22  and  C_23
REMARK                            x       y       z     vdW  Elec       q    Type
REMARK                         _______ _______ _______ _____ _____    ______ ____
ROOT
ATOM      1  C   UNL     1       0.767  12.320  19.640  0.00  0.00    +0.000 A 
ATOM      2  N   UNL     1      -0.048  13.111  18.919  0.00  0.00    +0.000 NA
ATOM      3  C   UNL     1      -1.394  12.636  18.903  0.00  0.00    +0.000 A 
ATOM      4  C   UNL     1      -1.818  11.651  18.012  0.00  0.00    +0.000 A 
ATOM      5  C   UNL     1      -3.150  11.164  18.098  0.00  0.00    +0.000 A 
ATOM      6  C   UNL     1      -3.998  11.924  18.955  0.00  0.00    +0.000 A 
ATOM      7  C   UNL     1      -3.301  12.704  19.851  0.00  0.00    +0.000 A 
ATOM      8  C   UNL     1      -1.878  12.416  20.022  0.00  0.00    +0.000 A 
ATOM      9  N   UNL     1      -1.097  11.295  20.579  0.00  0.00    +0.000 NA
ATOM     10  C   UNL     1       0.302  11.138  20.208  0.00  0.00    +0.000 A 
ENDROOT
BRANCH  10  11
ATOM     11  C   UNL     1       0.861   9.598  19.555  0.00  0.00    +0.000 A 
ATOM     12  C   UNL     1       1.461   9.519  18.062  0.00  0.00    +0.000 A 
ATOM     13  C   UNL     1       2.508   8.235  17.645  0.00  0.00    +0.000 A 
ATOM     14  C   UNL     1       2.774   7.125  18.777  0.00  0.00    +0.000 A 
ATOM     15  C   UNL     1       2.121   7.206  20.189  0.00  0.00    +0.000 A 
ATOM     16  C   UNL     1       1.159   8.457  20.593  0.00  0.00    +0.000 A 
ENDBRANCH  10  11
BRANCH   5  17
ATOM     17  N   UNL     1      -3.572   9.993  17.605  0.00  0.00    +0.000 N 
ATOM     18  H   UNL     1      -4.182   9.996  16.779  0.00  0.00    +0.000 HD
ATOM     19  H   UNL     1      -3.639   9.180  18.208  0.00  0.00    +0.000 HD
ENDBRANCH   5  17
BRANCH   7  20
ATOM     20  N   UNL     1      -4.021  13.842  20.321  0.00  0.00    +0.000 N 
ATOM     21  H   UNL     1      -3.525  14.361  21.030  0.00  0.00    +0.000 HD
ATOM     22  H   UNL     1      -4.967  13.611  20.697  0.00  0.00    +0.000 HD
ENDBRANCH   7  20
BRANCH   1  23
ATOM     23  O   UNL     1       2.051  12.915  19.871  0.00  0.00    +0.000 OA
BRANCH  23  28
ATOM     24  C   UNL     1       4.203  14.980  17.870  0.00  0.00    +0.000 A 
ATOM     25  C   UNL     1       3.711  16.295  18.198  0.00  0.00    +0.000 A 
ATOM     26  C   UNL     1       2.528  16.468  18.979  0.00  0.00    +0.000 A 
ATOM     27  C   UNL     1       1.928  15.357  19.605  0.00  0.00    +0.000 A 
ATOM     28  C   UNL     1       2.318  14.075  19.153  0.00  0.00    +0.000 A 
ATOM     29  C   UNL     1       3.197  14.020  18.056  0.00  0.00    +0.000 A 
BRANCH  24  31
ATOM     30  C   UNL     1       7.235  14.553  17.632  0.00  0.00    +0.000 C 
ATOM     31  O   UNL     1       5.598  14.508  18.054  0.00  0.00    +0.000 OA
ENDBRANCH  24  31
BRANCH  26  32
ATOM     32  O   UNL     1       2.168  17.785  19.144  0.00  0.00    +0.000 OA
ATOM     33  C   UNL     1       1.020  18.220  18.428  0.00  0.00    +0.000 C 
ENDBRANCH  26  32
ENDBRANCH  23  28
ENDBRANCH   1  23
TORSDOF 7
ENDMDL
MODEL 9
REMARK VINA RESULT:      -7.0      6.024     10.054
REMARK  Name = 
REMARK  9 active torsions:
REMARK  status: ('A' for Active; 'I' for Inactive)
REMARK    1  A    between atoms: C_1  and  O_2
REMARK    2  A    between atoms: O_2  and  C_3
REMARK    3  A    between atoms: C_5  and  O_6
REMARK    4  A    between atoms: O_6  and  C_7
REMARK    5  A    between atoms: C_9  and  O_10
REMARK    6  A    between atoms: O_10  and  C_11
REMARK    7  A    between atoms: C_15  and  N_16
REMARK    8  A    between atoms: C_18  and  N_19
REMARK    9  A    between atoms: C_22  and  C_23
REMARK                            x       y       z     vdW  Elec       q    Type
REMARK                         _______ _______ _______ _____ _____    ______ ____
ROOT
ATOM      1  C   UNL     1      -2.531  13.138  20.153  0.00  0.00    +0.000 A 
ATOM      2  N   UNL     1      -3.870  13.140  20.285  0.00  0.00    +0.000 NA
ATOM      3  C   UNL     1      -4.288  13.543  21.589  0.00  0.00    +0.000 A 
ATOM      4  C   UNL     1      -4.341  12.649  22.657  0.00  0.00    +0.000 A 
ATOM      5  C   UNL     1      -4.689  13.129  23.948  0.00  0.00    +0.000 A 
ATOM      6  C   UNL     1      -5.189  14.463  23.962  0.00  0.00    +0.000 A 
ATOM      7  C   UNL     1      -4.853  15.178  22.834  0.00  0.00    +0.000 A 
ATOM      8  C   UNL     1      -3.810  14.619  21.975  0.00  0.00    +0.000 A 
ATOM      9  N   UNL     1      -2.360  14.384  22.109  0.00  0.00    +0.000 NA
ATOM     10  C   UNL     1      -1.702  13.423  21.234  0.00  0.00    +0.000 A 
ENDROOT
BRANCH  10  11
ATOM     11  C   UNL     1      -0.737  12.125  21.938  0.00  0.00    +0.000 A 
ATOM     12  C   UNL     1      -1.358  11.184  23.088  0.00  0.00    +0.000 A 
ATOM     13  C   UNL     1      -0.699   9.628  23.345  0.00  0.00    +0.000 A 
ATOM     14  C   UNL     1       0.574   9.228  22.448  0.00  0.00    +0.000 A 
ATOM     15  C   UNL     1       1.184  10.196  21.391  0.00  0.00    +0.000 A 
ATOM     16  C   UNL     1       0.522  11.660  21.121  0.00  0.00    +0.000 A 
ENDBRANCH  10  11
BRANCH   5  17
ATOM     17  N   UNL     1      -4.407  12.507  25.100  0.00  0.00    +0.000 N 
ATOM     18  H   UNL     1      -5.079  12.573  25.874  0.00  0.00    +0.000 HD
ATOM     19  H   UNL     1      -3.444  12.321  25.357  0.00  0.00    +0.000 HD
ENDBRANCH   5  17
BRANCH   7  20
ATOM     20  N   UNL     1      -5.738  16.257  22.538  0.00  0.00    +0.000 N 
ATOM     21  H   UNL     1      -6.492  16.345  23.202  0.00  0.00    +0.000 HD
ATOM     22  H   UNL     1      -6.157  16.203  21.583  0.00  0.00    +0.000 HD
ENDBRANCH   7  20
BRANCH   1  23
ATOM     23  O   UNL     1      -2.111  12.981  18.791  0.00  0.00    +0.000 OA
BRANCH  23  28
ATOM     24  C   UNL     1      -1.036   9.685  17.851  0.00  0.00    +0.000 A 
ATOM     25  C   UNL     1      -1.898   9.422  16.726  0.00  0.00    +0.000 A 
ATOM     26  C   UNL     1      -2.967  10.307  16.390  0.00  0.00    +0.000 A 
ATOM     27  C   UNL     1      -3.080  11.554  17.037  0.00  0.00    +0.000 A 
ATOM     28  C   UNL     1      -2.338  11.730  18.229  0.00  0.00    +0.000 A 
ATOM     29  C   UNL     1      -1.630  10.616  18.716  0.00  0.00    +0.000 A 
BRANCH  24  31
ATOM     30  C   UNL     1       1.913   8.830  17.820  0.00  0.00    +0.000 C 
ATOM     31  O   UNL     1       0.448   9.674  17.825  0.00  0.00    +0.000 OA
ENDBRANCH  24  31
BRANCH  26  32
ATOM     32  O   UNL     1      -3.727   9.872  15.330  0.00  0.00    +0.000 OA
ATOM     33  C   UNL     1      -3.214  10.145  14.032  0.00  0.00    +0.000 C 
ENDBRANCH  26  32
ENDBRANCH  23  28
ENDBRANCH   1  23
TORSDOF 7
ENDMDL
