MODEL 1
REMARK VINA RESULT:      -8.4      0.000      0.000
REMARK  Name = 
REMARK  3 active torsions:
REMARK  status: ('A' for Active; 'I' for Inactive)
REMARK    1  A    between atoms: C_1  and  N_2
REMARK    2  A    between atoms: N_2  and  C_3
REMARK    3  A    between atoms: N_12  and  C_13
REMARK                            x       y       z     vdW  Elec       q    Type
REMARK                         _______ _______ _______ _____ _____    ______ ____
ROOT
ATOM      1  C   UNL     1       0.997  10.376  19.380  0.00  0.00    +0.000 A 
ATOM      2  N   UNL     1       1.625   9.258  18.975  0.00  0.00    +0.000 NA
ATOM      3  C   UNL     1       1.628   8.192  19.791  0.00  0.00    +0.000 A 
ATOM      4  N   UNL     1       2.195   7.031  19.360  0.00  0.00    +0.000 N 
ATOM      5  C   UNL     1       3.046   6.928  18.207  0.00  0.00    +0.000 C 
ATOM      6  C   UNL     1       2.882   5.462  17.819  0.00  0.00    +0.000 C 
ATOM      7  C   UNL     1       2.523   4.705  19.125  0.00  0.00    +0.000 C 
ATOM      8  C   UNL     1       1.324   3.752  18.930  0.00  0.00    +0.000 C 
ATOM      9  C   UNL     1       1.850   2.359  19.249  0.00  0.00    +0.000 C 
ATOM     10  N   UNL     1       3.024   2.551  20.103  0.00  0.00    +0.000 NA
ATOM     11  C   UNL     1       2.669   2.635  21.516  0.00  0.00    +0.000 C 
ATOM     12  C   UNL     1       3.655   3.780  19.601  0.00  0.00    +0.000 C 
ATOM     13  C   UNL     1       2.198   5.820  20.152  0.00  0.00    +0.000 C 
ATOM     14  N   UNL     1       1.053   8.195  20.999  0.00  0.00    +0.000 NA
ATOM     15  C   UNL     1       0.426   9.297  21.404  0.00  0.00    +0.000 A 
ATOM     16  C   UNL     1      -0.184   9.298  22.653  0.00  0.00    +0.000 A 
ATOM     17  C   UNL     1      -0.857  10.419  23.148  0.00  0.00    +0.000 A 
ATOM     18  C   UNL     1      -0.937  11.565  22.370  0.00  0.00    +0.000 A 
ATOM     19 CL   UNL     1      -1.751  12.956  22.966  0.00  0.00    +0.000 Cl
ATOM     20  C   UNL     1      -0.350  11.588  21.111  0.00  0.00    +0.000 A 
ATOM     21  C   UNL     1       0.350  10.454  20.622  0.00  0.00    +0.000 A 
ENDROOT
BRANCH   1  23
ATOM     22  C   UNL     1       2.182  12.282  18.460  0.00  0.00    +0.000 C 
ATOM     23  N   UNL     1       0.958  11.503  18.524  0.00  0.00    +0.000 N 
ATOM     24  H   UNL     1       0.162  12.080  18.784  0.00  0.00    +0.000 HD
ENDBRANCH   1  23
TORSDOF 1
ENDMDL
MODEL 2
REMARK VINA RESULT:      -8.0      1.011      1.045
REMARK  Name = 
REMARK  3 active torsions:
REMARK  status: ('A' for Active; 'I' for Inactive)
REMARK    1  A    between atoms: C_1  and  N_2
REMARK    2  A    between atoms: N_2  and  C_3
REMARK    3  A    between atoms: N_12  and  C_13
REMARK                            x       y       z     vdW  Elec       q    Type
REMARK                         _______ _______ _______ _____ _____    ______ ____
ROOT
ATOM      1  C   UNL     1       1.328   9.840  18.939  0.00  0.00    +0.000 A 
ATOM      2  N   UNL     1       2.062   8.808  18.485  0.00  0.00    +0.000 NA
ATOM      3  C   UNL     1       2.200   7.725  19.267  0.00  0.00    +0.000 A 
ATOM      4  N   UNL     1       2.877   6.646  18.787  0.00  0.00    +0.000 N 
ATOM      5  C   UNL     1       3.706   6.670  17.613  0.00  0.00    +0.000 C 
ATOM      6  C   UNL     1       3.691   5.207  17.182  0.00  0.00    +0.000 C 
ATOM      7  C   UNL     1       3.448   4.377  18.470  0.00  0.00    +0.000 C 
ATOM      8  C   UNL     1       2.354   3.306  18.271  0.00  0.00    +0.000 C 
ATOM      9  C   UNL     1       3.035   1.970  18.534  0.00  0.00    +0.000 C 
ATOM     10  N   UNL     1       4.203   2.262  19.368  0.00  0.00    +0.000 NA
ATOM     11  C   UNL     1       3.875   2.266  20.791  0.00  0.00    +0.000 C 
ATOM     12  C   UNL     1       4.685   3.567  18.892  0.00  0.00    +0.000 C 
ATOM     13  C   UNL     1       3.030   5.420  19.539  0.00  0.00    +0.000 C 
ATOM     14  N   UNL     1       1.658   7.630  20.486  0.00  0.00    +0.000 NA
ATOM     15  C   UNL     1       0.927   8.646  20.940  0.00  0.00    +0.000 A 
ATOM     16  C   UNL     1       0.351   8.544  22.201  0.00  0.00    +0.000 A 
ATOM     17  C   UNL     1      -0.426   9.570  22.746  0.00  0.00    +0.000 A 
ATOM     18  C   UNL     1      -0.648  10.723  22.006  0.00  0.00    +0.000 A 
ATOM     19 CL   UNL     1      -1.592  12.000  22.664  0.00  0.00    +0.000 Cl
ATOM     20  C   UNL     1      -0.099  10.847  20.736  0.00  0.00    +0.000 A 
ATOM     21  C   UNL     1       0.707   9.811  20.196  0.00  0.00    +0.000 A 
ENDROOT
BRANCH   1  23
ATOM     22  C   UNL     1       2.175  11.998  18.230  0.00  0.00    +0.000 C 
ATOM     23  N   UNL     1       1.146  10.980  18.121  0.00  0.00    +0.000 N 
ATOM     24  H   UNL     1       0.222  11.364  18.300  0.00  0.00    +0.000 HD
ENDBRANCH   1  23
TORSDOF 1
ENDMDL
MODEL 3
REMARK VINA RESULT:      -7.9      3.372      7.859
REMARK  Name = 
REMARK  3 active torsions:
REMARK  status: ('A' for Active; 'I' for Inactive)
REMARK    1  A    between atoms: C_1  and  N_2
REMARK    2  A    between atoms: N_2  and  C_3
REMARK    3  A    between atoms: N_12  and  C_13
REMARK                            x       y       z     vdW  Elec       q    Type
REMARK                         _______ _______ _______ _____ _____    ______ ____
ROOT
ATOM      1  C   UNL     1       3.027   5.128  19.416  0.00  0.00    +0.000 A 
ATOM      2  N   UNL     1       2.312   6.099  20.012  0.00  0.00    +0.000 NA
ATOM      3  C   UNL     1       2.297   7.320  19.454  0.00  0.00    +0.000 A 
ATOM      4  N   UNL     1       1.517   8.289  20.006  0.00  0.00    +0.000 N 
ATOM      5  C   UNL     1       0.920   8.199  21.310  0.00  0.00    +0.000 C 
ATOM      6  C   UNL     1      -0.269   9.146  21.183  0.00  0.00    +0.000 C 
ATOM      7  C   UNL     1       0.122  10.191  20.104  0.00  0.00    +0.000 C 
ATOM      8  C   UNL     1      -1.003  10.403  19.069  0.00  0.00    +0.000 C 
ATOM      9  C   UNL     1      -1.382  11.874  19.168  0.00  0.00    +0.000 C 
ATOM     10  N   UNL     1      -0.222  12.558  19.743  0.00  0.00    +0.000 NA
ATOM     11  C   UNL     1       0.735  12.973  18.721  0.00  0.00    +0.000 C 
ATOM     12  C   UNL     1       0.347  11.593  20.695  0.00  0.00    +0.000 C 
ATOM     13  C   UNL     1       1.400   9.616  19.442  0.00  0.00    +0.000 C 
ATOM     14  N   UNL     1       2.976   7.623  18.341  0.00  0.00    +0.000 NA
ATOM     15  C   UNL     1       3.682   6.665  17.744  0.00  0.00    +0.000 A 
ATOM     16  C   UNL     1       4.378   6.974  16.581  0.00  0.00    +0.000 A 
ATOM     17  C   UNL     1       5.143   6.023  15.901  0.00  0.00    +0.000 A 
ATOM     18  C   UNL     1       5.204   4.724  16.385  0.00  0.00    +0.000 A 
ATOM     19 CL   UNL     1       6.149   3.544  15.567  0.00  0.00    +0.000 Cl
ATOM     20  C   UNL     1       4.507   4.382  17.537  0.00  0.00    +0.000 A 
ATOM     21  C   UNL     1       3.748   5.357  18.235  0.00  0.00    +0.000 A 
ENDROOT
BRANCH   1  23
ATOM     22  C   UNL     1       2.285   3.669  21.206  0.00  0.00    +0.000 C 
ATOM     23  N   UNL     1       3.034   3.826  19.972  0.00  0.00    +0.000 N 
ATOM     24  H   UNL     1       3.999   3.525  20.081  0.00  0.00    +0.000 HD
ENDBRANCH   1  23
TORSDOF 1
ENDMDL
MODEL 4
REMARK VINA RESULT:      -7.0      3.126      7.790
REMARK  Name = 
REMARK  3 active torsions:
REMARK  status: ('A' for Active; 'I' for Inactive)
REMARK    1  A    between atoms: C_1  and  N_2
REMARK    2  A    between atoms: N_2  and  C_3
REMARK    3  A    between atoms: N_12  and  C_13
REMARK                            x       y       z     vdW  Elec       q    Type
REMARK                         _______ _______ _______ _____ _____    ______ ____
ROOT
ATOM      1  C   UNL     1       2.221   5.701  20.258  0.00  0.00    +0.000 A 
ATOM      2  N   UNL     1       1.595   6.759  20.805  0.00  0.00    +0.000 NA
ATOM      3  C   UNL     1       1.691   7.949  20.192  0.00  0.00    +0.000 A 
ATOM      4  N   UNL     1       1.000   9.009  20.695  0.00  0.00    +0.000 N 
ATOM      5  C   UNL     1       0.394   9.032  21.998  0.00  0.00    +0.000 C 
ATOM      6  C   UNL     1      -0.704  10.076  21.821  0.00  0.00    +0.000 C 
ATOM      7  C   UNL     1      -0.219  11.031  20.699  0.00  0.00    +0.000 C 
ATOM      8  C   UNL     1      -1.318  11.295  19.648  0.00  0.00    +0.000 C 
ATOM      9  C   UNL     1      -1.563  12.798  19.678  0.00  0.00    +0.000 C 
ATOM     10  N   UNL     1      -0.347  13.400  20.229  0.00  0.00    +0.000 NA
ATOM     11  C   UNL     1       0.645  13.681  19.196  0.00  0.00    +0.000 C 
ATOM     12  C   UNL     1       0.130  12.432  21.228  0.00  0.00    +0.000 C 
ATOM     13  C   UNL     1       1.004  10.314  20.071  0.00  0.00    +0.000 C 
ATOM     14  N   UNL     1       2.397   8.140  19.071  0.00  0.00    +0.000 NA
ATOM     15  C   UNL     1       3.016   7.096  18.523  0.00  0.00    +0.000 A 
ATOM     16  C   UNL     1       3.739   7.289  17.351  0.00  0.00    +0.000 A 
ATOM     17  C   UNL     1       4.417   6.243  16.719  0.00  0.00    +0.000 A 
ATOM     18  C   UNL     1       4.360   4.967  17.261  0.00  0.00    +0.000 A 
ATOM     19 CL   UNL     1       5.197   3.672  16.504  0.00  0.00    +0.000 Cl
ATOM     20  C   UNL     1       3.632   4.741  18.423  0.00  0.00    +0.000 A 
ATOM     21  C   UNL     1       2.963   5.811  19.072  0.00  0.00    +0.000 A 
ENDROOT
BRANCH   1  23
ATOM     22  C   UNL     1       0.970   3.633  20.456  0.00  0.00    +0.000 C 
ATOM     23  N   UNL     1       2.110   4.431  20.871  0.00  0.00    +0.000 N 
ATOM     24  H   UNL     1       2.130   4.554  21.880  0.00  0.00    +0.000 HD
ENDBRANCH   1  23
TORSDOF 1
ENDMDL
MODEL 5
REMARK VINA RESULT:      -6.8      1.866      3.582
REMARK  Name = 
REMARK  3 active torsions:
REMARK  status: ('A' for Active; 'I' for Inactive)
REMARK    1  A    between atoms: C_1  and  N_2
REMARK    2  A    between atoms: N_2  and  C_3
REMARK    3  A    between atoms: N_12  and  C_13
REMARK                            x       y       z     vdW  Elec       q    Type
REMARK                         _______ _______ _______ _____ _____    ______ ____
ROOT
ATOM      1  C   UNL     1       0.332   8.920  21.147  0.00  0.00    +0.000 A 
ATOM      2  N   UNL     1       0.931   7.752  20.853  0.00  0.00    +0.000 NA
ATOM      3  C   UNL     1       1.720   7.690  19.769  0.00  0.00    +0.000 A 
ATOM      4  N   UNL     1       2.390   6.536  19.504  0.00  0.00    +0.000 N 
ATOM      5  C   UNL     1       2.107   5.275  20.134  0.00  0.00    +0.000 C 
ATOM      6  C   UNL     1       3.437   4.543  19.995  0.00  0.00    +0.000 C 
ATOM      7  C   UNL     1       4.130   5.135  18.739  0.00  0.00    +0.000 C 
ATOM      8  C   UNL     1       5.608   5.490  19.007  0.00  0.00    +0.000 C 
ATOM      9  C   UNL     1       6.417   4.644  18.033  0.00  0.00    +0.000 C 
ATOM     10  N   UNL     1       5.510   4.303  16.935  0.00  0.00    +0.000 NA
ATOM     11  C   UNL     1       5.501   5.324  15.891  0.00  0.00    +0.000 C 
ATOM     12  C   UNL     1       4.197   4.133  17.574  0.00  0.00    +0.000 C 
ATOM     13  C   UNL     1       3.300   6.397  18.388  0.00  0.00    +0.000 C 
ATOM     14  N   UNL     1       1.923   8.732  18.953  0.00  0.00    +0.000 NA
ATOM     15  C   UNL     1       1.336   9.891  19.241  0.00  0.00    +0.000 A 
ATOM     16  C   UNL     1       1.557  10.978  18.402  0.00  0.00    +0.000 A 
ATOM     17  C   UNL     1       0.973  12.226  18.637  0.00  0.00    +0.000 A 
ATOM     18  C   UNL     1       0.159  12.399  19.747  0.00  0.00    +0.000 A 
ATOM     19 CL   UNL     1      -0.577  13.923  20.047  0.00  0.00    +0.000 Cl
ATOM     20  C   UNL     1      -0.068  11.335  20.612  0.00  0.00    +0.000 A 
ATOM     21  C   UNL     1       0.511  10.065  20.357  0.00  0.00    +0.000 A 
ENDROOT
BRANCH   1  23
ATOM     22  C   UNL     1       0.193   9.466  23.506  0.00  0.00    +0.000 C 
ATOM     23  N   UNL     1      -0.482   9.016  22.302  0.00  0.00    +0.000 N 
ATOM     24  H   UNL     1      -0.946   8.123  22.447  0.00  0.00    +0.000 HD
ENDBRANCH   1  23
TORSDOF 1
ENDMDL
MODEL 6
REMARK VINA RESULT:      -6.6      3.191      7.247
REMARK  Name = 
REMARK  3 active torsions:
REMARK  status: ('A' for Active; 'I' for Inactive)
REMARK    1  A    between atoms: C_1  and  N_2
REMARK    2  A    between atoms: N_2  and  C_3
REMARK    3  A    between atoms: N_12  and  C_13
REMARK                            x       y       z     vdW  Elec       q    Type
REMARK                         _______ _______ _______ _____ _____    ______ ____
ROOT
ATOM      1  C   UNL     1       3.676   6.622  17.836  0.00  0.00    +0.000 A 
ATOM      2  N   UNL     1       3.108   7.841  17.825  0.00  0.00    +0.000 NA
ATOM      3  C   UNL     1       2.208   8.138  18.776  0.00  0.00    +0.000 A 
ATOM      4  N   UNL     1       1.683   9.393  18.819  0.00  0.00    +0.000 N 
ATOM      5  C   UNL     1       1.798  10.354  17.757  0.00  0.00    +0.000 C 
ATOM      6  C   UNL     1       1.639  11.675  18.501  0.00  0.00    +0.000 C 
ATOM      7  C   UNL     1       0.784  11.364  19.759  0.00  0.00    +0.000 C 
ATOM      8  C   UNL     1       1.391  11.980  21.037  0.00  0.00    +0.000 C 
ATOM      9  C   UNL     1       0.334  12.935  21.575  0.00  0.00    +0.000 C 
ATOM     10  N   UNL     1      -0.947  12.479  21.028  0.00  0.00    +0.000 NA
ATOM     11  C   UNL     1      -1.574  11.464  21.870  0.00  0.00    +0.000 C 
ATOM     12  C   UNL     1      -0.622  11.981  19.683  0.00  0.00    +0.000 C 
ATOM     13  C   UNL     1       0.747   9.816  19.839  0.00  0.00    +0.000 C 
ATOM     14  N   UNL     1       1.833   7.272  19.725  0.00  0.00    +0.000 NA
ATOM     15  C   UNL     1       2.395   6.065  19.743  0.00  0.00    +0.000 A 
ATOM     16  C   UNL     1       2.018   5.168  20.736  0.00  0.00    +0.000 A 
ATOM     17  C   UNL     1       2.560   3.882  20.818  0.00  0.00    +0.000 A 
ATOM     18  C   UNL     1       3.517   3.486  19.895  0.00  0.00    +0.000 A 
ATOM     19 CL   UNL     1       4.188   1.906  19.973  0.00  0.00    +0.000 Cl
ATOM     20  C   UNL     1       3.926   4.367  18.900  0.00  0.00    +0.000 A 
ATOM     21  C   UNL     1       3.356   5.663  18.809  0.00  0.00    +0.000 A 
ENDROOT
BRANCH   1  23
ATOM     22  C   UNL     1       5.966   6.868  17.075  0.00  0.00    +0.000 C 
ATOM     23  N   UNL     1       4.648   6.296  16.860  0.00  0.00    +0.000 N 
ATOM     24  H   UNL     1       4.282   6.538  15.943  0.00  0.00    +0.000 HD
ENDBRANCH   1  23
TORSDOF 1
ENDMDL
MODEL 7
REMARK VINA RESULT:      -6.5      6.001     10.064
REMARK  Name = 
REMARK  3 active torsions:
REMARK  status: ('A' for Active; 'I' for Inactive)
REMARK    1  A    between atoms: C_1  and  N_2
REMARK    2  A    between atoms: N_2  and  C_3
REMARK    3  A    between atoms: N_12  and  C_13
REMARK                            x       y       z     vdW  Elec       q    Type
REMARK                         _______ _______ _______ _____ _____    ______ ____
ROOT
ATOM      1  C   UNL     1      -3.143  10.308  16.923  0.00  0.00    +0.000 A 
ATOM      2  N   UNL     1      -4.303  10.932  17.196  0.00  0.00    +0.000 NA
ATOM      3  C   UNL     1      -4.367  11.725  18.277  0.00  0.00    +0.000 A 
ATOM      4  N   UNL     1      -5.512  12.420  18.520  0.00  0.00    +0.000 N 
ATOM      5  C   UNL     1      -6.767  12.160  17.871  0.00  0.00    +0.000 C 
ATOM      6  C   UNL     1      -7.475  13.506  17.993  0.00  0.00    +0.000 C 
ATOM      7  C   UNL     1      -6.890  14.191  19.256  0.00  0.00    +0.000 C 
ATOM      8  C   UNL     1      -6.500  15.660  18.989  0.00  0.00    +0.000 C 
ATOM      9  C   UNL     1      -7.345  16.490  19.946  0.00  0.00    +0.000 C 
ATOM     10  N   UNL     1      -7.723  15.593  21.042  0.00  0.00    +0.000 NA
ATOM     11  C   UNL     1      -6.720  15.568  22.102  0.00  0.00    +0.000 C 
ATOM     12  C   UNL     1      -7.909  14.282  20.404  0.00  0.00    +0.000 C 
ATOM     13  C   UNL     1      -5.651  13.336  19.631  0.00  0.00    +0.000 C 
ATOM     14  N   UNL     1      -3.335  11.910  19.110  0.00  0.00    +0.000 NA
ATOM     15  C   UNL     1      -2.183  11.299  18.843  0.00  0.00    +0.000 A 
ATOM     16  C   UNL     1      -1.107  11.501  19.699  0.00  0.00    +0.000 A 
ATOM     17  C   UNL     1       0.133  10.891  19.486  0.00  0.00    +0.000 A 
ATOM     18  C   UNL     1       0.308  10.070  18.382  0.00  0.00    +0.000 A 
ATOM     19 CL   UNL     1       1.821   9.302  18.110  0.00  0.00    +0.000 Cl
ATOM     20  C   UNL     1      -0.746   9.861  17.500  0.00  0.00    +0.000 A 
ATOM     21  C   UNL     1      -2.008  10.467  17.732  0.00  0.00    +0.000 A 
ENDROOT
BRANCH   1  23
ATOM     22  C   UNL     1      -3.116  10.186  14.502  0.00  0.00    +0.000 C 
ATOM     23  N   UNL     1      -3.045   9.488  15.773  0.00  0.00    +0.000 N 
ATOM     24  H   UNL     1      -3.747   8.756  15.836  0.00  0.00    +0.000 HD
ENDBRANCH   1  23
TORSDOF 1
ENDMDL
MODEL 8
REMARK VINA RESULT:      -6.5      4.744      8.677
REMARK  Name = 
REMARK  3 active torsions:
REMARK  status: ('A' for Active; 'I' for Inactive)
REMARK    1  A    between atoms: C_1  and  N_2
REMARK    2  A    between atoms: N_2  and  C_3
REMARK    3  A    between atoms: N_12  and  C_13
REMARK                            x       y       z     vdW  Elec       q    Type
REMARK                         _______ _______ _______ _____ _____    ______ ____
ROOT
ATOM      1  C   UNL     1      -0.984  10.496  18.041  0.00  0.00    +0.000 A 
ATOM      2  N   UNL     1      -0.873  11.039  19.267  0.00  0.00    +0.000 NA
ATOM      3  C   UNL     1      -1.893  11.776  19.737  0.00  0.00    +0.000 A 
ATOM      4  N   UNL     1      -1.823  12.267  21.005  0.00  0.00    +0.000 N 
ATOM      5  C   UNL     1      -0.621  12.303  21.791  0.00  0.00    +0.000 C 
ATOM      6  C   UNL     1      -1.170  12.324  23.214  0.00  0.00    +0.000 C 
ATOM      7  C   UNL     1      -2.575  12.978  23.127  0.00  0.00    +0.000 C 
ATOM      8  C   UNL     1      -3.638  12.170  23.902  0.00  0.00    +0.000 C 
ATOM      9  C   UNL     1      -4.177  13.115  24.966  0.00  0.00    +0.000 C 
ATOM     10  N   UNL     1      -3.907  14.472  24.485  0.00  0.00    +0.000 NA
ATOM     11  C   UNL     1      -4.978  14.976  23.632  0.00  0.00    +0.000 C 
ATOM     12  C   UNL     1      -2.620  14.369  23.781  0.00  0.00    +0.000 C 
ATOM     13  C   UNL     1      -2.895  13.026  21.610  0.00  0.00    +0.000 C 
ATOM     14  N   UNL     1      -3.008  12.012  19.036  0.00  0.00    +0.000 NA
ATOM     15  C   UNL     1      -3.125  11.473  17.825  0.00  0.00    +0.000 A 
ATOM     16  C   UNL     1      -4.289  11.706  17.100  0.00  0.00    +0.000 A 
ATOM     17  C   UNL     1      -4.483  11.178  15.821  0.00  0.00    +0.000 A 
ATOM     18  C   UNL     1      -3.498  10.383  15.255  0.00  0.00    +0.000 A 
ATOM     19 CL   UNL     1      -3.714   9.734  13.679  0.00  0.00    +0.000 Cl
ATOM     20  C   UNL     1      -2.330  10.120  15.961  0.00  0.00    +0.000 A 
ATOM     21  C   UNL     1      -2.129  10.676  17.252  0.00  0.00    +0.000 A 
ENDROOT
BRANCH   1  23
ATOM     22  C   UNL     1       1.257   9.628  18.365  0.00  0.00    +0.000 C 
ATOM     23  N   UNL     1       0.066   9.693  17.536  0.00  0.00    +0.000 N 
ATOM     24  H   UNL     1       0.286  10.001  16.593  0.00  0.00    +0.000 HD
ENDBRANCH   1  23
TORSDOF 1
ENDMDL
MODEL 9
REMARK VINA RESULT:      -6.3      5.444      9.810
REMARK  Name = 
REMARK  3 active torsions:
REMARK  status: ('A' for Active; 'I' for Inactive)
REMARK    1  A    between atoms: C_1  and  N_2
REMARK    2  A    between atoms: N_2  and  C_3
REMARK    3  A    between atoms: N_12  and  C_13
REMARK                            x       y       z     vdW  Elec       q    Type
REMARK                         _______ _______ _______ _____ _____    ______ ____
ROOT
ATOM      1  C   UNL     1      -1.665  11.235  19.192  0.00  0.00    +0.000 A 
ATOM      2  N   UNL     1      -2.048  11.855  20.322  0.00  0.00    +0.000 NA
ATOM      3  C   UNL     1      -3.267  12.418  20.364  0.00  0.00    +0.000 A 
ATOM      4  N   UNL     1      -3.694  12.982  21.527  0.00  0.00    +0.000 N 
ATOM      5  C   UNL     1      -2.838  13.279  22.642  0.00  0.00    +0.000 C 
ATOM      6  C   UNL     1      -3.820  13.277  23.809  0.00  0.00    +0.000 C 
ATOM      7  C   UNL     1      -5.202  13.658  23.214  0.00  0.00    +0.000 C 
ATOM      8  C   UNL     1      -6.321  12.712  23.700  0.00  0.00    +0.000 C 
ATOM      9  C   UNL     1      -7.320  13.600  24.430  0.00  0.00    +0.000 C 
ATOM     10  N   UNL     1      -7.120  14.955  23.911  0.00  0.00    +0.000 NA
ATOM     11  C   UNL     1      -7.916  15.209  22.714  0.00  0.00    +0.000 C 
ATOM     12  C   UNL     1      -5.674  15.050  23.663  0.00  0.00    +0.000 C 
ATOM     13  C   UNL     1      -5.010  13.564  21.678  0.00  0.00    +0.000 C 
ATOM     14  N   UNL     1      -4.112  12.409  19.327  0.00  0.00    +0.000 NA
ATOM     15  C   UNL     1      -3.741  11.793  18.207  0.00  0.00    +0.000 A 
ATOM     16  C   UNL     1      -4.623  11.770  17.133  0.00  0.00    +0.000 A 
ATOM     17  C   UNL     1      -4.302  11.147  15.924  0.00  0.00    +0.000 A 
ATOM     18  C   UNL     1      -3.075  10.515  15.787  0.00  0.00    +0.000 A 
ATOM     19 CL   UNL     1      -2.658   9.752  14.305  0.00  0.00    +0.000 Cl
ATOM     20  C   UNL     1      -2.178  10.508  16.849  0.00  0.00    +0.000 A 
ATOM     21  C   UNL     1      -2.501  11.160  18.067  0.00  0.00    +0.000 A 
ENDROOT
BRANCH   1  23
ATOM     22  C   UNL     1       0.408  10.717  20.339  0.00  0.00    +0.000 C 
ATOM     23  N   UNL     1      -0.396  10.610  19.134  0.00  0.00    +0.000 N 
ATOM     24  H   UNL     1       0.103  10.963  18.321  0.00  0.00    +0.000 HD
ENDBRANCH   1  23
TORSDOF 1
ENDMDL
