MODEL 1
REMARK VINA RESULT:      -7.3      0.000      0.000
REMARK  Name = 
REMARK  6 active torsions:
REMARK  status: ('A' for Active; 'I' for Inactive)
REMARK    1  A    between atoms: C_1  and  C_2
REMARK    2  A    between atoms: C_2  and  C_3
REMARK    3  A    between atoms: C_2  and  C_4
REMARK    4  A    between atoms: N_9  and  C_10
REMARK    5  A    between atoms: C_10  and  C_11
REMARK    6  A    between atoms: C_14  and  O_15
REMARK                            x       y       z     vdW  Elec       q    Type
REMARK                         _______ _______ _______ _____ _____    ______ ____
ROOT
ATOM      1  C   UNL     1      -0.539  11.339  22.446  0.00  0.00    +0.000 A 
ATOM      2  N   UNL     1      -0.379  10.490  23.476  0.00  0.00    +0.000 NA
ATOM      3  N   UNL     1       0.180   9.404  22.910  0.00  0.00    +0.000 N 
ATOM      4  C   UNL     1       0.409   9.518  21.572  0.00  0.00    +0.000 A 
ATOM      5  C   UNL     1       0.966   8.677  20.619  0.00  0.00    +0.000 A 
ATOM      6  N   UNL     1       1.399   7.391  20.902  0.00  0.00    +0.000 N 
ATOM      7  N   UNL     1       1.017   9.165  19.359  0.00  0.00    +0.000 NA
ATOM      8  C   UNL     1       0.525  10.395  19.107  0.00  0.00    +0.000 A 
ATOM      9  N   UNL     1      -0.021  11.259  19.975  0.00  0.00    +0.000 NA
ATOM     10  C   UNL     1      -0.059  10.774  21.234  0.00  0.00    +0.000 A 
ATOM     11  H   UNL     1       0.393   8.614  23.507  0.00  0.00    +0.000 HD
ATOM     12  H   UNL     1       1.474   7.145  21.876  0.00  0.00    +0.000 HD
ENDROOT
BRANCH   1  14
ATOM     13  C   UNL     1      -0.224  13.825  22.248  0.00  0.00    +0.000 C 
ATOM     14  C   UNL     1      -1.157  12.689  22.672  0.00  0.00    +0.000 C 
ATOM     15  C   UNL     1      -2.515  12.817  21.979  0.00  0.00    +0.000 C 
ENDBRANCH   1  14
BRANCH   6  16
ATOM     16  C   UNL     1       2.464   6.848  20.075  0.00  0.00    +0.000 C 
BRANCH  16  17
ATOM     17  C   UNL     1       2.071   5.467  19.596  0.00  0.00    +0.000 A 
ATOM     18  C   UNL     1       1.451   4.574  20.486  0.00  0.00    +0.000 A 
ATOM     19  C   UNL     1       1.031   3.312  20.058  0.00  0.00    +0.000 A 
ATOM     20  C   UNL     1       1.230   2.942  18.734  0.00  0.00    +0.000 A 
ATOM     21  C   UNL     1       1.847   3.808  17.838  0.00  0.00    +0.000 A 
ATOM     22  C   UNL     1       2.268   5.069  18.266  0.00  0.00    +0.000 A 
BRANCH  20  23
ATOM     23  O   UNL     1       0.823   1.726  18.270  0.00  0.00    +0.000 OA
ATOM     24  H   UNL     1       0.660   1.144  19.032  0.00  0.00    +0.000 HD
ENDBRANCH  20  23
ENDBRANCH  16  17
ENDBRANCH   6  16
TORSDOF 4
ENDMDL
MODEL 2
REMARK VINA RESULT:      -7.2      0.161      1.064
REMARK  Name = 
REMARK  6 active torsions:
REMARK  status: ('A' for Active; 'I' for Inactive)
REMARK    1  A    between atoms: C_1  and  C_2
REMARK    2  A    between atoms: C_2  and  C_3
REMARK    3  A    between atoms: C_2  and  C_4
REMARK    4  A    between atoms: N_9  and  C_10
REMARK    5  A    between atoms: C_10  and  C_11
REMARK    6  A    between atoms: C_14  and  O_15
REMARK                            x       y       z     vdW  Elec       q    Type
REMARK                         _______ _______ _______ _____ _____    ______ ____
ROOT
ATOM      1  C   UNL     1      -0.510  11.348  22.409  0.00  0.00    +0.000 A 
ATOM      2  N   UNL     1      -0.364  10.502  23.444  0.00  0.00    +0.000 NA
ATOM      3  N   UNL     1       0.187   9.408  22.885  0.00  0.00    +0.000 N 
ATOM      4  C   UNL     1       0.423   9.515  21.547  0.00  0.00    +0.000 A 
ATOM      5  C   UNL     1       0.977   8.664  20.600  0.00  0.00    +0.000 A 
ATOM      6  N   UNL     1       1.396   7.376  20.890  0.00  0.00    +0.000 N 
ATOM      7  N   UNL     1       1.038   9.147  19.339  0.00  0.00    +0.000 NA
ATOM      8  C   UNL     1       0.559  10.380  19.079  0.00  0.00    +0.000 A 
ATOM      9  N   UNL     1       0.018  11.252  19.941  0.00  0.00    +0.000 NA
ATOM     10  C   UNL     1      -0.031  10.774  21.202  0.00  0.00    +0.000 A 
ATOM     11  H   UNL     1       0.390   8.619  23.486  0.00  0.00    +0.000 HD
ATOM     12  H   UNL     1       1.464   7.133  21.866  0.00  0.00    +0.000 HD
ENDROOT
BRANCH   1  14
ATOM     13  C   UNL     1      -0.168  13.830  22.209  0.00  0.00    +0.000 C 
ATOM     14  C   UNL     1      -1.117  12.705  22.627  0.00  0.00    +0.000 C 
ATOM     15  C   UNL     1      -2.467  12.846  21.922  0.00  0.00    +0.000 C 
ENDBRANCH   1  14
BRANCH   6  16
ATOM     16  C   UNL     1       2.459   6.818  20.071  0.00  0.00    +0.000 C 
BRANCH  16  17
ATOM     17  C   UNL     1       2.076   5.421  19.636  0.00  0.00    +0.000 A 
ATOM     18  C   UNL     1       2.451   4.963  18.361  0.00  0.00    +0.000 A 
ATOM     19  C   UNL     1       2.158   3.660  17.953  0.00  0.00    +0.000 A 
ATOM     20  C   UNL     1       1.488   2.808  18.823  0.00  0.00    +0.000 A 
ATOM     21  C   UNL     1       1.103   3.242  20.087  0.00  0.00    +0.000 A 
ATOM     22  C   UNL     1       1.395   4.545  20.495  0.00  0.00    +0.000 A 
BRANCH  20  23
ATOM     23  O   UNL     1       1.193   1.525  18.470  0.00  0.00    +0.000 OA
ATOM     24  H   UNL     1       0.297   1.506  18.095  0.00  0.00    +0.000 HD
ENDBRANCH  20  23
ENDBRANCH  16  17
ENDBRANCH   6  16
TORSDOF 4
ENDMDL
MODEL 3
REMARK VINA RESULT:      -7.0      6.322      9.135
REMARK  Name = 
REMARK  6 active torsions:
REMARK  status: ('A' for Active; 'I' for Inactive)
REMARK    1  A    between atoms: C_1  and  C_2
REMARK    2  A    between atoms: C_2  and  C_3
REMARK    3  A    between atoms: C_2  and  C_4
REMARK    4  A    between atoms: N_9  and  C_10
REMARK    5  A    between atoms: C_10  and  C_11
REMARK    6  A    between atoms: C_14  and  O_15
REMARK                            x       y       z     vdW  Elec       q    Type
REMARK                         _______ _______ _______ _____ _____    ______ ____
ROOT
ATOM      1  C   UNL     1       6.937   4.706  14.202  0.00  0.00    +0.000 A 
ATOM      2  N   UNL     1       6.373   3.486  14.208  0.00  0.00    +0.000 NA
ATOM      3  N   UNL     1       6.075   3.279  15.505  0.00  0.00    +0.000 N 
ATOM      4  C   UNL     1       6.397   4.314  16.331  0.00  0.00    +0.000 A 
ATOM      5  C   UNL     1       6.256   4.532  17.694  0.00  0.00    +0.000 A 
ATOM      6  N   UNL     1       5.734   3.588  18.564  0.00  0.00    +0.000 N 
ATOM      7  N   UNL     1       6.715   5.719  18.152  0.00  0.00    +0.000 NA
ATOM      8  C   UNL     1       7.278   6.586  17.288  0.00  0.00    +0.000 A 
ATOM      9  N   UNL     1       7.442   6.444  15.965  0.00  0.00    +0.000 NA
ATOM     10  C   UNL     1       6.973   5.263  15.508  0.00  0.00    +0.000 A 
ATOM     11  H   UNL     1       5.635   2.403  15.757  0.00  0.00    +0.000 HD
ATOM     12  H   UNL     1       5.276   2.794  18.145  0.00  0.00    +0.000 HD
ENDROOT
BRANCH   1  14
ATOM     13  C   UNL     1       8.878   5.778  13.018  0.00  0.00    +0.000 C 
ATOM     14  C   UNL     1       7.427   5.302  12.914  0.00  0.00    +0.000 C 
ATOM     15  C   UNL     1       7.258   4.338  11.738  0.00  0.00    +0.000 C 
ENDBRANCH   1  14
BRANCH   6  16
ATOM     16  C   UNL     1       5.081   4.076  19.766  0.00  0.00    +0.000 C 
BRANCH  16  17
ATOM     17  C   UNL     1       3.611   3.719  19.718  0.00  0.00    +0.000 A 
ATOM     18  C   UNL     1       3.207   2.522  19.103  0.00  0.00    +0.000 A 
ATOM     19  C   UNL     1       1.864   2.141  19.089  0.00  0.00    +0.000 A 
ATOM     20  C   UNL     1       0.918   2.959  19.696  0.00  0.00    +0.000 A 
ATOM     21  C   UNL     1       1.295   4.151  20.306  0.00  0.00    +0.000 A 
ATOM     22  C   UNL     1       2.638   4.532  20.318  0.00  0.00    +0.000 A 
BRANCH  20  23
ATOM     23  O   UNL     1      -0.402   2.620  19.718  0.00  0.00    +0.000 OA
ATOM     24  H   UNL     1      -0.891   3.243  19.154  0.00  0.00    +0.000 HD
ENDBRANCH  20  23
ENDBRANCH  16  17
ENDBRANCH   6  16
TORSDOF 4
ENDMDL
MODEL 4
REMARK VINA RESULT:      -7.0      0.790      1.530
REMARK  Name = 
REMARK  6 active torsions:
REMARK  status: ('A' for Active; 'I' for Inactive)
REMARK    1  A    between atoms: C_1  and  C_2
REMARK    2  A    between atoms: C_2  and  C_3
REMARK    3  A    between atoms: C_2  and  C_4
REMARK    4  A    between atoms: N_9  and  C_10
REMARK    5  A    between atoms: C_10  and  C_11
REMARK    6  A    between atoms: C_14  and  O_15
REMARK                            x       y       z     vdW  Elec       q    Type
REMARK                         _______ _______ _______ _____ _____    ______ ____
ROOT
ATOM      1  C   UNL     1       0.151  11.722  21.574  0.00  0.00    +0.000 A 
ATOM      2  N   UNL     1       0.100  11.019  22.719  0.00  0.00    +0.000 NA
ATOM      3  N   UNL     1       0.523   9.793  22.359  0.00  0.00    +0.000 N 
ATOM      4  C   UNL     1       0.865   9.676  21.045  0.00  0.00    +0.000 A 
ATOM      5  C   UNL     1       1.354   8.632  20.271  0.00  0.00    +0.000 A 
ATOM      6  N   UNL     1       1.558   7.353  20.763  0.00  0.00    +0.000 N 
ATOM      7  N   UNL     1       1.573   8.918  18.968  0.00  0.00    +0.000 NA
ATOM      8  C   UNL     1       1.299  10.155  18.508  0.00  0.00    +0.000 A 
ATOM      9  N   UNL     1       0.832  11.206  19.196  0.00  0.00    +0.000 NA
ATOM     10  C   UNL     1       0.625  10.922  20.500  0.00  0.00    +0.000 A 
ATOM     11  H   UNL     1       0.565   9.077  23.073  0.00  0.00    +0.000 HD
ATOM     12  H   UNL     1       1.522   7.244  21.765  0.00  0.00    +0.000 HD
ENDROOT
BRANCH   1  14
ATOM     13  C   UNL     1      -1.137  13.525  22.761  0.00  0.00    +0.000 C 
ATOM     14  C   UNL     1      -0.264  13.165  21.557  0.00  0.00    +0.000 C 
ATOM     15  C   UNL     1       0.941  14.104  21.465  0.00  0.00    +0.000 C 
ENDBRANCH   1  14
BRANCH   6  16
ATOM     16  C   UNL     1       2.583   6.547  20.122  0.00  0.00    +0.000 C 
BRANCH  16  17
ATOM     17  C   UNL     1       1.972   5.248  19.642  0.00  0.00    +0.000 A 
ATOM     18  C   UNL     1       2.074   4.892  18.287  0.00  0.00    +0.000 A 
ATOM     19  C   UNL     1       1.566   3.676  17.825  0.00  0.00    +0.000 A 
ATOM     20  C   UNL     1       0.955   2.809  18.723  0.00  0.00    +0.000 A 
ATOM     21  C   UNL     1       0.838   3.144  20.067  0.00  0.00    +0.000 A 
ATOM     22  C   UNL     1       1.345   4.361  20.529  0.00  0.00    +0.000 A 
BRANCH  20  23
ATOM     23  O   UNL     1       0.457   1.606  18.318  0.00  0.00    +0.000 OA
ATOM     24  H   UNL     1      -0.164   1.759  17.586  0.00  0.00    +0.000 HD
ENDBRANCH  20  23
ENDBRANCH  16  17
ENDBRANCH   6  16
TORSDOF 4
ENDMDL
MODEL 5
REMARK VINA RESULT:      -7.0      3.773      8.188
REMARK  Name = 
REMARK  6 active torsions:
REMARK  status: ('A' for Active; 'I' for Inactive)
REMARK    1  A    between atoms: C_1  and  C_2
REMARK    2  A    between atoms: C_2  and  C_3
REMARK    3  A    between atoms: C_2  and  C_4
REMARK    4  A    between atoms: N_9  and  C_10
REMARK    5  A    between atoms: C_10  and  C_11
REMARK    6  A    between atoms: C_14  and  O_15
REMARK                            x       y       z     vdW  Elec       q    Type
REMARK                         _______ _______ _______ _____ _____    ______ ____
ROOT
ATOM      1  C   UNL     1       4.848   5.363  16.916  0.00  0.00    +0.000 A 
ATOM      2  N   UNL     1       4.821   6.666  16.584  0.00  0.00    +0.000 NA
ATOM      3  N   UNL     1       3.959   7.201  17.468  0.00  0.00    +0.000 N 
ATOM      4  C   UNL     1       3.446   6.315  18.366  0.00  0.00    +0.000 A 
ATOM      5  C   UNL     1       2.564   6.431  19.432  0.00  0.00    +0.000 A 
ATOM      6  N   UNL     1       1.941   7.620  19.775  0.00  0.00    +0.000 N 
ATOM      7  N   UNL     1       2.293   5.287  20.100  0.00  0.00    +0.000 NA
ATOM      8  C   UNL     1       2.865   4.135  19.696  0.00  0.00    +0.000 A 
ATOM      9  N   UNL     1       3.725   3.951  18.684  0.00  0.00    +0.000 NA
ATOM     10  C   UNL     1       4.003   5.097  18.026  0.00  0.00    +0.000 A 
ATOM     11  H   UNL     1       3.774   8.195  17.408  0.00  0.00    +0.000 HD
ATOM     12  H   UNL     1       2.296   8.457  19.340  0.00  0.00    +0.000 HD
ENDROOT
BRANCH   1  14
ATOM     13  C   UNL     1       5.496   4.547  14.628  0.00  0.00    +0.000 C 
ATOM     14  C   UNL     1       5.705   4.406  16.137  0.00  0.00    +0.000 C 
ATOM     15  C   UNL     1       7.186   4.546  16.493  0.00  0.00    +0.000 C 
ENDBRANCH   1  14
BRANCH   6  16
ATOM     16  C   UNL     1       1.560   7.797  21.166  0.00  0.00    +0.000 C 
BRANCH  16  17
ATOM     17  C   UNL     1       0.642   8.993  21.286  0.00  0.00    +0.000 A 
ATOM     18  C   UNL     1       0.178   9.388  22.553  0.00  0.00    +0.000 A 
ATOM     19  C   UNL     1      -0.628  10.519  22.700  0.00  0.00    +0.000 A 
ATOM     20  C   UNL     1      -0.971  11.262  21.577  0.00  0.00    +0.000 A 
ATOM     21  C   UNL     1      -0.528  10.886  20.314  0.00  0.00    +0.000 A 
ATOM     22  C   UNL     1       0.277   9.754  20.166  0.00  0.00    +0.000 A 
BRANCH  20  23
ATOM     23  O   UNL     1      -1.744  12.380  21.676  0.00  0.00    +0.000 OA
ATOM     24  H   UNL     1      -1.634  12.753  22.567  0.00  0.00    +0.000 HD
ENDBRANCH  20  23
ENDBRANCH  16  17
ENDBRANCH   6  16
TORSDOF 4
ENDMDL
MODEL 6
REMARK VINA RESULT:      -6.9      5.479      9.384
REMARK  Name = 
REMARK  6 active torsions:
REMARK  status: ('A' for Active; 'I' for Inactive)
REMARK    1  A    between atoms: C_1  and  C_2
REMARK    2  A    between atoms: C_2  and  C_3
REMARK    3  A    between atoms: C_2  and  C_4
REMARK    4  A    between atoms: N_9  and  C_10
REMARK    5  A    between atoms: C_10  and  C_11
REMARK    6  A    between atoms: C_14  and  O_15
REMARK                            x       y       z     vdW  Elec       q    Type
REMARK                         _______ _______ _______ _____ _____    ______ ____
ROOT
ATOM      1  C   UNL     1       6.514   4.352  14.328  0.00  0.00    +0.000 A 
ATOM      2  N   UNL     1       5.207   4.281  14.023  0.00  0.00    +0.000 NA
ATOM      3  N   UNL     1       4.597   4.334  15.222  0.00  0.00    +0.000 N 
ATOM      4  C   UNL     1       5.444   4.457  16.282  0.00  0.00    +0.000 A 
ATOM      5  C   UNL     1       5.255   4.562  17.653  0.00  0.00    +0.000 A 
ATOM      6  N   UNL     1       4.008   4.506  18.254  0.00  0.00    +0.000 N 
ATOM      7  N   UNL     1       6.379   4.668  18.397  0.00  0.00    +0.000 NA
ATOM      8  C   UNL     1       7.580   4.650  17.784  0.00  0.00    +0.000 A 
ATOM      9  N   UNL     1       7.835   4.557  16.472  0.00  0.00    +0.000 NA
ATOM     10  C   UNL     1       6.711   4.463  15.730  0.00  0.00    +0.000 A 
ATOM     11  H   UNL     1       3.586   4.293  15.242  0.00  0.00    +0.000 HD
ATOM     12  H   UNL     1       3.209   4.579  17.643  0.00  0.00    +0.000 HD
ENDROOT
BRANCH   1  14
ATOM     13  C   UNL     1       6.988   3.711  11.944  0.00  0.00    +0.000 C 
ATOM     14  C   UNL     1       7.545   4.310  13.236  0.00  0.00    +0.000 C 
ATOM     15  C   UNL     1       8.154   5.689  12.974  0.00  0.00    +0.000 C 
ENDBRANCH   1  14
BRANCH   6  16
ATOM     16  C   UNL     1       3.844   5.202  19.519  0.00  0.00    +0.000 C 
BRANCH  16  17
ATOM     17  C   UNL     1       3.020   6.452  19.300  0.00  0.00    +0.000 A 
ATOM     18  C   UNL     1       2.223   6.950  20.345  0.00  0.00    +0.000 A 
ATOM     19  C   UNL     1       1.492   8.130  20.189  0.00  0.00    +0.000 A 
ATOM     20  C   UNL     1       1.560   8.819  18.984  0.00  0.00    +0.000 A 
ATOM     21  C   UNL     1       2.338   8.341  17.935  0.00  0.00    +0.000 A 
ATOM     22  C   UNL     1       3.067   7.160  18.090  0.00  0.00    +0.000 A 
BRANCH  20  23
ATOM     23  O   UNL     1       0.875   9.982  18.794  0.00  0.00    +0.000 OA
ATOM     24  H   UNL     1       1.497  10.658  18.476  0.00  0.00    +0.000 HD
ENDBRANCH  20  23
ENDBRANCH  16  17
ENDBRANCH   6  16
TORSDOF 4
ENDMDL
MODEL 7
REMARK VINA RESULT:      -6.9      3.732      8.232
REMARK  Name = 
REMARK  6 active torsions:
REMARK  status: ('A' for Active; 'I' for Inactive)
REMARK    1  A    between atoms: C_1  and  C_2
REMARK    2  A    between atoms: C_2  and  C_3
REMARK    3  A    between atoms: C_2  and  C_4
REMARK    4  A    between atoms: N_9  and  C_10
REMARK    5  A    between atoms: C_10  and  C_11
REMARK    6  A    between atoms: C_14  and  O_15
REMARK                            x       y       z     vdW  Elec       q    Type
REMARK                         _______ _______ _______ _____ _____    ______ ____
ROOT
ATOM      1  C   UNL     1       4.812   5.332  17.079  0.00  0.00    +0.000 A 
ATOM      2  N   UNL     1       4.737   6.615  16.684  0.00  0.00    +0.000 NA
ATOM      3  N   UNL     1       3.868   7.165  17.553  0.00  0.00    +0.000 N 
ATOM      4  C   UNL     1       3.397   6.307  18.501  0.00  0.00    +0.000 A 
ATOM      5  C   UNL     1       2.524   6.447  19.571  0.00  0.00    +0.000 A 
ATOM      6  N   UNL     1       1.865   7.630  19.864  0.00  0.00    +0.000 N 
ATOM      7  N   UNL     1       2.300   5.329  20.299  0.00  0.00    +0.000 NA
ATOM      8  C   UNL     1       2.906   4.178  19.944  0.00  0.00    +0.000 A 
ATOM      9  N   UNL     1       3.759   3.973  18.931  0.00  0.00    +0.000 NA
ATOM     10  C   UNL     1       3.990   5.093  18.213  0.00  0.00    +0.000 A 
ATOM     11  H   UNL     1       3.648   8.148  17.446  0.00  0.00    +0.000 HD
ATOM     12  H   UNL     1       2.187   8.456  19.384  0.00  0.00    +0.000 HD
ENDROOT
BRANCH   1  14
ATOM     13  C   UNL     1       5.508   4.472  14.822  0.00  0.00    +0.000 C 
ATOM     14  C   UNL     1       5.691   4.366  16.337  0.00  0.00    +0.000 C 
ATOM     15  C   UNL     1       7.164   4.527  16.716  0.00  0.00    +0.000 C 
ENDBRANCH   1  14
BRANCH   6  16
ATOM     16  C   UNL     1       1.496   7.864  21.250  0.00  0.00    +0.000 C 
BRANCH  16  17
ATOM     17  C   UNL     1       0.642   9.109  21.338  0.00  0.00    +0.000 A 
ATOM     18  C   UNL     1       0.255   9.771  20.160  0.00  0.00    +0.000 A 
ATOM     19  C   UNL     1      -0.577  10.892  20.208  0.00  0.00    +0.000 A 
ATOM     20  C   UNL     1      -1.026  11.354  21.439  0.00  0.00    +0.000 A 
ATOM     21  C   UNL     1      -0.650  10.719  22.617  0.00  0.00    +0.000 A 
ATOM     22  C   UNL     1       0.182   9.599  22.570  0.00  0.00    +0.000 A 
BRANCH  20  23
ATOM     23  O   UNL     1      -1.849  12.437  21.531  0.00  0.00    +0.000 OA
ATOM     24  H   UNL     1      -2.730  12.183  21.207  0.00  0.00    +0.000 HD
ENDBRANCH  20  23
ENDBRANCH  16  17
ENDBRANCH   6  16
TORSDOF 4
ENDMDL
MODEL 8
REMARK VINA RESULT:      -6.8      4.030      8.365
REMARK  Name = 
REMARK  6 active torsions:
REMARK  status: ('A' for Active; 'I' for Inactive)
REMARK    1  A    between atoms: C_1  and  C_2
REMARK    2  A    between atoms: C_2  and  C_3
REMARK    3  A    between atoms: C_2  and  C_4
REMARK    4  A    between atoms: N_9  and  C_10
REMARK    5  A    between atoms: C_10  and  C_11
REMARK    6  A    between atoms: C_14  and  O_15
REMARK                            x       y       z     vdW  Elec       q    Type
REMARK                         _______ _______ _______ _____ _____    ______ ____
ROOT
ATOM      1  C   UNL     1       5.240   5.594  16.888  0.00  0.00    +0.000 A 
ATOM      2  N   UNL     1       5.290   6.556  15.951  0.00  0.00    +0.000 NA
ATOM      3  N   UNL     1       4.336   7.425  16.336  0.00  0.00    +0.000 N 
ATOM      4  C   UNL     1       3.689   7.082  17.485  0.00  0.00    +0.000 A 
ATOM      5  C   UNL     1       2.682   7.676  18.232  0.00  0.00    +0.000 A 
ATOM      6  N   UNL     1       2.051   8.851  17.857  0.00  0.00    +0.000 N 
ATOM      7  N   UNL     1       2.297   7.005  19.342  0.00  0.00    +0.000 NA
ATOM      8  C   UNL     1       2.886   5.830  19.640  0.00  0.00    +0.000 A 
ATOM      9  N   UNL     1       3.863   5.203  18.970  0.00  0.00    +0.000 NA
ATOM     10  C   UNL     1       4.253   5.880  17.869  0.00  0.00    +0.000 A 
ATOM     11  H   UNL     1       4.187   8.249  15.767  0.00  0.00    +0.000 HD
ATOM     12  H   UNL     1       2.482   9.376  17.111  0.00  0.00    +0.000 HD
ENDROOT
BRANCH   1  14
ATOM     13  C   UNL     1       6.381   3.957  15.359  0.00  0.00    +0.000 C 
ATOM     14  C   UNL     1       6.163   4.412  16.803  0.00  0.00    +0.000 C 
ATOM     15  C   UNL     1       7.502   4.683  17.492  0.00  0.00    +0.000 C 
ENDBRANCH   1  14
BRANCH   6  16
ATOM     16  C   UNL     1       1.500   9.681  18.916  0.00  0.00    +0.000 C 
BRANCH  16  17
ATOM     17  C   UNL     1       0.215  10.317  18.436  0.00  0.00    +0.000 A 
ATOM     18  C   UNL     1      -0.695   9.560  17.679  0.00  0.00    +0.000 A 
ATOM     19  C   UNL     1      -1.914  10.104  17.268  0.00  0.00    +0.000 A 
ATOM     20  C   UNL     1      -2.226  11.413  17.615  0.00  0.00    +0.000 A 
ATOM     21  C   UNL     1      -1.338  12.183  18.358  0.00  0.00    +0.000 A 
ATOM     22  C   UNL     1      -0.119  11.638  18.769  0.00  0.00    +0.000 A 
BRANCH  20  23
ATOM     23  O   UNL     1      -3.409  11.980  17.246  0.00  0.00    +0.000 OA
ATOM     24  H   UNL     1      -3.593  12.727  17.841  0.00  0.00    +0.000 HD
ENDBRANCH  20  23
ENDBRANCH  16  17
ENDBRANCH   6  16
TORSDOF 4
ENDMDL
MODEL 9
REMARK VINA RESULT:      -6.8      7.607      9.944
REMARK  Name = 
REMARK  6 active torsions:
REMARK  status: ('A' for Active; 'I' for Inactive)
REMARK    1  A    between atoms: C_1  and  C_2
REMARK    2  A    between atoms: C_2  and  C_3
REMARK    3  A    between atoms: C_2  and  C_4
REMARK    4  A    between atoms: N_9  and  C_10
REMARK    5  A    between atoms: C_10  and  C_11
REMARK    6  A    between atoms: C_14  and  O_15
REMARK                            x       y       z     vdW  Elec       q    Type
REMARK                         _______ _______ _______ _____ _____    ______ ____
ROOT
ATOM      1  C   UNL     1       4.807   4.093  18.290  0.00  0.00    +0.000 A 
ATOM      2  N   UNL     1       4.785   4.731  19.473  0.00  0.00    +0.000 NA
ATOM      3  N   UNL     1       5.662   5.740  19.307  0.00  0.00    +0.000 N 
ATOM      4  C   UNL     1       6.232   5.796  18.071  0.00  0.00    +0.000 A 
ATOM      5  C   UNL     1       7.147   6.653  17.476  0.00  0.00    +0.000 A 
ATOM      6  N   UNL     1       7.747   7.707  18.146  0.00  0.00    +0.000 N 
ATOM      7  N   UNL     1       7.475   6.368  16.195  0.00  0.00    +0.000 NA
ATOM      8  C   UNL     1       6.922   5.294  15.596  0.00  0.00    +0.000 A 
ATOM      9  N   UNL     1       6.033   4.431  16.106  0.00  0.00    +0.000 NA
ATOM     10  C   UNL     1       5.698   4.724  17.381  0.00  0.00    +0.000 A 
ATOM     11  H   UNL     1       5.816   6.367  20.087  0.00  0.00    +0.000 HD
ATOM     12  H   UNL     1       7.353   7.956  19.039  0.00  0.00    +0.000 HD
ENDROOT
BRANCH   1  14
ATOM     13  C   UNL     1       3.765   2.072  19.361  0.00  0.00    +0.000 C 
ATOM     14  C   UNL     1       3.952   2.878  18.074  0.00  0.00    +0.000 C 
ATOM     15  C   UNL     1       2.598   3.235  17.459  0.00  0.00    +0.000 C 
ENDBRANCH   1  14
BRANCH   6  16
ATOM     16  C   UNL     1       8.172   8.848  17.352  0.00  0.00    +0.000 C 
BRANCH  16  17
ATOM     17  C   UNL     1       8.727   9.917  18.268  0.00  0.00    +0.000 A 
ATOM     18  C   UNL     1       8.859  11.234  17.797  0.00  0.00    +0.000 A 
ATOM     19  C   UNL     1       9.320  12.252  18.635  0.00  0.00    +0.000 A 
ATOM     20  C   UNL     1       9.648  11.953  19.952  0.00  0.00    +0.000 A 
ATOM     21  C   UNL     1       9.530  10.656  20.437  0.00  0.00    +0.000 A 
ATOM     22  C   UNL     1       9.071   9.637  19.598  0.00  0.00    +0.000 A 
BRANCH  20  23
ATOM     23  O   UNL     1      10.088  12.918  20.808  0.00  0.00    +0.000 OA
ATOM     24  H   UNL     1       9.530  13.707  20.698  0.00  0.00    +0.000 HD
ENDBRANCH  20  23
ENDBRANCH  16  17
ENDBRANCH   6  16
TORSDOF 4
ENDMDL
