MODEL 1
REMARK VINA RESULT:      -8.0      0.000      0.000
REMARK  Name = 
REMARK  4 active torsions:
REMARK  status: ('A' for Active; 'I' for Inactive)
REMARK    1  A    between atoms: C_1  and  C_2
REMARK    2  A    between atoms: C_5  and  N_6
REMARK    3  A    between atoms: C_10  and  N_11
REMARK    4  A    between atoms: C_14  and  C_15
REMARK                            x       y       z     vdW  Elec       q    Type
REMARK                         _______ _______ _______ _____ _____    ______ ____
ROOT
ATOM      1  N   UNL     1       3.025   7.201  17.477  0.00  0.00    +0.000 N 
ATOM      2  C   UNL     1       2.323   8.133  18.166  0.00  0.00    +0.000 A 
ATOM      3  N   UNL     1       1.869   8.143  19.399  0.00  0.00    +0.000 NA
ATOM      4  C   UNL     1       1.212   9.342  19.577  0.00  0.00    +0.000 A 
ATOM      5  C   UNL     1       1.319  10.100  18.432  0.00  0.00    +0.000 A 
ATOM      6  N   UNL     1       2.003   9.315  17.548  0.00  0.00    +0.000 N 
ATOM      7  H   UNL     1       3.216   7.355  16.497  0.00  0.00    +0.000 HD
ATOM      8  H   UNL     1       2.256   9.564  16.604  0.00  0.00    +0.000 HD
ENDROOT
BRANCH   1  15
ATOM      9  C   UNL     1       1.504   4.705  17.834  0.00  0.00    +0.000 C 
ATOM     10  C   UNL     1       2.978   4.828  18.117  0.00  0.00    +0.000 A 
ATOM     11  C   UNL     1       3.661   3.667  18.532  0.00  0.00    +0.000 A 
ATOM     12  C   UNL     1       5.020   3.705  18.834  0.00  0.00    +0.000 A 
ATOM     13  C   UNL     1       5.703   4.919  18.753  0.00  0.00    +0.000 A 
ATOM     14  C   UNL     1       5.037   6.083  18.354  0.00  0.00    +0.000 A 
ATOM     15  C   UNL     1       3.674   6.058  18.005  0.00  0.00    +0.000 A 
BRANCH  13  16
ATOM     16  N   UNL     1       7.135   4.973  19.069  0.00  0.00    +0.000 N 
ATOM     17  O   UNL     1       7.467   5.498  20.142  0.00  0.00    +0.000 OA
ATOM     18  O   UNL     1       7.934   4.494  18.251  0.00  0.00    +0.000 OA
ENDBRANCH  13  16
ENDBRANCH   1  15
BRANCH   4  19
ATOM     19  C   UNL     1       0.484   9.697  20.788  0.00  0.00    +0.000 A 
ATOM     20  C   UNL     1      -0.339  10.834  20.806  0.00  0.00    +0.000 A 
ATOM     21  C   UNL     1      -0.983  11.233  21.984  0.00  0.00    +0.000 A 
ATOM     22  C   UNL     1      -0.816  10.498  23.156  0.00  0.00    +0.000 A 
ATOM     23  C   UNL     1      -0.021   9.356  23.149  0.00  0.00    +0.000 A 
ATOM     24  C   UNL     1       0.622   8.957  21.973  0.00  0.00    +0.000 A 
ENDBRANCH   4  19
TORSDOF 3
ENDMDL
MODEL 2
REMARK VINA RESULT:      -8.0      0.082      1.224
REMARK  Name = 
REMARK  4 active torsions:
REMARK  status: ('A' for Active; 'I' for Inactive)
REMARK    1  A    between atoms: C_1  and  C_2
REMARK    2  A    between atoms: C_5  and  N_6
REMARK    3  A    between atoms: C_10  and  N_11
REMARK    4  A    between atoms: C_14  and  C_15
REMARK                            x       y       z     vdW  Elec       q    Type
REMARK                         _______ _______ _______ _____ _____    ______ ____
ROOT
ATOM      1  N   UNL     1       2.932   7.134  17.477  0.00  0.00    +0.000 N 
ATOM      2  C   UNL     1       2.270   8.094  18.168  0.00  0.00    +0.000 A 
ATOM      3  N   UNL     1       1.878   8.151  19.421  0.00  0.00    +0.000 NA
ATOM      4  C   UNL     1       1.237   9.359  19.589  0.00  0.00    +0.000 A 
ATOM      5  C   UNL     1       1.291  10.076  18.415  0.00  0.00    +0.000 A 
ATOM      6  N   UNL     1       1.925   9.256  17.525  0.00  0.00    +0.000 N 
ATOM      7  H   UNL     1       3.074   7.252  16.485  0.00  0.00    +0.000 HD
ATOM      8  H   UNL     1       2.131   9.471  16.561  0.00  0.00    +0.000 HD
ENDROOT
BRANCH   1  15
ATOM      9  C   UNL     1       1.458   4.610  17.836  0.00  0.00    +0.000 C 
ATOM     10  C   UNL     1       2.929   4.762  18.125  0.00  0.00    +0.000 A 
ATOM     11  C   UNL     1       3.632   3.617  18.547  0.00  0.00    +0.000 A 
ATOM     12  C   UNL     1       4.989   3.682  18.855  0.00  0.00    +0.000 A 
ATOM     13  C   UNL     1       5.648   4.909  18.773  0.00  0.00    +0.000 A 
ATOM     14  C   UNL     1       4.961   6.058  18.367  0.00  0.00    +0.000 A 
ATOM     15  C   UNL     1       3.601   6.006  18.012  0.00  0.00    +0.000 A 
BRANCH  13  16
ATOM     16  N   UNL     1       7.078   4.992  19.095  0.00  0.00    +0.000 N 
ATOM     17  O   UNL     1       7.879   4.543  18.262  0.00  0.00    +0.000 OA
ATOM     18  O   UNL     1       7.407   5.500  20.175  0.00  0.00    +0.000 OA
ENDBRANCH  13  16
ENDBRANCH   1  15
BRANCH   4  19
ATOM     19  C   UNL     1       0.572   9.761  20.822  0.00  0.00    +0.000 A 
ATOM     20  C   UNL     1       0.677   8.961  21.971  0.00  0.00    +0.000 A 
ATOM     21  C   UNL     1      -0.019   9.293  23.140  0.00  0.00    +0.000 A 
ATOM     22  C   UNL     1      -0.824  10.430  23.176  0.00  0.00    +0.000 A 
ATOM     23  C   UNL     1      -0.921  11.245  22.052  0.00  0.00    +0.000 A 
ATOM     24  C   UNL     1      -0.225  10.915  20.885  0.00  0.00    +0.000 A 
ENDBRANCH   4  19
TORSDOF 3
ENDMDL
MODEL 3
REMARK VINA RESULT:      -7.8      3.945      8.147
REMARK  Name = 
REMARK  4 active torsions:
REMARK  status: ('A' for Active; 'I' for Inactive)
REMARK    1  A    between atoms: C_1  and  C_2
REMARK    2  A    between atoms: C_5  and  N_6
REMARK    3  A    between atoms: C_10  and  N_11
REMARK    4  A    between atoms: C_14  and  C_15
REMARK                            x       y       z     vdW  Elec       q    Type
REMARK                         _______ _______ _______ _____ _____    ______ ____
ROOT
ATOM      1  N   UNL     1       5.370   4.362  19.366  0.00  0.00    +0.000 N 
ATOM      2  C   UNL     1       6.047   4.402  18.193  0.00  0.00    +0.000 A 
ATOM      3  N   UNL     1       5.630   4.453  16.948  0.00  0.00    +0.000 NA
ATOM      4  C   UNL     1       6.750   4.465  16.147  0.00  0.00    +0.000 A 
ATOM      5  C   UNL     1       7.880   4.476  16.935  0.00  0.00    +0.000 A 
ATOM      6  N   UNL     1       7.419   4.414  18.219  0.00  0.00    +0.000 N 
ATOM      7  H   UNL     1       5.884   4.247  20.227  0.00  0.00    +0.000 HD
ATOM      8  H   UNL     1       7.985   4.404  19.054  0.00  0.00    +0.000 HD
ENDROOT
BRANCH   1  15
ATOM      9  C   UNL     1       3.493   2.096  19.506  0.00  0.00    +0.000 C 
ATOM     10  C   UNL     1       3.080   3.532  19.705  0.00  0.00    +0.000 A 
ATOM     11  C   UNL     1       1.730   3.784  20.017  0.00  0.00    +0.000 A 
ATOM     12  C   UNL     1       1.266   5.086  20.194  0.00  0.00    +0.000 A 
ATOM     13  C   UNL     1       2.150   6.152  20.027  0.00  0.00    +0.000 A 
ATOM     14  C   UNL     1       3.491   5.919  19.706  0.00  0.00    +0.000 A 
ATOM     15  C   UNL     1       3.989   4.611  19.563  0.00  0.00    +0.000 A 
BRANCH  13  16
ATOM     16  N   UNL     1       1.674   7.528  20.211  0.00  0.00    +0.000 N 
ATOM     17  O   UNL     1       1.872   8.332  19.286  0.00  0.00    +0.000 OA
ATOM     18  O   UNL     1       1.106   7.815  21.273  0.00  0.00    +0.000 OA
ENDBRANCH  13  16
ENDBRANCH   1  15
BRANCH   4  19
ATOM     19  C   UNL     1       6.708   4.423  14.690  0.00  0.00    +0.000 A 
ATOM     20  C   UNL     1       5.767   3.612  14.037  0.00  0.00    +0.000 A 
ATOM     21  C   UNL     1       5.765   3.501  12.641  0.00  0.00    +0.000 A 
ATOM     22  C   UNL     1       6.700   4.201  11.882  0.00  0.00    +0.000 A 
ATOM     23  C   UNL     1       7.626   5.025  12.514  0.00  0.00    +0.000 A 
ATOM     24  C   UNL     1       7.628   5.138  13.907  0.00  0.00    +0.000 A 
ENDBRANCH   4  19
TORSDOF 3
ENDMDL
MODEL 4
REMARK VINA RESULT:      -7.7      2.337      2.937
REMARK  Name = 
REMARK  4 active torsions:
REMARK  status: ('A' for Active; 'I' for Inactive)
REMARK    1  A    between atoms: C_1  and  C_2
REMARK    2  A    between atoms: C_5  and  N_6
REMARK    3  A    between atoms: C_10  and  N_11
REMARK    4  A    between atoms: C_14  and  C_15
REMARK                            x       y       z     vdW  Elec       q    Type
REMARK                         _______ _______ _______ _____ _____    ______ ____
ROOT
ATOM      1  N   UNL     1       2.811   6.839  17.796  0.00  0.00    +0.000 N 
ATOM      2  C   UNL     1       2.208   7.884  18.412  0.00  0.00    +0.000 A 
ATOM      3  N   UNL     1       1.735   8.021  19.631  0.00  0.00    +0.000 NA
ATOM      4  C   UNL     1       1.217   9.294  19.721  0.00  0.00    +0.000 A 
ATOM      5  C   UNL     1       1.431   9.964  18.537  0.00  0.00    +0.000 A 
ATOM      6  N   UNL     1       2.037   9.055  17.718  0.00  0.00    +0.000 N 
ATOM      7  H   UNL     1       3.036   6.909  16.815  0.00  0.00    +0.000 HD
ATOM      8  H   UNL     1       2.334   9.216  16.767  0.00  0.00    +0.000 HD
ENDROOT
BRANCH   1  15
ATOM      9  C   UNL     1       5.590   6.014  17.278  0.00  0.00    +0.000 C 
ATOM     10  C   UNL     1       4.672   5.290  18.227  0.00  0.00    +0.000 A 
ATOM     11  C   UNL     1       5.198   4.189  18.930  0.00  0.00    +0.000 A 
ATOM     12  C   UNL     1       4.405   3.454  19.809  0.00  0.00    +0.000 A 
ATOM     13  C   UNL     1       3.063   3.800  19.968  0.00  0.00    +0.000 A 
ATOM     14  C   UNL     1       2.522   4.884  19.268  0.00  0.00    +0.000 A 
ATOM     15  C   UNL     1       3.316   5.664  18.407  0.00  0.00    +0.000 A 
BRANCH  13  16
ATOM     16  N   UNL     1       2.217   3.035  20.891  0.00  0.00    +0.000 N 
ATOM     17  O   UNL     1       2.743   2.605  21.928  0.00  0.00    +0.000 OA
ATOM     18  O   UNL     1       1.029   2.857  20.587  0.00  0.00    +0.000 OA
ENDBRANCH  13  16
ENDBRANCH   1  15
BRANCH   4  19
ATOM     19  C   UNL     1       0.511   9.803  20.891  0.00  0.00    +0.000 A 
ATOM     20  C   UNL     1       0.564   9.101  22.105  0.00  0.00    +0.000 A 
ATOM     21  C   UNL     1      -0.171   9.534  23.215  0.00  0.00    +0.000 A 
ATOM     22  C   UNL     1      -0.963  10.677  23.127  0.00  0.00    +0.000 A 
ATOM     23  C   UNL     1      -1.009  11.397  21.936  0.00  0.00    +0.000 A 
ATOM     24  C   UNL     1      -0.274  10.965  20.828  0.00  0.00    +0.000 A 
ENDBRANCH   4  19
TORSDOF 3
ENDMDL
MODEL 5
REMARK VINA RESULT:      -7.6      2.311      2.746
REMARK  Name = 
REMARK  4 active torsions:
REMARK  status: ('A' for Active; 'I' for Inactive)
REMARK    1  A    between atoms: C_1  and  C_2
REMARK    2  A    between atoms: C_5  and  N_6
REMARK    3  A    between atoms: C_10  and  N_11
REMARK    4  A    between atoms: C_14  and  C_15
REMARK                            x       y       z     vdW  Elec       q    Type
REMARK                         _______ _______ _______ _____ _____    ______ ____
ROOT
ATOM      1  N   UNL     1       2.852   7.048  17.836  0.00  0.00    +0.000 N 
ATOM      2  C   UNL     1       2.194   8.059  18.453  0.00  0.00    +0.000 A 
ATOM      3  N   UNL     1       1.639   8.139  19.642  0.00  0.00    +0.000 NA
ATOM      4  C   UNL     1       1.097   9.401  19.750  0.00  0.00    +0.000 A 
ATOM      5  C   UNL     1       1.379  10.123  18.612  0.00  0.00    +0.000 A 
ATOM      6  N   UNL     1       2.051   9.256  17.798  0.00  0.00    +0.000 N 
ATOM      7  H   UNL     1       3.141   7.163  16.876  0.00  0.00    +0.000 HD
ATOM      8  H   UNL     1       2.408   9.461  16.877  0.00  0.00    +0.000 HD
ENDROOT
BRANCH   1  15
ATOM      9  C   UNL     1       5.613   6.173  17.301  0.00  0.00    +0.000 C 
ATOM     10  C   UNL     1       4.681   5.456  18.243  0.00  0.00    +0.000 A 
ATOM     11  C   UNL     1       5.185   4.334  18.930  0.00  0.00    +0.000 A 
ATOM     12  C   UNL     1       4.378   3.605  19.800  0.00  0.00    +0.000 A 
ATOM     13  C   UNL     1       3.044   3.976  19.966  0.00  0.00    +0.000 A 
ATOM     14  C   UNL     1       2.525   5.081  19.282  0.00  0.00    +0.000 A 
ATOM     15  C   UNL     1       3.333   5.855  18.430  0.00  0.00    +0.000 A 
BRANCH  13  16
ATOM     16  N   UNL     1       2.183   3.217  20.880  0.00  0.00    +0.000 N 
ATOM     17  O   UNL     1       2.691   2.802  21.933  0.00  0.00    +0.000 OA
ATOM     18  O   UNL     1       1.003   3.028  20.554  0.00  0.00    +0.000 OA
ENDBRANCH  13  16
ENDBRANCH   1  15
BRANCH   4  19
ATOM     19  C   UNL     1       0.308   9.851  20.890  0.00  0.00    +0.000 A 
ATOM     20  C   UNL     1      -0.449  11.029  20.800  0.00  0.00    +0.000 A 
ATOM     21  C   UNL     1      -1.149  11.517  21.911  0.00  0.00    +0.000 A 
ATOM     22  C   UNL     1      -1.105  10.830  23.122  0.00  0.00    +0.000 A 
ATOM     23  C   UNL     1      -0.376   9.648  23.221  0.00  0.00    +0.000 A 
ATOM     24  C   UNL     1       0.322   9.161  22.113  0.00  0.00    +0.000 A 
ENDBRANCH   4  19
TORSDOF 3
ENDMDL
MODEL 6
REMARK VINA RESULT:      -7.6      3.662      5.115
REMARK  Name = 
REMARK  4 active torsions:
REMARK  status: ('A' for Active; 'I' for Inactive)
REMARK    1  A    between atoms: C_1  and  C_2
REMARK    2  A    between atoms: C_5  and  N_6
REMARK    3  A    between atoms: C_10  and  N_11
REMARK    4  A    between atoms: C_14  and  C_15
REMARK                            x       y       z     vdW  Elec       q    Type
REMARK                         _______ _______ _______ _____ _____    ______ ____
ROOT
ATOM      1  N   UNL     1       5.091   3.858  17.237  0.00  0.00    +0.000 N 
ATOM      2  C   UNL     1       4.169   4.589  17.907  0.00  0.00    +0.000 A 
ATOM      3  N   UNL     1       3.806   5.848  17.794  0.00  0.00    +0.000 NA
ATOM      4  C   UNL     1       2.827   6.072  18.736  0.00  0.00    +0.000 A 
ATOM      5  C   UNL     1       2.552   4.899  19.403  0.00  0.00    +0.000 A 
ATOM      6  N   UNL     1       3.420   3.982  18.883  0.00  0.00    +0.000 N 
ATOM      7  H   UNL     1       5.275   2.910  17.531  0.00  0.00    +0.000 HD
ATOM      8  H   UNL     1       3.490   3.011  19.149  0.00  0.00    +0.000 HD
ENDROOT
BRANCH   1  15
ATOM      9  C   UNL     1       7.321   5.779  17.339  0.00  0.00    +0.000 C 
ATOM     10  C   UNL     1       6.880   5.083  16.077  0.00  0.00    +0.000 A 
ATOM     11  C   UNL     1       7.611   5.341  14.901  0.00  0.00    +0.000 A 
ATOM     12  C   UNL     1       7.251   4.753  13.690  0.00  0.00    +0.000 A 
ATOM     13  C   UNL     1       6.131   3.922  13.642  0.00  0.00    +0.000 A 
ATOM     14  C   UNL     1       5.389   3.664  14.799  0.00  0.00    +0.000 A 
ATOM     15  C   UNL     1       5.759   4.216  16.039  0.00  0.00    +0.000 A 
BRANCH  13  16
ATOM     16  N   UNL     1       5.742   3.297  12.373  0.00  0.00    +0.000 N 
ATOM     17  O   UNL     1       6.609   2.655  11.761  0.00  0.00    +0.000 OA
ATOM     18  O   UNL     1       4.576   3.443  11.980  0.00  0.00    +0.000 OA
ENDBRANCH  13  16
ENDBRANCH   1  15
BRANCH   4  19
ATOM     19  C   UNL     1       2.230   7.377  18.993  0.00  0.00    +0.000 A 
ATOM     20  C   UNL     1       1.759   7.694  20.276  0.00  0.00    +0.000 A 
ATOM     21  C   UNL     1       1.114   8.912  20.521  0.00  0.00    +0.000 A 
ATOM     22  C   UNL     1       0.935   9.829  19.488  0.00  0.00    +0.000 A 
ATOM     23  C   UNL     1       1.416   9.538  18.214  0.00  0.00    +0.000 A 
ATOM     24  C   UNL     1       2.062   8.323  17.970  0.00  0.00    +0.000 A 
ENDBRANCH   4  19
TORSDOF 3
ENDMDL
MODEL 7
REMARK VINA RESULT:      -7.6      4.668      8.481
REMARK  Name = 
REMARK  4 active torsions:
REMARK  status: ('A' for Active; 'I' for Inactive)
REMARK    1  A    between atoms: C_1  and  C_2
REMARK    2  A    between atoms: C_5  and  N_6
REMARK    3  A    between atoms: C_10  and  N_11
REMARK    4  A    between atoms: C_14  and  C_15
REMARK                            x       y       z     vdW  Elec       q    Type
REMARK                         _______ _______ _______ _____ _____    ______ ____
ROOT
ATOM      1  N   UNL     1       6.404   5.320  17.262  0.00  0.00    +0.000 N 
ATOM      2  C   UNL     1       6.511   5.016  15.946  0.00  0.00    +0.000 A 
ATOM      3  N   UNL     1       5.752   4.290  15.156  0.00  0.00    +0.000 NA
ATOM      4  C   UNL     1       6.336   4.307  13.908  0.00  0.00    +0.000 A 
ATOM      5  C   UNL     1       7.453   5.112  13.933  0.00  0.00    +0.000 A 
ATOM      6  N   UNL     1       7.560   5.533  15.228  0.00  0.00    +0.000 N 
ATOM      7  H   UNL     1       7.145   5.841  17.708  0.00  0.00    +0.000 HD
ATOM      8  H   UNL     1       8.274   6.141  15.598  0.00  0.00    +0.000 HD
ENDROOT
BRANCH   1  15
ATOM      9  C   UNL     1       4.169   7.235  17.167  0.00  0.00    +0.000 C 
ATOM     10  C   UNL     1       4.160   5.988  18.012  0.00  0.00    +0.000 A 
ATOM     11  C   UNL     1       2.996   5.714  18.757  0.00  0.00    +0.000 A 
ATOM     12  C   UNL     1       2.919   4.592  19.580  0.00  0.00    +0.000 A 
ATOM     13  C   UNL     1       4.026   3.749  19.687  0.00  0.00    +0.000 A 
ATOM     14  C   UNL     1       5.192   4.013  18.963  0.00  0.00    +0.000 A 
ATOM     15  C   UNL     1       5.276   5.118  18.095  0.00  0.00    +0.000 A 
BRANCH  13  16
ATOM     16  N   UNL     1       3.958   2.564  20.550  0.00  0.00    +0.000 N 
ATOM     17  O   UNL     1       2.944   2.422  21.250  0.00  0.00    +0.000 OA
ATOM     18  O   UNL     1       4.911   1.773  20.536  0.00  0.00    +0.000 OA
ENDBRANCH  13  16
ENDBRANCH   1  15
BRANCH   4  19
ATOM     19  C   UNL     1       5.845   3.538  12.771  0.00  0.00    +0.000 A 
ATOM     20  C   UNL     1       4.576   3.805  12.236  0.00  0.00    +0.000 A 
ATOM     21  C   UNL     1       4.059   3.024  11.195  0.00  0.00    +0.000 A 
ATOM     22  C   UNL     1       4.806   1.970  10.674  0.00  0.00    +0.000 A 
ATOM     23  C   UNL     1       6.076   1.706  11.179  0.00  0.00    +0.000 A 
ATOM     24  C   UNL     1       6.593   2.486  12.217  0.00  0.00    +0.000 A 
ENDBRANCH   4  19
TORSDOF 3
ENDMDL
MODEL 8
REMARK VINA RESULT:      -7.6      2.015      2.881
REMARK  Name = 
REMARK  4 active torsions:
REMARK  status: ('A' for Active; 'I' for Inactive)
REMARK    1  A    between atoms: C_1  and  C_2
REMARK    2  A    between atoms: C_5  and  N_6
REMARK    3  A    between atoms: C_10  and  N_11
REMARK    4  A    between atoms: C_14  and  C_15
REMARK                            x       y       z     vdW  Elec       q    Type
REMARK                         _______ _______ _______ _____ _____    ______ ____
ROOT
ATOM      1  N   UNL     1       3.160   6.144  19.938  0.00  0.00    +0.000 N 
ATOM      2  C   UNL     1       2.315   7.198  20.034  0.00  0.00    +0.000 A 
ATOM      3  N   UNL     1       1.992   8.137  19.173  0.00  0.00    +0.000 NA
ATOM      4  C   UNL     1       1.089   8.967  19.800  0.00  0.00    +0.000 A 
ATOM      5  C   UNL     1       0.818   8.484  21.061  0.00  0.00    +0.000 A 
ATOM      6  N   UNL     1       1.613   7.382  21.199  0.00  0.00    +0.000 N 
ATOM      7  H   UNL     1       3.329   5.573  20.752  0.00  0.00    +0.000 HD
ATOM      8  H   UNL     1       1.666   6.784  22.010  0.00  0.00    +0.000 HD
ENDROOT
BRANCH   1  15
ATOM      9  C   UNL     1       1.787   4.027  18.421  0.00  0.00    +0.000 C 
ATOM     10  C   UNL     1       3.077   4.666  17.975  0.00  0.00    +0.000 A 
ATOM     11  C   UNL     1       3.619   4.248  16.744  0.00  0.00    +0.000 A 
ATOM     12  C   UNL     1       4.820   4.776  16.274  0.00  0.00    +0.000 A 
ATOM     13  C   UNL     1       5.507   5.707  17.054  0.00  0.00    +0.000 A 
ATOM     14  C   UNL     1       4.987   6.123  18.284  0.00  0.00    +0.000 A 
ATOM     15  C   UNL     1       3.756   5.633  18.758  0.00  0.00    +0.000 A 
BRANCH  13  16
ATOM     16  N   UNL     1       6.772   6.271  16.571  0.00  0.00    +0.000 N 
ATOM     17  O   UNL     1       7.143   7.349  17.059  0.00  0.00    +0.000 OA
ATOM     18  O   UNL     1       7.400   5.645  15.705  0.00  0.00    +0.000 OA
ENDBRANCH  13  16
ENDBRANCH   1  15
BRANCH   4  19
ATOM     19  C   UNL     1       0.561  10.190  19.207  0.00  0.00    +0.000 A 
ATOM     20  C   UNL     1       1.356  11.344  19.150  0.00  0.00    +0.000 A 
ATOM     21  C   UNL     1       0.837  12.547  18.655  0.00  0.00    +0.000 A 
ATOM     22  C   UNL     1      -0.480  12.608  18.207  0.00  0.00    +0.000 A 
ATOM     23  C   UNL     1      -1.275  11.466  18.237  0.00  0.00    +0.000 A 
ATOM     24  C   UNL     1      -0.757  10.265  18.730  0.00  0.00    +0.000 A 
ENDBRANCH   4  19
TORSDOF 3
ENDMDL
MODEL 9
REMARK VINA RESULT:      -7.5      2.207      3.211
REMARK  Name = 
REMARK  4 active torsions:
REMARK  status: ('A' for Active; 'I' for Inactive)
REMARK    1  A    between atoms: C_1  and  C_2
REMARK    2  A    between atoms: C_5  and  N_6
REMARK    3  A    between atoms: C_10  and  N_11
REMARK    4  A    between atoms: C_14  and  C_15
REMARK                            x       y       z     vdW  Elec       q    Type
REMARK                         _______ _______ _______ _____ _____    ______ ____
ROOT
ATOM      1  N   UNL     1       2.630   6.447  20.427  0.00  0.00    +0.000 N 
ATOM      2  C   UNL     1       1.929   7.606  20.445  0.00  0.00    +0.000 A 
ATOM      3  N   UNL     1       1.518   8.389  19.473  0.00  0.00    +0.000 NA
ATOM      4  C   UNL     1       0.855   9.445  20.059  0.00  0.00    +0.000 A 
ATOM      5  C   UNL     1       0.819   9.267  21.424  0.00  0.00    +0.000 A 
ATOM      6  N   UNL     1       1.518   8.115  21.651  0.00  0.00    +0.000 N 
ATOM      7  H   UNL     1       2.917   6.032  21.302  0.00  0.00    +0.000 HD
ATOM      8  H   UNL     1       1.688   7.690  22.550  0.00  0.00    +0.000 HD
ENDROOT
BRANCH   1  15
ATOM      9  C   UNL     1       1.046   4.004  19.984  0.00  0.00    +0.000 C 
ATOM     10  C   UNL     1       2.106   4.492  19.031  0.00  0.00    +0.000 A 
ATOM     11  C   UNL     1       2.308   3.754  17.848  0.00  0.00    +0.000 A 
ATOM     12  C   UNL     1       3.285   4.129  16.928  0.00  0.00    +0.000 A 
ATOM     13  C   UNL     1       4.093   5.233  17.203  0.00  0.00    +0.000 A 
ATOM     14  C   UNL     1       3.912   5.969  18.378  0.00  0.00    +0.000 A 
ATOM     15  C   UNL     1       2.905   5.632  19.301  0.00  0.00    +0.000 A 
BRANCH  13  16
ATOM     16  N   UNL     1       5.125   5.638  16.242  0.00  0.00    +0.000 N 
ATOM     17  O   UNL     1       5.979   4.795  15.928  0.00  0.00    +0.000 OA
ATOM     18  O   UNL     1       5.092   6.794  15.798  0.00  0.00    +0.000 OA
ENDBRANCH  13  16
ENDBRANCH   1  15
BRANCH   4  19
ATOM     19  C   UNL     1       0.329  10.586  19.318  0.00  0.00    +0.000 A 
ATOM     20  C   UNL     1       1.046  11.791  19.281  0.00  0.00    +0.000 A 
ATOM     21  C   UNL     1       0.518  12.919  18.640  0.00  0.00    +0.000 A 
ATOM     22  C   UNL     1      -0.731  12.853  18.026  0.00  0.00    +0.000 A 
ATOM     23  C   UNL     1      -1.445  11.659  18.037  0.00  0.00    +0.000 A 
ATOM     24  C   UNL     1      -0.917  10.533  18.675  0.00  0.00    +0.000 A 
ENDBRANCH   4  19
TORSDOF 3
ENDMDL
