MODEL 1
REMARK VINA RESULT:      -6.4      0.000      0.000
REMARK  Name = 
REMARK  8 active torsions:
REMARK  status: ('A' for Active; 'I' for Inactive)
REMARK    1  A    between atoms: C_1  and  C_2
REMARK    2  A    between atoms: C_2  and  C_3
REMARK    3  A    between atoms: C_3  and  C_4
REMARK    4  A    between atoms: C_4  and  C_5
REMARK    5  A    between atoms: C_5  and  C_6
REMARK    6  A    between atoms: C_6  and  C_7
REMARK    7  A    between atoms: C_8  and  C_9
REMARK    8  A    between atoms: C_10  and  C_11
REMARK                            x       y       z     vdW  Elec       q    Type
REMARK                         _______ _______ _______ _____ _____    ______ ____
ROOT
ATOM      1  C   UNL     1       3.548   4.101  17.096  0.00  0.00    +0.000 C 
ATOM      2  C   UNL     1       4.842   3.780  16.930  0.00  0.00    +0.000 C 
ENDROOT
BRANCH   2   3
ATOM      3  C   UNL     1       5.878   4.774  16.945  0.00  0.00    +0.000 C 
ATOM      4  C   UNL     1       6.349   5.443  17.997  0.00  0.00    +0.000 C 
ATOM      5  C   UNL     1       6.014   5.351  19.438  0.00  0.00    +0.000 C 
ATOM      6  C   UNL     1       7.364   6.362  17.497  0.00  0.00    +0.000 C 
ATOM      7  O   UNL     1       7.982   7.164  18.174  0.00  0.00    +0.000 OA
ATOM      8  O   UNL     1       7.496   6.170  16.170  0.00  0.00    +0.000 OA
ATOM      9  C   UNL     1       6.639   5.206  15.771  0.00  0.00    +0.000 C 
ATOM     10  O   UNL     1       6.525   4.777  14.636  0.00  0.00    +0.000 OA
ENDBRANCH   2   3
BRANCH   1  11
ATOM     11  C   UNL     1       2.432   3.107  17.183  0.00  0.00    +0.000 C 
BRANCH  11  12
ATOM     12  C   UNL     1       1.444   3.477  18.286  0.00  0.00    +0.000 C 
BRANCH  12  13
ATOM     13  C   UNL     1       1.934   4.692  19.070  0.00  0.00    +0.000 C 
BRANCH  13  14
ATOM     14  C   UNL     1       1.398   4.676  20.500  0.00  0.00    +0.000 C 
BRANCH  14  16
ATOM     15  C   UNL     1       2.507   2.722  21.632  0.00  0.00    +0.000 C 
ATOM     16  C   UNL     1       1.224   3.246  21.007  0.00  0.00    +0.000 C 
ENDBRANCH  14  16
ENDBRANCH  13  14
ENDBRANCH  12  13
ENDBRANCH  11  12
ENDBRANCH   1  11
TORSDOF 6
ENDMDL
MODEL 2
REMARK VINA RESULT:      -6.4      1.449      2.597
REMARK  Name = 
REMARK  8 active torsions:
REMARK  status: ('A' for Active; 'I' for Inactive)
REMARK    1  A    between atoms: C_1  and  C_2
REMARK    2  A    between atoms: C_2  and  C_3
REMARK    3  A    between atoms: C_3  and  C_4
REMARK    4  A    between atoms: C_4  and  C_5
REMARK    5  A    between atoms: C_5  and  C_6
REMARK    6  A    between atoms: C_6  and  C_7
REMARK    7  A    between atoms: C_8  and  C_9
REMARK    8  A    between atoms: C_10  and  C_11
REMARK                            x       y       z     vdW  Elec       q    Type
REMARK                         _______ _______ _______ _____ _____    ______ ____
ROOT
ATOM      1  C   UNL     1       3.673   2.606  17.401  0.00  0.00    +0.000 C 
ATOM      2  C   UNL     1       4.024   3.902  17.445  0.00  0.00    +0.000 C 
ENDROOT
BRANCH   2   3
ATOM      3  C   UNL     1       5.317   4.354  17.011  0.00  0.00    +0.000 C 
ATOM      4  C   UNL     1       5.713   4.608  15.764  0.00  0.00    +0.000 C 
ATOM      5  C   UNL     1       4.974   4.562  14.480  0.00  0.00    +0.000 C 
ATOM      6  C   UNL     1       7.115   5.003  15.836  0.00  0.00    +0.000 C 
ATOM      7  O   UNL     1       7.820   5.271  14.880  0.00  0.00    +0.000 OA
ATOM      8  O   UNL     1       7.487   5.017  17.131  0.00  0.00    +0.000 OA
ATOM      9  C   UNL     1       6.440   4.654  17.901  0.00  0.00    +0.000 C 
ATOM     10  O   UNL     1       6.436   4.590  19.118  0.00  0.00    +0.000 OA
ENDBRANCH   2   3
BRANCH   1  11
ATOM     11  C   UNL     1       2.315   2.083  17.750  0.00  0.00    +0.000 C 
BRANCH  11  12
ATOM     12  C   UNL     1       2.124   1.997  19.261  0.00  0.00    +0.000 C 
BRANCH  12  13
ATOM     13  C   UNL     1       1.005   2.929  19.722  0.00  0.00    +0.000 C 
BRANCH  13  14
ATOM     14  C   UNL     1       1.286   3.476  21.120  0.00  0.00    +0.000 C 
BRANCH  14  16
ATOM     15  C   UNL     1       2.034   5.689  20.188  0.00  0.00    +0.000 C 
ATOM     16  C   UNL     1       2.399   4.521  21.090  0.00  0.00    +0.000 C 
ENDBRANCH  14  16
ENDBRANCH  13  14
ENDBRANCH  12  13
ENDBRANCH  11  12
ENDBRANCH   1  11
TORSDOF 6
ENDMDL
MODEL 3
REMARK VINA RESULT:      -6.3      1.082      1.510
REMARK  Name = 
REMARK  8 active torsions:
REMARK  status: ('A' for Active; 'I' for Inactive)
REMARK    1  A    between atoms: C_1  and  C_2
REMARK    2  A    between atoms: C_2  and  C_3
REMARK    3  A    between atoms: C_3  and  C_4
REMARK    4  A    between atoms: C_4  and  C_5
REMARK    5  A    between atoms: C_5  and  C_6
REMARK    6  A    between atoms: C_6  and  C_7
REMARK    7  A    between atoms: C_8  and  C_9
REMARK    8  A    between atoms: C_10  and  C_11
REMARK                            x       y       z     vdW  Elec       q    Type
REMARK                         _______ _______ _______ _____ _____    ______ ____
ROOT
ATOM      1  C   UNL     1       3.822   2.846  17.626  0.00  0.00    +0.000 C 
ATOM      2  C   UNL     1       3.849   3.995  16.931  0.00  0.00    +0.000 C 
ENDROOT
BRANCH   2   3
ATOM      3  C   UNL     1       5.070   4.714  16.701  0.00  0.00    +0.000 C 
ATOM      4  C   UNL     1       5.850   5.305  17.605  0.00  0.00    +0.000 C 
ATOM      5  C   UNL     1       5.750   5.368  19.082  0.00  0.00    +0.000 C 
ATOM      6  C   UNL     1       6.948   5.930  16.877  0.00  0.00    +0.000 C 
ATOM      7  O   UNL     1       7.836   6.596  17.379  0.00  0.00    +0.000 OA
ATOM      8  O   UNL     1       6.807   5.645  15.568  0.00  0.00    +0.000 OA
ATOM      9  C   UNL     1       5.700   4.892  15.391  0.00  0.00    +0.000 C 
ATOM     10  O   UNL     1       5.303   4.445  14.329  0.00  0.00    +0.000 OA
ENDBRANCH   2   3
BRANCH   1  11
ATOM     11  C   UNL     1       2.601   2.002  17.822  0.00  0.00    +0.000 C 
BRANCH  11  12
ATOM     12  C   UNL     1       1.435   2.828  18.358  0.00  0.00    +0.000 C 
BRANCH  12  13
ATOM     13  C   UNL     1       1.369   2.752  19.882  0.00  0.00    +0.000 C 
BRANCH  13  14
ATOM     14  C   UNL     1       1.000   4.107  20.483  0.00  0.00    +0.000 C 
BRANCH  14  16
ATOM     15  C   UNL     1       2.310   6.125  19.747  0.00  0.00    +0.000 C 
ATOM     16  C   UNL     1       2.243   4.961  20.723  0.00  0.00    +0.000 C 
ENDBRANCH  14  16
ENDBRANCH  13  14
ENDBRANCH  12  13
ENDBRANCH  11  12
ENDBRANCH   1  11
TORSDOF 6
ENDMDL
MODEL 4
REMARK VINA RESULT:      -6.3      1.391      2.698
REMARK  Name = 
REMARK  8 active torsions:
REMARK  status: ('A' for Active; 'I' for Inactive)
REMARK    1  A    between atoms: C_1  and  C_2
REMARK    2  A    between atoms: C_2  and  C_3
REMARK    3  A    between atoms: C_3  and  C_4
REMARK    4  A    between atoms: C_4  and  C_5
REMARK    5  A    between atoms: C_5  and  C_6
REMARK    6  A    between atoms: C_6  and  C_7
REMARK    7  A    between atoms: C_8  and  C_9
REMARK    8  A    between atoms: C_10  and  C_11
REMARK                            x       y       z     vdW  Elec       q    Type
REMARK                         _______ _______ _______ _____ _____    ______ ____
ROOT
ATOM      1  C   UNL     1       4.042   2.996  17.427  0.00  0.00    +0.000 C 
ATOM      2  C   UNL     1       4.075   4.119  16.690  0.00  0.00    +0.000 C 
ENDROOT
BRANCH   2   3
ATOM      3  C   UNL     1       5.311   4.703  16.252  0.00  0.00    +0.000 C 
ATOM      4  C   UNL     1       5.879   4.603  15.050  0.00  0.00    +0.000 C 
ATOM      5  C   UNL     1       5.419   3.931  13.811  0.00  0.00    +0.000 C 
ATOM      6  C   UNL     1       7.136   5.338  15.110  0.00  0.00    +0.000 C 
ATOM      7  O   UNL     1       7.943   5.428  14.202  0.00  0.00    +0.000 OA
ATOM      8  O   UNL     1       7.247   5.892  16.333  0.00  0.00    +0.000 OA
ATOM      9  C   UNL     1       6.165   5.566  17.072  0.00  0.00    +0.000 C 
ATOM     10  O   UNL     1       5.944   5.928  18.214  0.00  0.00    +0.000 OA
ENDBRANCH   2   3
BRANCH   1  11
ATOM     11  C   UNL     1       2.790   2.286  17.836  0.00  0.00    +0.000 C 
BRANCH  11  12
ATOM     12  C   UNL     1       1.666   3.274  18.139  0.00  0.00    +0.000 C 
BRANCH  12  13
ATOM     13  C   UNL     1       1.091   3.032  19.534  0.00  0.00    +0.000 C 
BRANCH  13  14
ATOM     14  C   UNL     1       1.100   4.316  20.361  0.00  0.00    +0.000 C 
BRANCH  14  16
ATOM     15  C   UNL     1       2.353   6.420  19.788  0.00  0.00    +0.000 C 
ATOM     16  C   UNL     1       2.466   4.996  20.308  0.00  0.00    +0.000 C 
ENDBRANCH  14  16
ENDBRANCH  13  14
ENDBRANCH  12  13
ENDBRANCH  11  12
ENDBRANCH   1  11
TORSDOF 6
ENDMDL
MODEL 5
REMARK VINA RESULT:      -6.3      1.184      1.393
REMARK  Name = 
REMARK  8 active torsions:
REMARK  status: ('A' for Active; 'I' for Inactive)
REMARK    1  A    between atoms: C_1  and  C_2
REMARK    2  A    between atoms: C_2  and  C_3
REMARK    3  A    between atoms: C_3  and  C_4
REMARK    4  A    between atoms: C_4  and  C_5
REMARK    5  A    between atoms: C_5  and  C_6
REMARK    6  A    between atoms: C_6  and  C_7
REMARK    7  A    between atoms: C_8  and  C_9
REMARK    8  A    between atoms: C_10  and  C_11
REMARK                            x       y       z     vdW  Elec       q    Type
REMARK                         _______ _______ _______ _____ _____    ______ ____
ROOT
ATOM      1  C   UNL     1       2.976   5.195  17.761  0.00  0.00    +0.000 C 
ATOM      2  C   UNL     1       4.123   4.868  17.145  0.00  0.00    +0.000 C 
ENDROOT
BRANCH   2   3
ATOM      3  C   UNL     1       5.286   5.709  17.209  0.00  0.00    +0.000 C 
ATOM      4  C   UNL     1       6.194   5.771  18.182  0.00  0.00    +0.000 C 
ATOM      5  C   UNL     1       6.327   4.994  19.438  0.00  0.00    +0.000 C 
ATOM      6  C   UNL     1       7.156   6.797  17.803  0.00  0.00    +0.000 C 
ATOM      7  O   UNL     1       8.105   7.156  18.476  0.00  0.00    +0.000 OA
ATOM      8  O   UNL     1       6.813   7.275  16.590  0.00  0.00    +0.000 OA
ATOM      9  C   UNL     1       5.699   6.644  16.160  0.00  0.00    +0.000 C 
ATOM     10  O   UNL     1       5.143   6.825  15.091  0.00  0.00    +0.000 OA
ENDBRANCH   2   3
BRANCH   1  11
ATOM     11  C   UNL     1       1.761   4.322  17.812  0.00  0.00    +0.000 C 
BRANCH  11  12
ATOM     12  C   UNL     1       2.138   2.844  17.760  0.00  0.00    +0.000 C 
BRANCH  12  13
ATOM     13  C   UNL     1       1.683   2.122  19.028  0.00  0.00    +0.000 C 
BRANCH  13  14
ATOM     14  C   UNL     1       0.779   3.016  19.874  0.00  0.00    +0.000 C 
BRANCH  14  16
ATOM     15  C   UNL     1       2.775   2.711  21.373  0.00  0.00    +0.000 C 
ATOM     16  C   UNL     1       1.332   3.179  21.288  0.00  0.00    +0.000 C 
ENDBRANCH  14  16
ENDBRANCH  13  14
ENDBRANCH  12  13
ENDBRANCH  11  12
ENDBRANCH   1  11
TORSDOF 6
ENDMDL
MODEL 6
REMARK VINA RESULT:      -6.2      1.434      2.143
REMARK  Name = 
REMARK  8 active torsions:
REMARK  status: ('A' for Active; 'I' for Inactive)
REMARK    1  A    between atoms: C_1  and  C_2
REMARK    2  A    between atoms: C_2  and  C_3
REMARK    3  A    between atoms: C_3  and  C_4
REMARK    4  A    between atoms: C_4  and  C_5
REMARK    5  A    between atoms: C_5  and  C_6
REMARK    6  A    between atoms: C_6  and  C_7
REMARK    7  A    between atoms: C_8  and  C_9
REMARK    8  A    between atoms: C_10  and  C_11
REMARK                            x       y       z     vdW  Elec       q    Type
REMARK                         _______ _______ _______ _____ _____    ______ ____
ROOT
ATOM      1  C   UNL     1       2.947   4.725  17.642  0.00  0.00    +0.000 C 
ATOM      2  C   UNL     1       4.104   4.316  17.097  0.00  0.00    +0.000 C 
ENDROOT
BRANCH   2   3
ATOM      3  C   UNL     1       5.327   5.047  17.273  0.00  0.00    +0.000 C 
ATOM      4  C   UNL     1       5.839   5.983  16.474  0.00  0.00    +0.000 C 
ATOM      5  C   UNL     1       5.316   6.588  15.226  0.00  0.00    +0.000 C 
ATOM      6  C   UNL     1       7.107   6.397  17.061  0.00  0.00    +0.000 C 
ATOM      7  O   UNL     1       7.874   7.211  16.579  0.00  0.00    +0.000 OA
ATOM      8  O   UNL     1       7.280   5.727  18.218  0.00  0.00    +0.000 OA
ATOM      9  C   UNL     1       6.228   4.905  18.420  0.00  0.00    +0.000 C 
ATOM     10  O   UNL     1       6.063   4.179  19.384  0.00  0.00    +0.000 OA
ENDBRANCH   2   3
BRANCH   1  11
ATOM     11  C   UNL     1       1.661   3.962  17.574  0.00  0.00    +0.000 C 
BRANCH  11  12
ATOM     12  C   UNL     1       1.783   2.605  18.263  0.00  0.00    +0.000 C 
BRANCH  12  13
ATOM     13  C   UNL     1       0.823   2.509  19.448  0.00  0.00    +0.000 C 
BRANCH  13  14
ATOM     14  C   UNL     1       0.782   3.820  20.229  0.00  0.00    +0.000 C 
BRANCH  14  16
ATOM     15  C   UNL     1       2.384   2.618  21.751  0.00  0.00    +0.000 C 
ATOM     16  C   UNL     1       1.998   3.956  21.143  0.00  0.00    +0.000 C 
ENDBRANCH  14  16
ENDBRANCH  13  14
ENDBRANCH  12  13
ENDBRANCH  11  12
ENDBRANCH   1  11
TORSDOF 6
ENDMDL
MODEL 7
REMARK VINA RESULT:      -6.2      3.937      6.220
REMARK  Name = 
REMARK  8 active torsions:
REMARK  status: ('A' for Active; 'I' for Inactive)
REMARK    1  A    between atoms: C_1  and  C_2
REMARK    2  A    between atoms: C_2  and  C_3
REMARK    3  A    between atoms: C_3  and  C_4
REMARK    4  A    between atoms: C_4  and  C_5
REMARK    5  A    between atoms: C_5  and  C_6
REMARK    6  A    between atoms: C_6  and  C_7
REMARK    7  A    between atoms: C_8  and  C_9
REMARK    8  A    between atoms: C_10  and  C_11
REMARK                            x       y       z     vdW  Elec       q    Type
REMARK                         _______ _______ _______ _____ _____    ______ ____
ROOT
ATOM      1  C   UNL     1       6.471   4.069  14.516  0.00  0.00    +0.000 C 
ATOM      2  C   UNL     1       5.554   4.680  15.285  0.00  0.00    +0.000 C 
ENDROOT
BRANCH   2   3
ATOM      3  C   UNL     1       5.629   4.656  16.719  0.00  0.00    +0.000 C 
ATOM      4  C   UNL     1       6.400   5.405  17.506  0.00  0.00    +0.000 C 
ATOM      5  C   UNL     1       7.353   6.493  17.184  0.00  0.00    +0.000 C 
ATOM      6  C   UNL     1       6.143   4.985  18.878  0.00  0.00    +0.000 C 
ATOM      7  O   UNL     1       6.702   5.425  19.866  0.00  0.00    +0.000 OA
ATOM      8  O   UNL     1       5.188   4.034  18.860  0.00  0.00    +0.000 OA
ATOM      9  C   UNL     1       4.815   3.800  17.584  0.00  0.00    +0.000 C 
ATOM     10  O   UNL     1       3.954   3.016  17.224  0.00  0.00    +0.000 OA
ENDBRANCH   2   3
BRANCH   1  11
ATOM     11  C   UNL     1       6.503   4.135  13.021  0.00  0.00    +0.000 C 
BRANCH  11  12
ATOM     12  C   UNL     1       5.525   3.141  12.401  0.00  0.00    +0.000 C 
BRANCH  12  13
ATOM     13  C   UNL     1       4.687   3.810  11.312  0.00  0.00    +0.000 C 
BRANCH  13  14
ATOM     14  C   UNL     1       3.360   3.080  11.114  0.00  0.00    +0.000 C 
BRANCH  14  16
ATOM     15  C   UNL     1       2.662   4.678   9.302  0.00  0.00    +0.000 C 
ATOM     16  C   UNL     1       2.863   3.219   9.678  0.00  0.00    +0.000 C 
ENDBRANCH  14  16
ENDBRANCH  13  14
ENDBRANCH  12  13
ENDBRANCH  11  12
ENDBRANCH   1  11
TORSDOF 6
ENDMDL
MODEL 8
REMARK VINA RESULT:      -6.2      1.506      2.818
REMARK  Name = 
REMARK  8 active torsions:
REMARK  status: ('A' for Active; 'I' for Inactive)
REMARK    1  A    between atoms: C_1  and  C_2
REMARK    2  A    between atoms: C_2  and  C_3
REMARK    3  A    between atoms: C_3  and  C_4
REMARK    4  A    between atoms: C_4  and  C_5
REMARK    5  A    between atoms: C_5  and  C_6
REMARK    6  A    between atoms: C_6  and  C_7
REMARK    7  A    between atoms: C_8  and  C_9
REMARK    8  A    between atoms: C_10  and  C_11
REMARK                            x       y       z     vdW  Elec       q    Type
REMARK                         _______ _______ _______ _____ _____    ______ ____
ROOT
ATOM      1  C   UNL     1       3.450   5.598  18.034  0.00  0.00    +0.000 C 
ATOM      2  C   UNL     1       4.736   5.882  18.298  0.00  0.00    +0.000 C 
ENDROOT
BRANCH   2   3
ATOM      3  C   UNL     1       5.791   5.544  17.383  0.00  0.00    +0.000 C 
ATOM      4  C   UNL     1       5.876   5.851  16.090  0.00  0.00    +0.000 C 
ATOM      5  C   UNL     1       4.980   6.649  15.218  0.00  0.00    +0.000 C 
ATOM      6  C   UNL     1       7.109   5.255  15.591  0.00  0.00    +0.000 C 
ATOM      7  O   UNL     1       7.495   5.297  14.437  0.00  0.00    +0.000 OA
ATOM      8  O   UNL     1       7.739   4.657  16.621  0.00  0.00    +0.000 OA
ATOM      9  C   UNL     1       7.006   4.811  17.744  0.00  0.00    +0.000 C 
ATOM     10  O   UNL     1       7.307   4.409  18.854  0.00  0.00    +0.000 OA
ENDBRANCH   2   3
BRANCH   1  11
ATOM     11  C   UNL     1       2.297   6.005  18.899  0.00  0.00    +0.000 C 
BRANCH  11  12
ATOM     12  C   UNL     1       2.314   5.263  20.232  0.00  0.00    +0.000 C 
BRANCH  12  13
ATOM     13  C   UNL     1       1.049   4.422  20.403  0.00  0.00    +0.000 C 
BRANCH  13  14
ATOM     14  C   UNL     1       1.345   2.938  20.195  0.00  0.00    +0.000 C 
BRANCH  14  16
ATOM     15  C   UNL     1       2.210   2.234  17.941  0.00  0.00    +0.000 C 
ATOM     16  C   UNL     1       0.972   2.494  18.783  0.00  0.00    +0.000 C 
ENDBRANCH  14  16
ENDBRANCH  13  14
ENDBRANCH  12  13
ENDBRANCH  11  12
ENDBRANCH   1  11
TORSDOF 6
ENDMDL
MODEL 9
REMARK VINA RESULT:      -6.1      1.590      3.175
REMARK  Name = 
REMARK  8 active torsions:
REMARK  status: ('A' for Active; 'I' for Inactive)
REMARK    1  A    between atoms: C_1  and  C_2
REMARK    2  A    between atoms: C_2  and  C_3
REMARK    3  A    between atoms: C_3  and  C_4
REMARK    4  A    between atoms: C_4  and  C_5
REMARK    5  A    between atoms: C_5  and  C_6
REMARK    6  A    between atoms: C_6  and  C_7
REMARK    7  A    between atoms: C_8  and  C_9
REMARK    8  A    between atoms: C_10  and  C_11
REMARK                            x       y       z     vdW  Elec       q    Type
REMARK                         _______ _______ _______ _____ _____    ______ ____
ROOT
ATOM      1  C   UNL     1       3.687   5.083  19.812  0.00  0.00    +0.000 C 
ATOM      2  C   UNL     1       4.425   5.901  19.043  0.00  0.00    +0.000 C 
ENDROOT
BRANCH   2   3
ATOM      3  C   UNL     1       5.634   5.458  18.406  0.00  0.00    +0.000 C 
ATOM      4  C   UNL     1       5.834   5.233  17.108  0.00  0.00    +0.000 C 
ATOM      5  C   UNL     1       4.936   5.406  15.941  0.00  0.00    +0.000 C 
ATOM      6  C   UNL     1       7.206   4.764  16.964  0.00  0.00    +0.000 C 
ATOM      7  O   UNL     1       7.727   4.422  15.917  0.00  0.00    +0.000 OA
ATOM      8  O   UNL     1       7.790   4.776  18.178  0.00  0.00    +0.000 OA
ATOM      9  C   UNL     1       6.899   5.206  19.098  0.00  0.00    +0.000 C 
ATOM     10  O   UNL     1       7.117   5.356  20.287  0.00  0.00    +0.000 OA
ENDBRANCH   2   3
BRANCH   1  11
ATOM     11  C   UNL     1       2.373   5.454  20.427  0.00  0.00    +0.000 C 
BRANCH  11  12
ATOM     12  C   UNL     1       1.263   4.509  19.976  0.00  0.00    +0.000 C 
BRANCH  12  13
ATOM     13  C   UNL     1       1.549   3.078  20.429  0.00  0.00    +0.000 C 
BRANCH  13  14
ATOM     14  C   UNL     1       1.480   2.106  19.254  0.00  0.00    +0.000 C 
BRANCH  14  16
ATOM     15  C   UNL     1       3.132   2.487  17.396  0.00  0.00    +0.000 C 
ATOM     16  C   UNL     1       2.874   1.786  18.720  0.00  0.00    +0.000 C 
ENDBRANCH  14  16
ENDBRANCH  13  14
ENDBRANCH  12  13
ENDBRANCH  11  12
ENDBRANCH   1  11
TORSDOF 6
ENDMDL
