MODEL 1
REMARK VINA RESULT:      -8.3      0.000      0.000
REMARK  Name = 
REMARK  5 active torsions:
REMARK  status: ('A' for Active; 'I' for Inactive)
REMARK    1  A    between atoms: C_2  and  C_3
REMARK    2  A    between atoms: C_5  and  C_6
REMARK    3  A    between atoms: C_14  and  C_15
REMARK    4  A    between atoms: C_23  and  O_24
REMARK    5  A    between atoms: O_24  and  C_25
REMARK                            x       y       z     vdW  Elec       q    Type
REMARK                         _______ _______ _______ _____ _____    ______ ____
ROOT
ATOM      1  C   UNL     1       0.659   9.651  19.983  0.00  0.00    +0.000 A 
ATOM      2  C   UNL     1       0.833  10.268  21.202  0.00  0.00    +0.000 A 
ATOM      3  C   UNL     1      -0.038  11.284  21.476  0.00  0.00    +0.000 A 
ATOM      4  N   UNL     1      -1.005  11.660  20.632  0.00  0.00    +0.000 NA
ATOM      5  C   UNL     1      -1.141  10.999  19.474  0.00  0.00    +0.000 A 
ATOM      6  N   UNL     1      -2.153  11.302  18.567  0.00  0.00    +0.000 N 
ATOM      7  C   UNL     1      -3.304  11.895  18.937  0.00  0.00    +0.000 A 
ATOM      8  N   UNL     1      -3.469  12.654  19.993  0.00  0.00    +0.000 NA
ATOM      9  C   UNL     1      -4.789  12.954  20.193  0.00  0.00    +0.000 A 
ATOM     10  C   UNL     1      -5.649  12.490  19.227  0.00  0.00    +0.000 A 
ATOM     11  S   UNL     1      -4.754  11.652  18.023  0.00  0.00    +0.000 S 
ATOM     12  N   UNL     1      -0.330   9.995  19.123  0.00  0.00    +0.000 NA
ATOM     13  H   UNL     1      -2.147  10.643  17.805  0.00  0.00    +0.000 HD
ENDROOT
BRANCH   1  16
ATOM     14  C   UNL     1       2.462   6.332  19.692  0.00  0.00    +0.000 A 
ATOM     15  C   UNL     1       1.726   7.417  20.201  0.00  0.00    +0.000 A 
ATOM     16  C   UNL     1       1.561   8.608  19.483  0.00  0.00    +0.000 A 
ATOM     17  C   UNL     1       2.205   8.714  18.245  0.00  0.00    +0.000 A 
ATOM     18  C   UNL     1       2.959   7.652  17.739  0.00  0.00    +0.000 A 
ATOM     19  C   UNL     1       3.096   6.447  18.454  0.00  0.00    +0.000 A 
BRANCH  14  21
ATOM     20  N   UNL     1       2.348   4.199  21.159  0.00  0.00    +0.000 NA
ATOM     21  C   UNL     1       2.434   5.157  20.500  0.00  0.00    +0.000 C 
ENDBRANCH  14  21
BRANCH  19  22
ATOM     22  O   UNL     1       3.798   5.507  17.755  0.00  0.00    +0.000 OA
BRANCH  22  23
ATOM     23  C   UNL     1       5.123   5.772  17.275  0.00  0.00    +0.000 C 
ATOM     24  C   UNL     1       5.466   4.890  16.072  0.00  0.00    +0.000 C 
ATOM     25  C   UNL     1       6.961   4.791  15.828  0.00  0.00    +0.000 C 
ATOM     26  O   UNL     1       7.654   4.444  17.022  0.00  0.00    +0.000 OA
ATOM     27  C   UNL     1       7.518   5.447  18.023  0.00  0.00    +0.000 C 
ATOM     28  C   UNL     1       6.071   5.562  18.463  0.00  0.00    +0.000 C 
ENDBRANCH  22  23
ENDBRANCH  19  22
ENDBRANCH   1  16
BRANCH   9  29
ATOM     29  C   UNL     1      -5.220  13.739  21.420  0.00  0.00    +0.000 C 
ATOM     30  C   UNL     1      -5.296  12.996  22.744  0.00  0.00    +0.000 C 
ATOM     31  C   UNL     1      -4.187  13.962  22.508  0.00  0.00    +0.000 C 
ENDBRANCH   9  29
TORSDOF 5
ENDMDL
MODEL 2
REMARK VINA RESULT:      -8.2      1.147      1.314
REMARK  Name = 
REMARK  5 active torsions:
REMARK  status: ('A' for Active; 'I' for Inactive)
REMARK    1  A    between atoms: C_2  and  C_3
REMARK    2  A    between atoms: C_5  and  C_6
REMARK    3  A    between atoms: C_14  and  C_15
REMARK    4  A    between atoms: C_23  and  O_24
REMARK    5  A    between atoms: O_24  and  C_25
REMARK                            x       y       z     vdW  Elec       q    Type
REMARK                         _______ _______ _______ _____ _____    ______ ____
ROOT
ATOM      1  C   UNL     1       0.783   9.051  20.890  0.00  0.00    +0.000 A 
ATOM      2  C   UNL     1       0.827   9.056  22.266  0.00  0.00    +0.000 A 
ATOM      3  C   UNL     1       0.049   9.998  22.876  0.00  0.00    +0.000 A 
ATOM      4  N   UNL     1      -0.716  10.860  22.197  0.00  0.00    +0.000 NA
ATOM      5  C   UNL     1      -0.739  10.783  20.859  0.00  0.00    +0.000 A 
ATOM      6  N   UNL     1      -1.547  11.614  20.087  0.00  0.00    +0.000 N 
ATOM      7  C   UNL     1      -2.665  12.189  20.569  0.00  0.00    +0.000 A 
ATOM      8  N   UNL     1      -2.909  12.449  21.830  0.00  0.00    +0.000 NA
ATOM      9  C   UNL     1      -4.199  12.866  22.015  0.00  0.00    +0.000 A 
ATOM     10  C   UNL     1      -4.940  13.012  20.867  0.00  0.00    +0.000 A 
ATOM     11  S   UNL     1      -3.965  12.614  19.508  0.00  0.00    +0.000 S 
ATOM     12  N   UNL     1      -0.006   9.894  20.180  0.00  0.00    +0.000 NA
ATOM     13  H   UNL     1      -1.495  11.347  19.117  0.00  0.00    +0.000 HD
ENDROOT
BRANCH   1  16
ATOM     14  C   UNL     1       2.594   5.949  19.686  0.00  0.00    +0.000 A 
ATOM     15  C   UNL     1       1.917   6.874  20.501  0.00  0.00    +0.000 A 
ATOM     16  C   UNL     1       1.625   8.173  20.069  0.00  0.00    +0.000 A 
ATOM     17  C   UNL     1       2.080   8.554  18.802  0.00  0.00    +0.000 A 
ATOM     18  C   UNL     1       2.775   7.652  17.992  0.00  0.00    +0.000 A 
ATOM     19  C   UNL     1       3.039   6.339  18.422  0.00  0.00    +0.000 A 
BRANCH  14  21
ATOM     20  N   UNL     1       2.746   3.573  20.710  0.00  0.00    +0.000 NA
ATOM     21  C   UNL     1       2.708   4.638  20.234  0.00  0.00    +0.000 C 
ENDBRANCH  14  21
BRANCH  19  22
ATOM     22  O   UNL     1       3.653   5.592  17.457  0.00  0.00    +0.000 OA
BRANCH  22  23
ATOM     23  C   UNL     1       4.991   5.881  17.030  0.00  0.00    +0.000 C 
ATOM     24  C   UNL     1       5.342   5.123  15.747  0.00  0.00    +0.000 C 
ATOM     25  C   UNL     1       6.839   5.022  15.519  0.00  0.00    +0.000 C 
ATOM     26  O   UNL     1       7.503   4.538  16.682  0.00  0.00    +0.000 OA
ATOM     27  C   UNL     1       7.365   5.433  17.781  0.00  0.00    +0.000 C 
ATOM     28  C   UNL     1       5.912   5.529  18.205  0.00  0.00    +0.000 C 
ENDBRANCH  22  23
ENDBRANCH  19  22
ENDBRANCH   1  16
BRANCH   9  29
ATOM     29  C   UNL     1      -4.728  13.123  23.416  0.00  0.00    +0.000 C 
ATOM     30  C   UNL     1      -4.250  12.210  24.533  0.00  0.00    +0.000 C 
ATOM     31  C   UNL     1      -3.742  13.608  24.460  0.00  0.00    +0.000 C 
ENDBRANCH   9  29
TORSDOF 5
ENDMDL
MODEL 3
REMARK VINA RESULT:      -8.1      1.931      2.139
REMARK  Name = 
REMARK  5 active torsions:
REMARK  status: ('A' for Active; 'I' for Inactive)
REMARK    1  A    between atoms: C_2  and  C_3
REMARK    2  A    between atoms: C_5  and  C_6
REMARK    3  A    between atoms: C_14  and  C_15
REMARK    4  A    between atoms: C_23  and  O_24
REMARK    5  A    between atoms: O_24  and  C_25
REMARK                            x       y       z     vdW  Elec       q    Type
REMARK                         _______ _______ _______ _____ _____    ______ ____
ROOT
ATOM      1  C   UNL     1       0.868   8.862  20.845  0.00  0.00    +0.000 A 
ATOM      2  C   UNL     1       0.153   8.379  21.919  0.00  0.00    +0.000 A 
ATOM      3  C   UNL     1      -0.497   9.321  22.664  0.00  0.00    +0.000 A 
ATOM      4  N   UNL     1      -0.459  10.627  22.379  0.00  0.00    +0.000 NA
ATOM      5  C   UNL     1       0.230  11.030  21.302  0.00  0.00    +0.000 A 
ATOM      6  N   UNL     1       0.276  12.367  20.914  0.00  0.00    +0.000 N 
ATOM      7  C   UNL     1      -0.682  13.252  21.250  0.00  0.00    +0.000 A 
ATOM      8  N   UNL     1      -1.481  13.160  22.285  0.00  0.00    +0.000 NA
ATOM      9  C   UNL     1      -2.460  14.115  22.249  0.00  0.00    +0.000 A 
ATOM     10  C   UNL     1      -2.366  15.013  21.213  0.00  0.00    +0.000 A 
ATOM     11  S   UNL     1      -0.987  14.637  20.259  0.00  0.00    +0.000 S 
ATOM     12  N   UNL     1       0.899  10.177  20.519  0.00  0.00    +0.000 NA
ATOM     13  H   UNL     1       0.764  12.459  20.038  0.00  0.00    +0.000 HD
ENDROOT
BRANCH   1  16
ATOM     14  C   UNL     1       2.689   5.799  19.559  0.00  0.00    +0.000 A 
ATOM     15  C   UNL     1       2.018   6.705  20.401  0.00  0.00    +0.000 A 
ATOM     16  C   UNL     1       1.703   8.007  19.995  0.00  0.00    +0.000 A 
ATOM     17  C   UNL     1       2.129   8.411  18.725  0.00  0.00    +0.000 A 
ATOM     18  C   UNL     1       2.817   7.529  17.887  0.00  0.00    +0.000 A 
ATOM     19  C   UNL     1       3.105   6.213  18.293  0.00  0.00    +0.000 A 
BRANCH  14  21
ATOM     20  N   UNL     1       2.926   3.381  20.459  0.00  0.00    +0.000 NA
ATOM     21  C   UNL     1       2.829   4.481  20.085  0.00  0.00    +0.000 C 
ENDBRANCH  14  21
BRANCH  19  22
ATOM     22  O   UNL     1       3.707   5.487  17.304  0.00  0.00    +0.000 OA
BRANCH  22  23
ATOM     23  C   UNL     1       5.025   5.810  16.842  0.00  0.00    +0.000 C 
ATOM     24  C   UNL     1       5.415   4.956  15.632  0.00  0.00    +0.000 C 
ATOM     25  C   UNL     1       6.915   4.918  15.403  0.00  0.00    +0.000 C 
ATOM     26  O   UNL     1       7.608   4.585  16.601  0.00  0.00    +0.000 OA
ATOM     27  C   UNL     1       7.423   5.570  17.612  0.00  0.00    +0.000 C 
ATOM     28  C   UNL     1       5.968   5.623  18.037  0.00  0.00    +0.000 C 
ENDBRANCH  22  23
ENDBRANCH  19  22
ENDBRANCH   1  16
BRANCH   9  29
ATOM     29  C   UNL     1      -3.558  14.128  23.299  0.00  0.00    +0.000 C 
ATOM     30  C   UNL     1      -4.792  13.279  23.043  0.00  0.00    +0.000 C 
ATOM     31  C   UNL     1      -3.805  12.847  24.071  0.00  0.00    +0.000 C 
ENDBRANCH   9  29
TORSDOF 5
ENDMDL
MODEL 4
REMARK VINA RESULT:      -8.1      1.259      1.744
REMARK  Name = 
REMARK  5 active torsions:
REMARK  status: ('A' for Active; 'I' for Inactive)
REMARK    1  A    between atoms: C_2  and  C_3
REMARK    2  A    between atoms: C_5  and  C_6
REMARK    3  A    between atoms: C_14  and  C_15
REMARK    4  A    between atoms: C_23  and  O_24
REMARK    5  A    between atoms: O_24  and  C_25
REMARK                            x       y       z     vdW  Elec       q    Type
REMARK                         _______ _______ _______ _____ _____    ______ ____
ROOT
ATOM      1  C   UNL     1       0.998   8.832  20.788  0.00  0.00    +0.000 A 
ATOM      2  C   UNL     1       1.086   8.805  22.162  0.00  0.00    +0.000 A 
ATOM      3  C   UNL     1       0.360   9.758  22.817  0.00  0.00    +0.000 A 
ATOM      4  N   UNL     1      -0.398  10.659  22.182  0.00  0.00    +0.000 NA
ATOM      5  C   UNL     1      -0.466  10.613  20.844  0.00  0.00    +0.000 A 
ATOM      6  N   UNL     1      -1.271  11.487  20.116  0.00  0.00    +0.000 N 
ATOM      7  C   UNL     1      -2.353  12.087  20.647  0.00  0.00    +0.000 A 
ATOM      8  N   UNL     1      -2.548  12.326  21.921  0.00  0.00    +0.000 NA
ATOM      9  C   UNL     1      -3.817  12.779  22.157  0.00  0.00    +0.000 A 
ATOM     10  C   UNL     1      -4.589  12.975  21.037  0.00  0.00    +0.000 A 
ATOM     11  S   UNL     1      -3.671  12.577  19.639  0.00  0.00    +0.000 S 
ATOM     12  N   UNL     1       0.215   9.716  20.123  0.00  0.00    +0.000 NA
ATOM     13  H   UNL     1      -1.258  11.241  19.140  0.00  0.00    +0.000 HD
ENDROOT
BRANCH   1  16
ATOM     14  C   UNL     1       2.703   5.712  19.482  0.00  0.00    +0.000 A 
ATOM     15  C   UNL     1       2.081   6.643  20.333  0.00  0.00    +0.000 A 
ATOM     16  C   UNL     1       1.784   7.947  19.921  0.00  0.00    +0.000 A 
ATOM     17  C   UNL     1       2.177   8.326  18.633  0.00  0.00    +0.000 A 
ATOM     18  C   UNL     1       2.816   7.418  17.785  0.00  0.00    +0.000 A 
ATOM     19  C   UNL     1       3.086   6.100  18.197  0.00  0.00    +0.000 A 
BRANCH  14  21
ATOM     20  N   UNL     1       2.945   3.348  20.514  0.00  0.00    +0.000 NA
ATOM     21  C   UNL     1       2.829   4.397  20.019  0.00  0.00    +0.000 C 
ENDBRANCH  14  21
BRANCH  19  22
ATOM     22  O   UNL     1       3.638   5.349  17.198  0.00  0.00    +0.000 OA
BRANCH  22  23
ATOM     23  C   UNL     1       5.037   5.038  17.188  0.00  0.00    +0.000 C 
ATOM     24  C   UNL     1       5.869   6.194  17.751  0.00  0.00    +0.000 C 
ATOM     25  C   UNL     1       7.328   6.117  17.342  0.00  0.00    +0.000 C 
ATOM     26  O   UNL     1       7.458   5.936  15.936  0.00  0.00    +0.000 OA
ATOM     27  C   UNL     1       6.898   4.699  15.507  0.00  0.00    +0.000 C 
ATOM     28  C   UNL     1       5.399   4.690  15.738  0.00  0.00    +0.000 C 
ENDBRANCH  22  23
ENDBRANCH  19  22
ENDBRANCH   1  16
BRANCH   9  29
ATOM     29  C   UNL     1      -4.293  13.022  23.580  0.00  0.00    +0.000 C 
ATOM     30  C   UNL     1      -4.034  14.391  24.189  0.00  0.00    +0.000 C 
ATOM     31  C   UNL     1      -5.418  14.019  23.782  0.00  0.00    +0.000 C 
ENDBRANCH   9  29
TORSDOF 5
ENDMDL
MODEL 5
REMARK VINA RESULT:      -8.1      2.117      2.430
REMARK  Name = 
REMARK  5 active torsions:
REMARK  status: ('A' for Active; 'I' for Inactive)
REMARK    1  A    between atoms: C_2  and  C_3
REMARK    2  A    between atoms: C_5  and  C_6
REMARK    3  A    between atoms: C_14  and  C_15
REMARK    4  A    between atoms: C_23  and  O_24
REMARK    5  A    between atoms: O_24  and  C_25
REMARK                            x       y       z     vdW  Elec       q    Type
REMARK                         _______ _______ _______ _____ _____    ______ ____
ROOT
ATOM      1  C   UNL     1       0.813   9.089  21.104  0.00  0.00    +0.000 A 
ATOM      2  C   UNL     1       0.261   8.564  22.251  0.00  0.00    +0.000 A 
ATOM      3  C   UNL     1      -0.370   9.462  23.064  0.00  0.00    +0.000 A 
ATOM      4  N   UNL     1      -0.461  10.765  22.777  0.00  0.00    +0.000 NA
ATOM      5  C   UNL     1       0.071  11.209  21.630  0.00  0.00    +0.000 A 
ATOM      6  N   UNL     1      -0.025  12.543  21.239  0.00  0.00    +0.000 N 
ATOM      7  C   UNL     1      -1.002  13.357  21.680  0.00  0.00    +0.000 A 
ATOM      8  N   UNL     1      -1.671  13.215  22.798  0.00  0.00    +0.000 NA
ATOM      9  C   UNL     1      -2.716  14.095  22.872  0.00  0.00    +0.000 A 
ATOM     10  C   UNL     1      -2.805  14.990  21.832  0.00  0.00    +0.000 A 
ATOM     11  S   UNL     1      -1.517  14.708  20.730  0.00  0.00    +0.000 S 
ATOM     12  N   UNL     1       0.710  10.400  20.776  0.00  0.00    +0.000 NA
ATOM     13  H   UNL     1       0.354  12.663  20.314  0.00  0.00    +0.000 HD
ENDROOT
BRANCH   1  16
ATOM     14  C   UNL     1       2.638   6.137  19.587  0.00  0.00    +0.000 A 
ATOM     15  C   UNL     1       2.003   6.992  20.506  0.00  0.00    +0.000 A 
ATOM     16  C   UNL     1       1.609   8.291  20.165  0.00  0.00    +0.000 A 
ATOM     17  C   UNL     1       1.917   8.746  18.878  0.00  0.00    +0.000 A 
ATOM     18  C   UNL     1       2.568   7.915  17.963  0.00  0.00    +0.000 A 
ATOM     19  C   UNL     1       2.936   6.600  18.305  0.00  0.00    +0.000 A 
BRANCH  14  21
ATOM     20  N   UNL     1       3.002   3.731  20.480  0.00  0.00    +0.000 NA
ATOM     21  C   UNL     1       2.867   4.811  20.060  0.00  0.00    +0.000 C 
ENDBRANCH  14  21
BRANCH  19  22
ATOM     22  O   UNL     1       3.484   5.926  17.251  0.00  0.00    +0.000 OA
BRANCH  22  23
ATOM     23  C   UNL     1       4.842   5.470  17.284  0.00  0.00    +0.000 C 
ATOM     24  C   UNL     1       5.805   6.614  17.617  0.00  0.00    +0.000 C 
ATOM     25  C   UNL     1       7.236   6.308  17.215  0.00  0.00    +0.000 C 
ATOM     26  O   UNL     1       7.305   5.862  15.865  0.00  0.00    +0.000 OA
ATOM     27  C   UNL     1       6.609   4.634  15.676  0.00  0.00    +0.000 C 
ATOM     28  C   UNL     1       5.124   4.827  15.920  0.00  0.00    +0.000 C 
ENDBRANCH  22  23
ENDBRANCH  19  22
ENDBRANCH   1  16
BRANCH   9  29
ATOM     29  C   UNL     1      -3.687  14.036  24.039  0.00  0.00    +0.000 C 
ATOM     30  C   UNL     1      -5.067  13.453  23.782  0.00  0.00    +0.000 C 
ATOM     31  C   UNL     1      -4.072  12.667  24.563  0.00  0.00    +0.000 C 
ENDBRANCH   9  29
TORSDOF 5
ENDMDL
MODEL 6
REMARK VINA RESULT:      -8.0      0.917      1.334
REMARK  Name = 
REMARK  5 active torsions:
REMARK  status: ('A' for Active; 'I' for Inactive)
REMARK    1  A    between atoms: C_2  and  C_3
REMARK    2  A    between atoms: C_5  and  C_6
REMARK    3  A    between atoms: C_14  and  C_15
REMARK    4  A    between atoms: C_23  and  O_24
REMARK    5  A    between atoms: O_24  and  C_25
REMARK                            x       y       z     vdW  Elec       q    Type
REMARK                         _______ _______ _______ _____ _____    ______ ____
ROOT
ATOM      1  C   UNL     1       0.957   8.865  20.312  0.00  0.00    +0.000 A 
ATOM      2  C   UNL     1       1.087   9.457  21.549  0.00  0.00    +0.000 A 
ATOM      3  C   UNL     1       0.318  10.567  21.753  0.00  0.00    +0.000 A 
ATOM      4  N   UNL     1      -0.516  11.054  20.828  0.00  0.00    +0.000 NA
ATOM      5  C   UNL     1      -0.620  10.414  19.655  0.00  0.00    +0.000 A 
ATOM      6  N   UNL     1      -1.502  10.833  18.661  0.00  0.00    +0.000 N 
ATOM      7  C   UNL     1      -2.606  11.556  18.931  0.00  0.00    +0.000 A 
ATOM      8  N   UNL     1      -2.779  12.328  19.975  0.00  0.00    +0.000 NA
ATOM      9  C   UNL     1      -4.068  12.779  20.056  0.00  0.00    +0.000 A 
ATOM     10  C   UNL     1      -4.883  12.419  19.010  0.00  0.00    +0.000 A 
ATOM     11  S   UNL     1      -3.982  11.483  17.885  0.00  0.00    +0.000 S 
ATOM     12  N   UNL     1       0.099   9.323  19.369  0.00  0.00    +0.000 NA
ATOM     13  H   UNL     1      -1.501  10.178  17.896  0.00  0.00    +0.000 HD
ENDROOT
BRANCH   1  16
ATOM     14  C   UNL     1       2.480   5.398  20.236  0.00  0.00    +0.000 A 
ATOM     15  C   UNL     1       1.832   6.567  20.671  0.00  0.00    +0.000 A 
ATOM     16  C   UNL     1       1.775   7.725  19.885  0.00  0.00    +0.000 A 
ATOM     17  C   UNL     1       2.440   7.707  18.655  0.00  0.00    +0.000 A 
ATOM     18  C   UNL     1       3.108   6.559  18.220  0.00  0.00    +0.000 A 
ATOM     19  C   UNL     1       3.136   5.390  19.004  0.00  0.00    +0.000 A 
BRANCH  14  21
ATOM     20  N   UNL     1       2.188   3.390  21.847  0.00  0.00    +0.000 NA
ATOM     21  C   UNL     1       2.345   4.277  21.106  0.00  0.00    +0.000 C 
ENDBRANCH  14  21
BRANCH  19  22
ATOM     22  O   UNL     1       3.766   4.357  18.369  0.00  0.00    +0.000 OA
BRANCH  22  23
ATOM     23  C   UNL     1       5.196   4.258  18.347  0.00  0.00    +0.000 C 
ATOM     24  C   UNL     1       5.840   5.306  19.259  0.00  0.00    +0.000 C 
ATOM     25  C   UNL     1       7.300   5.552  18.925  0.00  0.00    +0.000 C 
ATOM     26  O   UNL     1       7.473   5.803  17.534  0.00  0.00    +0.000 OA
ATOM     27  C   UNL     1       7.108   4.677  16.743  0.00  0.00    +0.000 C 
ATOM     28  C   UNL     1       5.624   4.395  16.880  0.00  0.00    +0.000 C 
ENDBRANCH  22  23
ENDBRANCH  19  22
ENDBRANCH   1  16
BRANCH   9  29
ATOM     29  C   UNL     1      -4.517  13.608  21.247  0.00  0.00    +0.000 C 
ATOM     30  C   UNL     1      -5.371  12.925  22.303  0.00  0.00    +0.000 C 
ATOM     31  C   UNL     1      -3.949  13.249  22.606  0.00  0.00    +0.000 C 
ENDBRANCH   9  29
TORSDOF 5
ENDMDL
MODEL 7
REMARK VINA RESULT:      -7.9      1.257      1.792
REMARK  Name = 
REMARK  5 active torsions:
REMARK  status: ('A' for Active; 'I' for Inactive)
REMARK    1  A    between atoms: C_2  and  C_3
REMARK    2  A    between atoms: C_5  and  C_6
REMARK    3  A    between atoms: C_14  and  C_15
REMARK    4  A    between atoms: C_23  and  O_24
REMARK    5  A    between atoms: O_24  and  C_25
REMARK                            x       y       z     vdW  Elec       q    Type
REMARK                         _______ _______ _______ _____ _____    ______ ____
ROOT
ATOM      1  C   UNL     1       1.359   8.404  20.502  0.00  0.00    +0.000 A 
ATOM      2  C   UNL     1       1.506   8.599  21.858  0.00  0.00    +0.000 A 
ATOM      3  C   UNL     1       0.864   9.691  22.367  0.00  0.00    +0.000 A 
ATOM      4  N   UNL     1       0.131  10.520  21.616  0.00  0.00    +0.000 NA
ATOM      5  C   UNL     1       0.002  10.258  20.308  0.00  0.00    +0.000 A 
ATOM      6  N   UNL     1      -0.783  11.048  19.471  0.00  0.00    +0.000 N 
ATOM      7  C   UNL     1      -1.805  11.795  19.930  0.00  0.00    +0.000 A 
ATOM      8  N   UNL     1      -1.930  12.254  21.152  0.00  0.00    +0.000 NA
ATOM      9  C   UNL     1      -3.160  12.819  21.351  0.00  0.00    +0.000 A 
ATOM     10  C   UNL     1      -3.968  12.875  20.240  0.00  0.00    +0.000 A 
ATOM     11  S   UNL     1      -3.137  12.194  18.899  0.00  0.00    +0.000 S 
ATOM     12  N   UNL     1       0.599   9.213  19.725  0.00  0.00    +0.000 NA
ATOM     13  H   UNL     1      -0.828  10.643  18.550  0.00  0.00    +0.000 HD
ENDROOT
BRANCH   1  16
ATOM     14  C   UNL     1       2.740   4.984  19.637  0.00  0.00    +0.000 A 
ATOM     15  C   UNL     1       2.213   6.075  20.351  0.00  0.00    +0.000 A 
ATOM     16  C   UNL     1       2.055   7.339  19.771  0.00  0.00    +0.000 A 
ATOM     17  C   UNL     1       2.493   7.508  18.453  0.00  0.00    +0.000 A 
ATOM     18  C   UNL     1       3.040   6.438  17.739  0.00  0.00    +0.000 A 
ATOM     19  C   UNL     1       3.170   5.163  18.321  0.00  0.00    +0.000 A 
BRANCH  14  21
ATOM     20  N   UNL     1       2.747   2.756  20.960  0.00  0.00    +0.000 NA
ATOM     21  C   UNL     1       2.726   3.744  20.339  0.00  0.00    +0.000 C 
ENDBRANCH  14  21
BRANCH  19  22
ATOM     22  O   UNL     1       3.647   4.238  17.437  0.00  0.00    +0.000 OA
BRANCH  22  23
ATOM     23  C   UNL     1       5.055   4.011  17.284  0.00  0.00    +0.000 C 
ATOM     24  C   UNL     1       5.859   4.771  18.344  0.00  0.00    +0.000 C 
ATOM     25  C   UNL     1       7.316   4.944  17.957  0.00  0.00    +0.000 C 
ATOM     26  O   UNL     1       7.438   5.474  16.641  0.00  0.00    +0.000 OA
ATOM     27  C   UNL     1       6.909   4.586  15.662  0.00  0.00    +0.000 C 
ATOM     28  C   UNL     1       5.413   4.422  15.851  0.00  0.00    +0.000 C 
ENDBRANCH  22  23
ENDBRANCH  19  22
ENDBRANCH   1  16
BRANCH   9  29
ATOM     29  C   UNL     1      -3.558  13.324  22.727  0.00  0.00    +0.000 C 
ATOM     30  C   UNL     1      -4.805  12.733  23.365  0.00  0.00    +0.000 C 
ATOM     31  C   UNL     1      -3.463  12.351  23.886  0.00  0.00    +0.000 C 
ENDBRANCH   9  29
TORSDOF 5
ENDMDL
MODEL 8
REMARK VINA RESULT:      -7.8      2.031      2.549
REMARK  Name = 
REMARK  5 active torsions:
REMARK  status: ('A' for Active; 'I' for Inactive)
REMARK    1  A    between atoms: C_2  and  C_3
REMARK    2  A    between atoms: C_5  and  C_6
REMARK    3  A    between atoms: C_14  and  C_15
REMARK    4  A    between atoms: C_23  and  O_24
REMARK    5  A    between atoms: O_24  and  C_25
REMARK                            x       y       z     vdW  Elec       q    Type
REMARK                         _______ _______ _______ _____ _____    ______ ____
ROOT
ATOM      1  C   UNL     1       1.471   8.280  20.449  0.00  0.00    +0.000 A 
ATOM      2  C   UNL     1       0.946   8.019  21.696  0.00  0.00    +0.000 A 
ATOM      3  C   UNL     1       0.453   9.103  22.364  0.00  0.00    +0.000 A 
ATOM      4  N   UNL     1       0.464  10.339  21.853  0.00  0.00    +0.000 NA
ATOM      5  C   UNL     1       0.960  10.522  20.622  0.00  0.00    +0.000 A 
ATOM      6  N   UNL     1       0.962  11.771  20.005  0.00  0.00    +0.000 N 
ATOM      7  C   UNL     1       0.093  12.744  20.338  0.00  0.00    +0.000 A 
ATOM      8  N   UNL     1      -0.514  12.866  21.493  0.00  0.00    +0.000 NA
ATOM      9  C   UNL     1      -1.467  13.847  21.457  0.00  0.00    +0.000 A 
ATOM     10  C   UNL     1      -1.540  14.552  20.280  0.00  0.00    +0.000 A 
ATOM     11  S   UNL     1      -0.355  13.956  19.187  0.00  0.00    +0.000 S 
ATOM     12  N   UNL     1       1.468   9.518  19.898  0.00  0.00    +0.000 NA
ATOM     13  H   UNL     1       1.291  11.691  19.057  0.00  0.00    +0.000 HD
ENDROOT
BRANCH   1  16
ATOM     14  C   UNL     1       2.677   4.887  19.273  0.00  0.00    +0.000 A 
ATOM     15  C   UNL     1       2.189   5.930  20.081  0.00  0.00    +0.000 A 
ATOM     16  C   UNL     1       2.129   7.254  19.632  0.00  0.00    +0.000 A 
ATOM     17  C   UNL     1       2.627   7.530  18.354  0.00  0.00    +0.000 A 
ATOM     18  C   UNL     1       3.135   6.507  17.549  0.00  0.00    +0.000 A 
ATOM     19  C   UNL     1       3.166   5.173  17.997  0.00  0.00    +0.000 A 
BRANCH  14  21
ATOM     20  N   UNL     1       2.405   2.523  20.297  0.00  0.00    +0.000 NA
ATOM     21  C   UNL     1       2.561   3.584  19.840  0.00  0.00    +0.000 C 
ENDBRANCH  14  21
BRANCH  19  22
ATOM     22  O   UNL     1       3.621   4.315  17.036  0.00  0.00    +0.000 OA
BRANCH  22  23
ATOM     23  C   UNL     1       5.018   4.022  16.901  0.00  0.00    +0.000 C 
ATOM     24  C   UNL     1       5.823   4.597  18.070  0.00  0.00    +0.000 C 
ATOM     25  C   UNL     1       7.301   4.726  17.753  0.00  0.00    +0.000 C 
ATOM     26  O   UNL     1       7.504   5.402  16.516  0.00  0.00    +0.000 OA
ATOM     27  C   UNL     1       6.963   4.673  15.420  0.00  0.00    +0.000 C 
ATOM     28  C   UNL     1       5.454   4.580  15.540  0.00  0.00    +0.000 C 
ENDBRANCH  22  23
ENDBRANCH  19  22
ENDBRANCH   1  16
BRANCH   9  29
ATOM     29  C   UNL     1      -2.364  14.089  22.659  0.00  0.00    +0.000 C 
ATOM     30  C   UNL     1      -3.779  13.538  22.609  0.00  0.00    +0.000 C 
ATOM     31  C   UNL     1      -2.768  12.885  23.487  0.00  0.00    +0.000 C 
ENDBRANCH   9  29
TORSDOF 5
ENDMDL
MODEL 9
REMARK VINA RESULT:      -7.7      4.166     10.534
REMARK  Name = 
REMARK  5 active torsions:
REMARK  status: ('A' for Active; 'I' for Inactive)
REMARK    1  A    between atoms: C_2  and  C_3
REMARK    2  A    between atoms: C_5  and  C_6
REMARK    3  A    between atoms: C_14  and  C_15
REMARK    4  A    between atoms: C_23  and  O_24
REMARK    5  A    between atoms: O_24  and  C_25
REMARK                            x       y       z     vdW  Elec       q    Type
REMARK                         _______ _______ _______ _____ _____    ______ ____
ROOT
ATOM      1  C   UNL     1       0.817   9.619  19.037  0.00  0.00    +0.000 A 
ATOM      2  C   UNL     1       1.597   9.717  17.906  0.00  0.00    +0.000 A 
ATOM      3  C   UNL     1       2.555   8.754  17.768  0.00  0.00    +0.000 A 
ATOM      4  N   UNL     1       2.731   7.770  18.657  0.00  0.00    +0.000 NA
ATOM      5  C   UNL     1       1.919   7.713  19.721  0.00  0.00    +0.000 A 
ATOM      6  N   UNL     1       2.011   6.692  20.665  0.00  0.00    +0.000 N 
ATOM      7  C   UNL     1       2.538   5.486  20.378  0.00  0.00    +0.000 A 
ATOM      8  N   UNL     1       3.406   5.237  19.428  0.00  0.00    +0.000 NA
ATOM      9  C   UNL     1       3.607   3.892  19.274  0.00  0.00    +0.000 A 
ATOM     10  C   UNL     1       2.947   3.093  20.177  0.00  0.00    +0.000 A 
ATOM     11  S   UNL     1       2.049   4.080  21.259  0.00  0.00    +0.000 S 
ATOM     12  N   UNL     1       0.957   8.617  19.938  0.00  0.00    +0.000 NA
ATOM     13  H   UNL     1       1.264   6.770  21.336  0.00  0.00    +0.000 HD
ENDROOT
BRANCH   1  16
ATOM     14  C   UNL     1      -2.395  11.626  18.976  0.00  0.00    +0.000 A 
ATOM     15  C   UNL     1      -1.331  10.788  18.597  0.00  0.00    +0.000 A 
ATOM     16  C   UNL     1      -0.194  10.620  19.396  0.00  0.00    +0.000 A 
ATOM     17  C   UNL     1      -0.117  11.362  20.579  0.00  0.00    +0.000 A 
ATOM     18  C   UNL     1      -1.156  12.216  20.956  0.00  0.00    +0.000 A 
ATOM     19  C   UNL     1      -2.309  12.359  20.161  0.00  0.00    +0.000 A 
BRANCH  14  21
ATOM     20  N   UNL     1      -4.411  11.597  17.348  0.00  0.00    +0.000 NA
ATOM     21  C   UNL     1      -3.524  11.595  18.105  0.00  0.00    +0.000 C 
ENDBRANCH  14  21
BRANCH  19  22
ATOM     22  O   UNL     1      -3.240  13.172  20.741  0.00  0.00    +0.000 OA
BRANCH  22  23
ATOM     23  C   UNL     1      -4.232  12.649  21.634  0.00  0.00    +0.000 C 
ATOM     24  C   UNL     1      -5.632  12.726  21.019  0.00  0.00    +0.000 C 
ATOM     25  C   UNL     1      -6.733  12.631  22.060  0.00  0.00    +0.000 C 
ATOM     26  O   UNL     1      -6.512  13.549  23.125  0.00  0.00    +0.000 OA
ATOM     27  C   UNL     1      -5.316  13.254  23.839  0.00  0.00    +0.000 C 
ATOM     28  C   UNL     1      -4.107  13.440  22.942  0.00  0.00    +0.000 C 
ENDBRANCH  22  23
ENDBRANCH  19  22
ENDBRANCH   1  16
BRANCH   9  29
ATOM     29  C   UNL     1       4.498   3.373  18.159  0.00  0.00    +0.000 C 
ATOM     30  C   UNL     1       4.072   3.649  16.726  0.00  0.00    +0.000 C 
ATOM     31  C   UNL     1       5.223   4.396  17.306  0.00  0.00    +0.000 C 
ENDBRANCH   9  29
TORSDOF 5
ENDMDL
