MODEL 1
REMARK VINA RESULT:      -8.0      0.000      0.000
REMARK  Name = 
REMARK  7 active torsions:
REMARK  status: ('A' for Active; 'I' for Inactive)
REMARK    1  A    between atoms: C_1  and  C_2
REMARK    2  A    between atoms: C_6  and  C_7
REMARK    3  A    between atoms: C_7  and  N_8
REMARK    4  A    between atoms: C_10  and  C_11
REMARK    5  A    between atoms: C_22  and  C_23
REMARK    6  A    between atoms: C_25  and  C_26
REMARK    7  A    between atoms: C_26  and  O_27
REMARK                            x       y       z     vdW  Elec       q    Type
REMARK                         _______ _______ _______ _____ _____    ______ ____
ROOT
ATOM      1  C   UNL     1      -0.100  11.684  21.793  0.00  0.00    +0.000 C 
ATOM      2  C   UNL     1       0.456  10.450  21.161  0.00  0.00    +0.000 A 
ATOM      3  S   UNL     1       0.775   9.049  22.150  0.00  0.00    +0.000 S 
ATOM      4  C   UNL     1       1.430   8.200  20.775  0.00  0.00    +0.000 A 
ATOM      5  N   UNL     1       1.893   7.000  20.857  0.00  0.00    +0.000 NA
ATOM      6  C   UNL     1       2.347   6.449  19.685  0.00  0.00    +0.000 A 
ATOM      7  C   UNL     1       2.411   7.136  18.534  0.00  0.00    +0.000 A 
ATOM      8  C   UNL     1       1.946   8.542  18.486  0.00  0.00    +0.000 A 
ATOM      9  O   UNL     1       2.121   9.178  17.450  0.00  0.00    +0.000 OA
ATOM     10  N   UNL     1       1.380   9.001  19.654  0.00  0.00    +0.000 N 
ATOM     11  C   UNL     1       0.820  10.267  19.870  0.00  0.00    +0.000 A 
ENDROOT
BRANCH  11  12
ATOM     12  C   UNL     1       0.751  11.288  18.805  0.00  0.00    +0.000 C 
ATOM     13  C   UNL     1       1.967  12.160  18.576  0.00  0.00    +0.000 C 
ATOM     14  C   UNL     1       0.692  12.780  19.063  0.00  0.00    +0.000 C 
BRANCH  14  15
ATOM     15  C   UNL     1      -0.058  13.694  18.145  0.00  0.00    +0.000 C 
BRANCH  15  16
ATOM     16  O   UNL     1      -1.159  14.267  18.845  0.00  0.00    +0.000 OA
ATOM     17  H   UNL     1      -1.207  13.822  19.712  0.00  0.00    +0.000 HD
ENDBRANCH  15  16
ENDBRANCH  14  15
ENDBRANCH  11  12
BRANCH   6  18
ATOM     18  C   UNL     1       2.780   5.000  19.756  0.00  0.00    +0.000 C 
BRANCH  18  19
ATOM     19  N   UNL     1       3.935   4.761  18.901  0.00  0.00    +0.000 N 
ATOM     20  N   UNL     1       5.146   5.227  19.307  0.00  0.00    +0.000 NA
ATOM     21  C   UNL     1       5.982   4.934  18.287  0.00  0.00    +0.000 A 
ATOM     22  C   UNL     1       5.295   4.237  17.252  0.00  0.00    +0.000 A 
ATOM     23  C   UNL     1       4.002   4.148  17.688  0.00  0.00    +0.000 A 
ATOM     24 CL   UNL     1       2.638   3.463  16.942  0.00  0.00    +0.000 Cl
BRANCH  21  25
ATOM     25  C   UNL     1       7.437   5.319  18.275  0.00  0.00    +0.000 C 
ATOM     26  F   UNL     1       7.951   5.545  19.512  0.00  0.00    +0.000 F 
ATOM     27  F   UNL     1       8.206   4.353  17.702  0.00  0.00    +0.000 F 
ATOM     28  F   UNL     1       7.644   6.452  17.552  0.00  0.00    +0.000 F 
ENDBRANCH  21  25
ENDBRANCH  18  19
ENDBRANCH   6  18
TORSDOF 6
ENDMDL
MODEL 2
REMARK VINA RESULT:      -7.8      5.161      8.451
REMARK  Name = 
REMARK  7 active torsions:
REMARK  status: ('A' for Active; 'I' for Inactive)
REMARK    1  A    between atoms: C_1  and  C_2
REMARK    2  A    between atoms: C_6  and  C_7
REMARK    3  A    between atoms: C_7  and  N_8
REMARK    4  A    between atoms: C_10  and  C_11
REMARK    5  A    between atoms: C_22  and  C_23
REMARK    6  A    between atoms: C_25  and  C_26
REMARK    7  A    between atoms: C_26  and  O_27
REMARK                            x       y       z     vdW  Elec       q    Type
REMARK                         _______ _______ _______ _____ _____    ______ ____
ROOT
ATOM      1  C   UNL     1       5.591   3.785  16.313  0.00  0.00    +0.000 C 
ATOM      2  C   UNL     1       4.743   4.903  16.825  0.00  0.00    +0.000 A 
ATOM      3  S   UNL     1       4.945   6.505  16.166  0.00  0.00    +0.000 S 
ATOM      4  C   UNL     1       3.763   7.136  17.281  0.00  0.00    +0.000 A 
ATOM      5  N   UNL     1       3.434   8.383  17.311  0.00  0.00    +0.000 NA
ATOM      6  C   UNL     1       2.466   8.727  18.222  0.00  0.00    +0.000 A 
ATOM      7  C   UNL     1       1.955   7.857  19.106  0.00  0.00    +0.000 A 
ATOM      8  C   UNL     1       2.409   6.447  19.102  0.00  0.00    +0.000 A 
ATOM      9  O   UNL     1       2.009   5.703  19.994  0.00  0.00    +0.000 OA
ATOM     10  N   UNL     1       3.281   6.126  18.086  0.00  0.00    +0.000 N 
ATOM     11  C   UNL     1       3.827   4.863  17.821  0.00  0.00    +0.000 A 
ENDROOT
BRANCH  11  12
ATOM     12  C   UNL     1       3.489   3.675  18.631  0.00  0.00    +0.000 C 
ATOM     13  C   UNL     1       3.459   2.328  17.940  0.00  0.00    +0.000 C 
ATOM     14  C   UNL     1       2.192   2.901  18.501  0.00  0.00    +0.000 C 
BRANCH  14  15
ATOM     15  C   UNL     1       1.566   2.236  19.687  0.00  0.00    +0.000 C 
BRANCH  15  16
ATOM     16  O   UNL     1       0.495   3.041  20.170  0.00  0.00    +0.000 OA
ATOM     17  H   UNL     1       0.888   3.876  20.488  0.00  0.00    +0.000 HD
ENDBRANCH  15  16
ENDBRANCH  14  15
ENDBRANCH  11  12
BRANCH   6  18
ATOM     18  C   UNL     1       1.995  10.165  18.177  0.00  0.00    +0.000 C 
BRANCH  18  19
ATOM     19  N   UNL     1       0.572  10.255  18.479  0.00  0.00    +0.000 N 
ATOM     20  N   UNL     1      -0.317   9.874  17.523  0.00  0.00    +0.000 NA
ATOM     21  C   UNL     1      -1.527  10.148  18.057  0.00  0.00    +0.000 A 
ATOM     22  C   UNL     1      -1.395  10.665  19.377  0.00  0.00    +0.000 A 
ATOM     23  C   UNL     1      -0.047  10.711  19.602  0.00  0.00    +0.000 A 
ATOM     24 CL   UNL     1       0.821  11.245  20.962  0.00  0.00    +0.000 Cl
BRANCH  21  25
ATOM     25  C   UNL     1      -2.822   9.935  17.319  0.00  0.00    +0.000 C 
ATOM     26  F   UNL     1      -3.668   9.073  17.940  0.00  0.00    +0.000 F 
ATOM     27  F   UNL     1      -3.502  11.102  17.156  0.00  0.00    +0.000 F 
ATOM     28  F   UNL     1      -2.605   9.440  16.071  0.00  0.00    +0.000 F 
ENDBRANCH  21  25
ENDBRANCH  18  19
ENDBRANCH   6  18
TORSDOF 6
ENDMDL
MODEL 3
REMARK VINA RESULT:      -7.5      3.134      3.631
REMARK  Name = 
REMARK  7 active torsions:
REMARK  status: ('A' for Active; 'I' for Inactive)
REMARK    1  A    between atoms: C_1  and  C_2
REMARK    2  A    between atoms: C_6  and  C_7
REMARK    3  A    between atoms: C_7  and  N_8
REMARK    4  A    between atoms: C_10  and  C_11
REMARK    5  A    between atoms: C_22  and  C_23
REMARK    6  A    between atoms: C_25  and  C_26
REMARK    7  A    between atoms: C_26  and  O_27
REMARK                            x       y       z     vdW  Elec       q    Type
REMARK                         _______ _______ _______ _____ _____    ______ ____
ROOT
ATOM      1  C   UNL     1      -0.473   9.923  22.643  0.00  0.00    +0.000 C 
ATOM      2  C   UNL     1       0.289   9.369  21.483  0.00  0.00    +0.000 A 
ATOM      3  S   UNL     1       1.145   7.860  21.660  0.00  0.00    +0.000 S 
ATOM      4  C   UNL     1       1.769   7.998  20.038  0.00  0.00    +0.000 A 
ATOM      5  N   UNL     1       2.554   7.116  19.519  0.00  0.00    +0.000 NA
ATOM      6  C   UNL     1       2.939   7.343  18.221  0.00  0.00    +0.000 A 
ATOM      7  C   UNL     1       2.617   8.460  17.551  0.00  0.00    +0.000 A 
ATOM      8  C   UNL     1       1.779   9.495  18.199  0.00  0.00    +0.000 A 
ATOM      9  O   UNL     1       1.595  10.553  17.603  0.00  0.00    +0.000 OA
ATOM     10  N   UNL     1       1.312   9.158  19.450  0.00  0.00    +0.000 N 
ATOM     11  C   UNL     1       0.468   9.927  20.262  0.00  0.00    +0.000 A 
ENDROOT
BRANCH  11  12
ATOM     12  C   UNL     1      -0.058  11.237  19.831  0.00  0.00    +0.000 C 
ATOM     13  C   UNL     1      -1.357  11.719  20.441  0.00  0.00    +0.000 C 
ATOM     14  C   UNL     1      -1.296  11.414  18.975  0.00  0.00    +0.000 C 
BRANCH  14  15
ATOM     15  C   UNL     1      -1.408  12.546  18.001  0.00  0.00    +0.000 C 
BRANCH  15  16
ATOM     16  O   UNL     1      -1.736  12.032  16.714  0.00  0.00    +0.000 OA
ATOM     17  H   UNL     1      -1.107  12.428  16.081  0.00  0.00    +0.000 HD
ENDBRANCH  15  16
ENDBRANCH  14  15
ENDBRANCH  11  12
BRANCH   6  18
ATOM     18  C   UNL     1       3.762   6.251  17.572  0.00  0.00    +0.000 C 
BRANCH  18  19
ATOM     19  N   UNL     1       3.598   4.988  18.279  0.00  0.00    +0.000 N 
ATOM     20  N   UNL     1       2.369   4.407  18.288  0.00  0.00    +0.000 NA
ATOM     21  C   UNL     1       2.512   3.321  19.078  0.00  0.00    +0.000 A 
ATOM     22  C   UNL     1       3.856   3.197  19.532  0.00  0.00    +0.000 A 
ATOM     23  C   UNL     1       4.507   4.274  18.998  0.00  0.00    +0.000 A 
ATOM     24 CL   UNL     1       6.127   4.763  19.151  0.00  0.00    +0.000 Cl
BRANCH  21  25
ATOM     25  C   UNL     1       1.377   2.394  19.421  0.00  0.00    +0.000 C 
ATOM     26  F   UNL     1       0.775   2.682  20.604  0.00  0.00    +0.000 F 
ATOM     27  F   UNL     1       0.404   2.421  18.469  0.00  0.00    +0.000 F 
ATOM     28  F   UNL     1       1.798   1.102  19.501  0.00  0.00    +0.000 F 
ENDBRANCH  21  25
ENDBRANCH  18  19
ENDBRANCH   6  18
TORSDOF 6
ENDMDL
MODEL 4
REMARK VINA RESULT:      -7.4      4.796      8.117
REMARK  Name = 
REMARK  7 active torsions:
REMARK  status: ('A' for Active; 'I' for Inactive)
REMARK    1  A    between atoms: C_1  and  C_2
REMARK    2  A    between atoms: C_6  and  C_7
REMARK    3  A    between atoms: C_7  and  N_8
REMARK    4  A    between atoms: C_10  and  C_11
REMARK    5  A    between atoms: C_22  and  C_23
REMARK    6  A    between atoms: C_25  and  C_26
REMARK    7  A    between atoms: C_26  and  O_27
REMARK                            x       y       z     vdW  Elec       q    Type
REMARK                         _______ _______ _______ _____ _____    ______ ____
ROOT
ATOM      1  C   UNL     1       3.230   2.469  19.229  0.00  0.00    +0.000 C 
ATOM      2  C   UNL     1       2.908   3.919  19.391  0.00  0.00    +0.000 A 
ATOM      3  S   UNL     1       1.969   4.442  20.763  0.00  0.00    +0.000 S 
ATOM      4  C   UNL     1       1.978   6.082  20.173  0.00  0.00    +0.000 A 
ATOM      5  N   UNL     1       1.387   7.046  20.794  0.00  0.00    +0.000 NA
ATOM      6  C   UNL     1       1.506   8.290  20.225  0.00  0.00    +0.000 A 
ATOM      7  C   UNL     1       2.106   8.496  19.043  0.00  0.00    +0.000 A 
ATOM      8  C   UNL     1       2.707   7.356  18.312  0.00  0.00    +0.000 A 
ATOM      9  O   UNL     1       3.149   7.556  17.183  0.00  0.00    +0.000 OA
ATOM     10  N   UNL     1       2.675   6.157  18.987  0.00  0.00    +0.000 N 
ATOM     11  C   UNL     1       3.210   4.937  18.551  0.00  0.00    +0.000 A 
ENDROOT
BRANCH  11  12
ATOM     12  C   UNL     1       3.924   4.808  17.264  0.00  0.00    +0.000 C 
ATOM     13  C   UNL     1       4.936   3.691  17.122  0.00  0.00    +0.000 C 
ATOM     14  C   UNL     1       5.395   5.117  17.076  0.00  0.00    +0.000 C 
BRANCH  14  15
ATOM     15  C   UNL     1       5.911   5.664  15.781  0.00  0.00    +0.000 C 
BRANCH  15  16
ATOM     16  O   UNL     1       7.322   5.836  15.869  0.00  0.00    +0.000 OA
ATOM     17  H   UNL     1       7.531   5.999  16.808  0.00  0.00    +0.000 HD
ENDBRANCH  15  16
ENDBRANCH  14  15
ENDBRANCH  11  12
BRANCH   6  18
ATOM     18  C   UNL     1       0.916   9.439  21.014  0.00  0.00    +0.000 C 
BRANCH  18  19
ATOM     19  N   UNL     1       0.157  10.329  20.145  0.00  0.00    +0.000 N 
ATOM     20  N   UNL     1      -0.886   9.810  19.442  0.00  0.00    +0.000 NA
ATOM     21  C   UNL     1      -1.325  10.836  18.681  0.00  0.00    +0.000 A 
ATOM     22  C   UNL     1      -0.578  12.020  18.943  0.00  0.00    +0.000 A 
ATOM     23  C   UNL     1       0.347  11.650  19.880  0.00  0.00    +0.000 A 
ATOM     24 CL   UNL     1       1.576  12.556  20.625  0.00  0.00    +0.000 Cl
BRANCH  21  25
ATOM     25  C   UNL     1      -2.449  10.705  17.689  0.00  0.00    +0.000 C 
ATOM     26  F   UNL     1      -3.326   9.711  17.986  0.00  0.00    +0.000 F 
ATOM     27  F   UNL     1      -3.175  11.854  17.600  0.00  0.00    +0.000 F 
ATOM     28  F   UNL     1      -1.980  10.451  16.438  0.00  0.00    +0.000 F 
ENDBRANCH  21  25
ENDBRANCH  18  19
ENDBRANCH   6  18
TORSDOF 6
ENDMDL
MODEL 5
REMARK VINA RESULT:      -7.4      4.971      8.237
REMARK  Name = 
REMARK  7 active torsions:
REMARK  status: ('A' for Active; 'I' for Inactive)
REMARK    1  A    between atoms: C_1  and  C_2
REMARK    2  A    between atoms: C_6  and  C_7
REMARK    3  A    between atoms: C_7  and  N_8
REMARK    4  A    between atoms: C_10  and  C_11
REMARK    5  A    between atoms: C_22  and  C_23
REMARK    6  A    between atoms: C_25  and  C_26
REMARK    7  A    between atoms: C_26  and  O_27
REMARK                            x       y       z     vdW  Elec       q    Type
REMARK                         _______ _______ _______ _____ _____    ______ ____
ROOT
ATOM      1  C   UNL     1       3.312   3.357  19.725  0.00  0.00    +0.000 C 
ATOM      2  C   UNL     1       2.950   4.801  19.595  0.00  0.00    +0.000 A 
ATOM      3  S   UNL     1       1.949   5.547  20.812  0.00  0.00    +0.000 S 
ATOM      4  C   UNL     1       1.940   7.044  19.919  0.00  0.00    +0.000 A 
ATOM      5  N   UNL     1       1.305   8.090  20.325  0.00  0.00    +0.000 NA
ATOM      6  C   UNL     1       1.415   9.205  19.532  0.00  0.00    +0.000 A 
ATOM      7  C   UNL     1       2.052   9.200  18.351  0.00  0.00    +0.000 A 
ATOM      8  C   UNL     1       2.706   7.960  17.871  0.00  0.00    +0.000 A 
ATOM      9  O   UNL     1       3.183   7.954  16.739  0.00  0.00    +0.000 OA
ATOM     10  N   UNL     1       2.678   6.911  18.762  0.00  0.00    +0.000 N 
ATOM     11  C   UNL     1       3.257   5.648  18.585  0.00  0.00    +0.000 A 
ENDROOT
BRANCH  11  12
ATOM     12  C   UNL     1       4.021   5.297  17.371  0.00  0.00    +0.000 C 
ATOM     13  C   UNL     1       4.985   4.133  17.448  0.00  0.00    +0.000 C 
ATOM     14  C   UNL     1       5.511   5.516  17.212  0.00  0.00    +0.000 C 
BRANCH  14  15
ATOM     15  C   UNL     1       6.108   5.840  15.878  0.00  0.00    +0.000 C 
BRANCH  15  16
ATOM     16  O   UNL     1       7.367   5.186  15.752  0.00  0.00    +0.000 OA
ATOM     17  H   UNL     1       8.016   5.722  16.246  0.00  0.00    +0.000 HD
ENDBRANCH  15  16
ENDBRANCH  14  15
ENDBRANCH  11  12
BRANCH   6  18
ATOM     18  C   UNL     1       0.769  10.466  20.066  0.00  0.00    +0.000 C 
BRANCH  18  19
ATOM     19  N   UNL     1      -0.315  10.903  19.196  0.00  0.00    +0.000 N 
ATOM     20  N   UNL     1      -1.249   9.989  18.819  0.00  0.00    +0.000 NA
ATOM     21  C   UNL     1      -2.054  10.659  17.965  0.00  0.00    +0.000 A 
ATOM     22  C   UNL     1      -1.644  12.017  17.842  0.00  0.00    +0.000 A 
ATOM     23  C   UNL     1      -0.541  12.125  18.642  0.00  0.00    +0.000 A 
ATOM     24 CL   UNL     1       0.465  13.459  18.948  0.00  0.00    +0.000 Cl
BRANCH  21  25
ATOM     25  C   UNL     1      -3.212  10.019  17.249  0.00  0.00    +0.000 C 
ATOM     26  F   UNL     1      -4.242  10.871  17.005  0.00  0.00    +0.000 F 
ATOM     27  F   UNL     1      -2.835   9.506  16.046  0.00  0.00    +0.000 F 
ATOM     28  F   UNL     1      -3.725   8.980  17.963  0.00  0.00    +0.000 F 
ENDBRANCH  21  25
ENDBRANCH  18  19
ENDBRANCH   6  18
TORSDOF 6
ENDMDL
MODEL 6
REMARK VINA RESULT:      -7.4      4.933      8.063
REMARK  Name = 
REMARK  7 active torsions:
REMARK  status: ('A' for Active; 'I' for Inactive)
REMARK    1  A    between atoms: C_1  and  C_2
REMARK    2  A    between atoms: C_6  and  C_7
REMARK    3  A    between atoms: C_7  and  N_8
REMARK    4  A    between atoms: C_10  and  C_11
REMARK    5  A    between atoms: C_22  and  C_23
REMARK    6  A    between atoms: C_25  and  C_26
REMARK    7  A    between atoms: C_26  and  O_27
REMARK                            x       y       z     vdW  Elec       q    Type
REMARK                         _______ _______ _______ _____ _____    ______ ____
ROOT
ATOM      1  C   UNL     1       3.228   2.891  19.488  0.00  0.00    +0.000 C 
ATOM      2  C   UNL     1       2.888   4.345  19.521  0.00  0.00    +0.000 A 
ATOM      3  S   UNL     1       2.016   4.992  20.885  0.00  0.00    +0.000 S 
ATOM      4  C   UNL     1       1.961   6.564  20.133  0.00  0.00    +0.000 A 
ATOM      5  N   UNL     1       1.388   7.578  20.686  0.00  0.00    +0.000 NA
ATOM      6  C   UNL     1       1.452   8.759  19.989  0.00  0.00    +0.000 A 
ATOM      7  C   UNL     1       1.982   8.852  18.760  0.00  0.00    +0.000 A 
ATOM      8  C   UNL     1       2.563   7.652  18.114  0.00  0.00    +0.000 A 
ATOM      9  O   UNL     1       2.938   7.742  16.948  0.00  0.00    +0.000 OA
ATOM     10  N   UNL     1       2.591   6.527  18.907  0.00  0.00    +0.000 N 
ATOM     11  C   UNL     1       3.124   5.277  18.567  0.00  0.00    +0.000 A 
ENDROOT
BRANCH  11  12
ATOM     12  C   UNL     1       3.768   5.026  17.262  0.00  0.00    +0.000 C 
ATOM     13  C   UNL     1       4.727   3.860  17.154  0.00  0.00    +0.000 C 
ATOM     14  C   UNL     1       5.240   5.259  16.984  0.00  0.00    +0.000 C 
BRANCH  14  15
ATOM     15  C   UNL     1       5.712   5.691  15.630  0.00  0.00    +0.000 C 
BRANCH  15  16
ATOM     16  O   UNL     1       5.161   6.968  15.323  0.00  0.00    +0.000 OA
ATOM     17  H   UNL     1       4.740   6.892  14.445  0.00  0.00    +0.000 HD
ENDBRANCH  15  16
ENDBRANCH  14  15
ENDBRANCH  11  12
BRANCH   6  18
ATOM     18  C   UNL     1       0.885   9.975  20.690  0.00  0.00    +0.000 C 
BRANCH  18  19
ATOM     19  N   UNL     1       0.074  10.769  19.776  0.00  0.00    +0.000 N 
ATOM     20  N   UNL     1      -1.004  10.183  19.192  0.00  0.00    +0.000 NA
ATOM     21  C   UNL     1      -1.489  11.124  18.353  0.00  0.00    +0.000 A 
ATOM     22  C   UNL     1      -0.732  12.326  18.446  0.00  0.00    +0.000 A 
ATOM     23  C   UNL     1       0.245  12.055  19.363  0.00  0.00    +0.000 A 
ATOM     24 CL   UNL     1       1.510  13.032  19.937  0.00  0.00    +0.000 Cl
BRANCH  21  25
ATOM     25  C   UNL     1      -2.667  10.891  17.445  0.00  0.00    +0.000 C 
ATOM     26  F   UNL     1      -2.360  10.960  16.124  0.00  0.00    +0.000 F 
ATOM     27  F   UNL     1      -3.227   9.668  17.654  0.00  0.00    +0.000 F 
ATOM     28  F   UNL     1      -3.651  11.805  17.666  0.00  0.00    +0.000 F 
ENDBRANCH  21  25
ENDBRANCH  18  19
ENDBRANCH   6  18
TORSDOF 6
ENDMDL
MODEL 7
REMARK VINA RESULT:      -7.3      1.423      1.944
REMARK  Name = 
REMARK  7 active torsions:
REMARK  status: ('A' for Active; 'I' for Inactive)
REMARK    1  A    between atoms: C_1  and  C_2
REMARK    2  A    between atoms: C_6  and  C_7
REMARK    3  A    between atoms: C_7  and  N_8
REMARK    4  A    between atoms: C_10  and  C_11
REMARK    5  A    between atoms: C_22  and  C_23
REMARK    6  A    between atoms: C_25  and  C_26
REMARK    7  A    between atoms: C_26  and  O_27
REMARK                            x       y       z     vdW  Elec       q    Type
REMARK                         _______ _______ _______ _____ _____    ______ ____
ROOT
ATOM      1  C   UNL     1      -0.396   9.697  23.103  0.00  0.00    +0.000 C 
ATOM      2  C   UNL     1       0.266   9.321  21.818  0.00  0.00    +0.000 A 
ATOM      3  S   UNL     1       0.990   7.743  21.656  0.00  0.00    +0.000 S 
ATOM      4  C   UNL     1       1.558   8.143  20.057  0.00  0.00    +0.000 A 
ATOM      5  N   UNL     1       2.239   7.318  19.337  0.00  0.00    +0.000 NA
ATOM      6  C   UNL     1       2.591   7.762  18.086  0.00  0.00    +0.000 A 
ATOM      7  C   UNL     1       2.344   9.010  17.659  0.00  0.00    +0.000 A 
ATOM      8  C   UNL     1       1.629   9.963  18.540  0.00  0.00    +0.000 A 
ATOM      9  O   UNL     1       1.516  11.128  18.167  0.00  0.00    +0.000 OA
ATOM     10  N   UNL     1       1.184   9.428  19.728  0.00  0.00    +0.000 N 
ATOM     11  C   UNL     1       0.445  10.089  20.718  0.00  0.00    +0.000 A 
ENDROOT
BRANCH  11  12
ATOM     12  C   UNL     1       0.021  11.496  20.574  0.00  0.00    +0.000 C 
ATOM     13  C   UNL     1      -1.305  11.905  21.178  0.00  0.00    +0.000 C 
ATOM     14  C   UNL     1      -1.123  11.952  19.691  0.00  0.00    +0.000 C 
BRANCH  14  15
ATOM     15  C   UNL     1      -1.092  13.286  19.012  0.00  0.00    +0.000 C 
BRANCH  15  16
ATOM     16  O   UNL     1      -0.905  13.101  17.612  0.00  0.00    +0.000 OA
ATOM     17  H   UNL     1      -1.775  13.230  17.190  0.00  0.00    +0.000 HD
ENDBRANCH  15  16
ENDBRANCH  14  15
ENDBRANCH  11  12
BRANCH   6  18
ATOM     18  C   UNL     1       3.287   6.755  17.195  0.00  0.00    +0.000 C 
BRANCH  18  19
ATOM     19  N   UNL     1       4.267   5.985  17.949  0.00  0.00    +0.000 N 
ATOM     20  N   UNL     1       5.534   6.470  18.045  0.00  0.00    +0.000 NA
ATOM     21  C   UNL     1       6.213   5.513  18.714  0.00  0.00    +0.000 A 
ATOM     22  C   UNL     1       5.352   4.439  19.078  0.00  0.00    +0.000 A 
ATOM     23  C   UNL     1       4.129   4.784  18.575  0.00  0.00    +0.000 A 
ATOM     24 CL   UNL     1       2.649   3.951  18.621  0.00  0.00    +0.000 Cl
BRANCH  21  25
ATOM     25  C   UNL     1       7.687   5.599  19.007  0.00  0.00    +0.000 C 
ATOM     26  F   UNL     1       8.421   4.627  18.405  0.00  0.00    +0.000 F 
ATOM     27  F   UNL     1       8.209   6.790  18.604  0.00  0.00    +0.000 F 
ATOM     28  F   UNL     1       7.934   5.505  20.342  0.00  0.00    +0.000 F 
ENDBRANCH  21  25
ENDBRANCH  18  19
ENDBRANCH   6  18
TORSDOF 6
ENDMDL
MODEL 8
REMARK VINA RESULT:      -7.3      1.300      1.619
REMARK  Name = 
REMARK  7 active torsions:
REMARK  status: ('A' for Active; 'I' for Inactive)
REMARK    1  A    between atoms: C_1  and  C_2
REMARK    2  A    between atoms: C_6  and  C_7
REMARK    3  A    between atoms: C_7  and  N_8
REMARK    4  A    between atoms: C_10  and  C_11
REMARK    5  A    between atoms: C_22  and  C_23
REMARK    6  A    between atoms: C_25  and  C_26
REMARK    7  A    between atoms: C_26  and  O_27
REMARK                            x       y       z     vdW  Elec       q    Type
REMARK                         _______ _______ _______ _____ _____    ______ ____
ROOT
ATOM      1  C   UNL     1      -0.192  10.529  22.687  0.00  0.00    +0.000 C 
ATOM      2  C   UNL     1       0.387   9.757  21.546  0.00  0.00    +0.000 A 
ATOM      3  S   UNL     1       0.769   8.069  21.758  0.00  0.00    +0.000 S 
ATOM      4  C   UNL     1       1.418   7.990  20.143  0.00  0.00    +0.000 A 
ATOM      5  N   UNL     1       1.918   6.909  19.649  0.00  0.00    +0.000 NA
ATOM      6  C   UNL     1       2.363   6.990  18.352  0.00  0.00    +0.000 A 
ATOM      7  C   UNL     1       2.382   8.139  17.659  0.00  0.00    +0.000 A 
ATOM      8  C   UNL     1       1.875   9.384  18.280  0.00  0.00    +0.000 A 
ATOM      9  O   UNL     1       2.008  10.439  17.665  0.00  0.00    +0.000 OA
ATOM     10  N   UNL     1       1.321   9.221  19.530  0.00  0.00    +0.000 N 
ATOM     11  C   UNL     1       0.728  10.216  20.319  0.00  0.00    +0.000 A 
ENDROOT
BRANCH  11  12
ATOM     12  C   UNL     1       0.606  11.614  19.859  0.00  0.00    +0.000 C 
ATOM     13  C   UNL     1      -0.248  12.560  20.676  0.00  0.00    +0.000 C 
ATOM     14  C   UNL     1      -0.661  12.208  19.278  0.00  0.00    +0.000 C 
BRANCH  14  15
ATOM     15  C   UNL     1      -0.604  13.270  18.224  0.00  0.00    +0.000 C 
BRANCH  15  16
ATOM     16  O   UNL     1      -1.175  12.772  17.019  0.00  0.00    +0.000 OA
ATOM     17  H   UNL     1      -0.706  13.206  16.281  0.00  0.00    +0.000 HD
ENDBRANCH  15  16
ENDBRANCH  14  15
ENDBRANCH  11  12
BRANCH   6  18
ATOM     18  C   UNL     1       2.840   5.694  17.732  0.00  0.00    +0.000 C 
BRANCH  18  19
ATOM     19  N   UNL     1       4.083   5.250  18.349  0.00  0.00    +0.000 N 
ATOM     20  N   UNL     1       5.251   5.793  17.914  0.00  0.00    +0.000 NA
ATOM     21  C   UNL     1       6.209   5.132  18.600  0.00  0.00    +0.000 A 
ATOM     22  C   UNL     1       5.632   4.195  19.504  0.00  0.00    +0.000 A 
ATOM     23  C   UNL     1       4.283   4.309  19.312  0.00  0.00    +0.000 A 
ATOM     24 CL   UNL     1       2.997   3.472  20.042  0.00  0.00    +0.000 Cl
BRANCH  21  25
ATOM     25  C   UNL     1       7.681   5.370  18.398  0.00  0.00    +0.000 C 
ATOM     26  F   UNL     1       7.960   6.484  17.673  0.00  0.00    +0.000 F 
ATOM     27  F   UNL     1       8.334   5.503  19.585  0.00  0.00    +0.000 F 
ATOM     28  F   UNL     1       8.269   4.327  17.753  0.00  0.00    +0.000 F 
ENDBRANCH  21  25
ENDBRANCH  18  19
ENDBRANCH   6  18
TORSDOF 6
ENDMDL
MODEL 9
REMARK VINA RESULT:      -7.3      3.228      4.396
REMARK  Name = 
REMARK  7 active torsions:
REMARK  status: ('A' for Active; 'I' for Inactive)
REMARK    1  A    between atoms: C_1  and  C_2
REMARK    2  A    between atoms: C_6  and  C_7
REMARK    3  A    between atoms: C_7  and  N_8
REMARK    4  A    between atoms: C_10  and  C_11
REMARK    5  A    between atoms: C_22  and  C_23
REMARK    6  A    between atoms: C_25  and  C_26
REMARK    7  A    between atoms: C_26  and  O_27
REMARK                            x       y       z     vdW  Elec       q    Type
REMARK                         _______ _______ _______ _____ _____    ______ ____
ROOT
ATOM      1  C   UNL     1       1.257  10.019  18.949  0.00  0.00    +0.000 C 
ATOM      2  C   UNL     1       1.874   8.659  18.978  0.00  0.00    +0.000 A 
ATOM      3  S   UNL     1       2.726   8.073  17.573  0.00  0.00    +0.000 S 
ATOM      4  C   UNL     1       3.003   6.539  18.353  0.00  0.00    +0.000 A 
ATOM      5  N   UNL     1       3.633   5.572  17.778  0.00  0.00    +0.000 NA
ATOM      6  C   UNL     1       3.802   4.435  18.528  0.00  0.00    +0.000 A 
ATOM      7  C   UNL     1       3.262   4.278  19.746  0.00  0.00    +0.000 A 
ATOM      8  C   UNL     1       2.473   5.377  20.351  0.00  0.00    +0.000 A 
ATOM      9  O   UNL     1       1.899   5.164  21.415  0.00  0.00    +0.000 OA
ATOM     10  N   UNL     1       2.446   6.540  19.615  0.00  0.00    +0.000 N 
ATOM     11  C   UNL     1       1.819   7.741  19.971  0.00  0.00    +0.000 A 
ENDROOT
BRANCH  11  12
ATOM     12  C   UNL     1       1.103   7.903  21.253  0.00  0.00    +0.000 C 
ATOM     13  C   UNL     1      -0.408   7.984  21.219  0.00  0.00    +0.000 C 
ATOM     14  C   UNL     1       0.387   9.172  21.669  0.00  0.00    +0.000 C 
BRANCH  14  15
ATOM     15  C   UNL     1       0.314   9.581  23.108  0.00  0.00    +0.000 C 
BRANCH  15  16
ATOM     16  O   UNL     1      -0.383  10.819  23.212  0.00  0.00    +0.000 OA
ATOM     17  H   UNL     1       0.202  11.435  23.693  0.00  0.00    +0.000 HD
ENDBRANCH  15  16
ENDBRANCH  14  15
ENDBRANCH  11  12
BRANCH   6  18
ATOM     18  C   UNL     1       4.643   3.344  17.899  0.00  0.00    +0.000 C 
BRANCH  18  19
ATOM     19  N   UNL     1       5.470   3.880  16.827  0.00  0.00    +0.000 N 
ATOM     20  N   UNL     1       5.141   3.576  15.543  0.00  0.00    +0.000 NA
ATOM     21  C   UNL     1       6.122   4.133  14.800  0.00  0.00    +0.000 A 
ATOM     22  C   UNL     1       7.051   4.830  15.624  0.00  0.00    +0.000 A 
ATOM     23  C   UNL     1       6.595   4.644  16.900  0.00  0.00    +0.000 A 
ATOM     24 CL   UNL     1       7.232   5.179  18.381  0.00  0.00    +0.000 Cl
BRANCH  21  25
ATOM     25  C   UNL     1       6.198   4.003  13.302  0.00  0.00    +0.000 C 
ATOM     26  F   UNL     1       6.599   2.775  12.881  0.00  0.00    +0.000 F 
ATOM     27  F   UNL     1       4.992   4.243  12.717  0.00  0.00    +0.000 F 
ATOM     28  F   UNL     1       7.068   4.903  12.769  0.00  0.00    +0.000 F 
ENDBRANCH  21  25
ENDBRANCH  18  19
ENDBRANCH   6  18
TORSDOF 6
ENDMDL
