MODEL 1
REMARK VINA RESULT:      -8.3      0.000      0.000
REMARK  Name = 
REMARK  6 active torsions:
REMARK  status: ('A' for Active; 'I' for Inactive)
REMARK    1  A    between atoms: C_1  and  C_2
REMARK    2  A    between atoms: C_5  and  S_6
REMARK    3  A    between atoms: S_6  and  N_9
REMARK    4  A    between atoms: N_9  and  C_10
REMARK    5  A    between atoms: C_11  and  O_12
REMARK    6  A    between atoms: C_23  and  C_24
REMARK                            x       y       z     vdW  Elec       q    Type
REMARK                         _______ _______ _______ _____ _____    ______ ____
ROOT
ATOM      1  N   UNL     1       3.638   2.747  20.322  0.00  0.00    +0.000 N 
ATOM      2  H   UNL     1       3.676   1.748  20.568  0.00  0.00    +0.000 HD
ENDROOT
BRANCH   1   3
ATOM      3  C   UNL     1       4.239   2.999  19.047  0.00  0.00    +0.000 A 
ATOM      4  C   UNL     1       3.788   2.423  17.917  0.00  0.00    +0.000 A 
ATOM      5  O   UNL     1       4.308   2.731  16.669  0.00  0.00    +0.000 OA
ATOM      6  C   UNL     1       5.152   3.802  16.541  0.00  0.00    +0.000 A 
ATOM      7  C   UNL     1       5.487   4.182  15.242  0.00  0.00    +0.000 A 
ATOM      8  C   UNL     1       6.308   5.290  15.031  0.00  0.00    +0.000 A 
ATOM      9  C   UNL     1       6.807   6.006  16.121  0.00  0.00    +0.000 A 
ATOM     10  C   UNL     1       6.488   5.615  17.424  0.00  0.00    +0.000 A 
ATOM     11  C   UNL     1       5.654   4.509  17.628  0.00  0.00    +0.000 A 
ATOM     12  C   UNL     1       5.251   4.087  18.979  0.00  0.00    +0.000 A 
ATOM     13  O   UNL     1       5.680   4.613  20.002  0.00  0.00    +0.000 OA
BRANCH   4  14
ATOM     14  O   UNL     1       2.755   1.509  17.880  0.00  0.00    +0.000 OA
ATOM     15  H   UNL     1       1.912   1.934  18.134  0.00  0.00    +0.000 HD
ENDBRANCH   4  14
ENDBRANCH   1   3
BRANCH   1  16
ATOM     16  S   UNL     1       2.075   3.315  20.609  0.00  0.00    +0.000 S 
ATOM     17  O   UNL     1       1.944   3.449  22.046  0.00  0.00    +0.000 OA
ATOM     18  O   UNL     1       1.181   2.469  19.852  0.00  0.00    +0.000 OA
BRANCH  16  23
ATOM     19  C   UNL     1       2.110   8.878  18.194  0.00  0.00    +0.000 C 
ATOM     20  C   UNL     1       2.059   7.501  18.796  0.00  0.00    +0.000 A 
ATOM     21  C   UNL     1       2.250   6.377  17.972  0.00  0.00    +0.000 A 
ATOM     22  C   UNL     1       2.239   5.087  18.503  0.00  0.00    +0.000 A 
ATOM     23  C   UNL     1       2.037   4.921  19.872  0.00  0.00    +0.000 A 
ATOM     24  C   UNL     1       1.844   6.024  20.707  0.00  0.00    +0.000 A 
ATOM     25  C   UNL     1       1.839   7.319  20.178  0.00  0.00    +0.000 A 
ATOM     26  C   UNL     1       1.611   8.481  21.106  0.00  0.00    +0.000 C 
ENDBRANCH  16  23
ENDBRANCH   1  16
TORSDOF 4
ENDMDL
MODEL 2
REMARK VINA RESULT:      -8.1      2.037      6.150
REMARK  Name = 
REMARK  6 active torsions:
REMARK  status: ('A' for Active; 'I' for Inactive)
REMARK    1  A    between atoms: C_1  and  C_2
REMARK    2  A    between atoms: C_5  and  S_6
REMARK    3  A    between atoms: S_6  and  N_9
REMARK    4  A    between atoms: N_9  and  C_10
REMARK    5  A    between atoms: C_11  and  O_12
REMARK    6  A    between atoms: C_23  and  C_24
REMARK                            x       y       z     vdW  Elec       q    Type
REMARK                         _______ _______ _______ _____ _____    ______ ____
ROOT
ATOM      1  N   UNL     1       4.163   5.134  18.979  0.00  0.00    +0.000 N 
ATOM      2  H   UNL     1       5.057   5.594  18.764  0.00  0.00    +0.000 HD
ENDROOT
BRANCH   1   3
ATOM      3  C   UNL     1       3.128   6.087  19.246  0.00  0.00    +0.000 A 
ATOM      4  C   UNL     1       2.399   6.053  20.377  0.00  0.00    +0.000 A 
ATOM      5  O   UNL     1       1.456   7.025  20.680  0.00  0.00    +0.000 OA
ATOM      6  C   UNL     1       1.406   8.168  19.928  0.00  0.00    +0.000 A 
ATOM      7  C   UNL     1       0.578   9.187  20.396  0.00  0.00    +0.000 A 
ATOM      8  C   UNL     1       0.508  10.398  19.705  0.00  0.00    +0.000 A 
ATOM      9  C   UNL     1       1.254  10.580  18.538  0.00  0.00    +0.000 A 
ATOM     10  C   UNL     1       2.069   9.551  18.058  0.00  0.00    +0.000 A 
ATOM     11  C   UNL     1       2.144   8.344  18.763  0.00  0.00    +0.000 A 
ATOM     12  C   UNL     1       3.023   7.249  18.323  0.00  0.00    +0.000 A 
ATOM     13  O   UNL     1       3.674   7.287  17.283  0.00  0.00    +0.000 OA
BRANCH   4  14
ATOM     14  O   UNL     1       2.535   5.085  21.351  0.00  0.00    +0.000 OA
ATOM     15  H   UNL     1       3.358   4.574  21.213  0.00  0.00    +0.000 HD
ENDBRANCH   4  14
ENDBRANCH   1   3
BRANCH   1  16
ATOM     16  S   UNL     1       3.881   3.934  17.826  0.00  0.00    +0.000 S 
ATOM     17  O   UNL     1       2.549   4.169  17.305  0.00  0.00    +0.000 OA
ATOM     18  O   UNL     1       4.231   2.675  18.443  0.00  0.00    +0.000 OA
BRANCH  16  23
ATOM     19  C   UNL     1       7.803   5.131  13.358  0.00  0.00    +0.000 C 
ATOM     20  C   UNL     1       6.842   4.794  14.465  0.00  0.00    +0.000 A 
ATOM     21  C   UNL     1       7.149   5.167  15.786  0.00  0.00    +0.000 A 
ATOM     22  C   UNL     1       6.266   4.895  16.831  0.00  0.00    +0.000 A 
ATOM     23  C   UNL     1       5.065   4.247  16.551  0.00  0.00    +0.000 A 
ATOM     24  C   UNL     1       4.742   3.867  15.246  0.00  0.00    +0.000 A 
ATOM     25  C   UNL     1       5.631   4.123  14.196  0.00  0.00    +0.000 A 
ATOM     26  C   UNL     1       5.257   3.682  12.807  0.00  0.00    +0.000 C 
ENDBRANCH  16  23
ENDBRANCH   1  16
TORSDOF 4
ENDMDL
MODEL 3
REMARK VINA RESULT:      -7.9      1.769      3.105
REMARK  Name = 
REMARK  6 active torsions:
REMARK  status: ('A' for Active; 'I' for Inactive)
REMARK    1  A    between atoms: C_1  and  C_2
REMARK    2  A    between atoms: C_5  and  S_6
REMARK    3  A    between atoms: S_6  and  N_9
REMARK    4  A    between atoms: N_9  and  C_10
REMARK    5  A    between atoms: C_11  and  O_12
REMARK    6  A    between atoms: C_23  and  C_24
REMARK                            x       y       z     vdW  Elec       q    Type
REMARK                         _______ _______ _______ _____ _____    ______ ____
ROOT
ATOM      1  N   UNL     1       4.016   3.366  17.197  0.00  0.00    +0.000 N 
ATOM      2  H   UNL     1       3.988   3.535  16.182  0.00  0.00    +0.000 HD
ENDROOT
BRANCH   1   3
ATOM      3  C   UNL     1       4.912   4.267  17.858  0.00  0.00    +0.000 A 
ATOM      4  C   UNL     1       5.523   3.947  19.014  0.00  0.00    +0.000 A 
ATOM      5  O   UNL     1       6.459   4.779  19.613  0.00  0.00    +0.000 OA
ATOM      6  C   UNL     1       6.942   5.853  18.915  0.00  0.00    +0.000 A 
ATOM      7  C   UNL     1       8.016   6.536  19.486  0.00  0.00    +0.000 A 
ATOM      8  C   UNL     1       8.590   7.616  18.814  0.00  0.00    +0.000 A 
ATOM      9  C   UNL     1       8.077   8.021  17.580  0.00  0.00    +0.000 A 
ATOM     10  C   UNL     1       6.989   7.351  17.016  0.00  0.00    +0.000 A 
ATOM     11  C   UNL     1       6.426   6.260  17.690  0.00  0.00    +0.000 A 
ATOM     12  C   UNL     1       5.309   5.493  17.116  0.00  0.00    +0.000 A 
ATOM     13  O   UNL     1       4.752   5.802  16.067  0.00  0.00    +0.000 OA
BRANCH   4  14
ATOM     14  O   UNL     1       5.314   2.764  19.693  0.00  0.00    +0.000 OA
ATOM     15  H   UNL     1       4.491   2.812  20.219  0.00  0.00    +0.000 HD
ENDBRANCH   4  14
ENDBRANCH   1   3
BRANCH   1  16
ATOM     16  S   UNL     1       2.433   3.234  17.767  0.00  0.00    +0.000 S 
ATOM     17  O   UNL     1       2.397   2.054  18.609  0.00  0.00    +0.000 OA
ATOM     18  O   UNL     1       1.567   3.359  16.618  0.00  0.00    +0.000 OA
BRANCH  16  23
ATOM     19  C   UNL     1       1.444   8.203  21.100  0.00  0.00    +0.000 C 
ATOM     20  C   UNL     1       1.730   6.980  20.272  0.00  0.00    +0.000 A 
ATOM     21  C   UNL     1       1.715   5.713  20.882  0.00  0.00    +0.000 A 
ATOM     22  C   UNL     1       1.947   4.556  20.138  0.00  0.00    +0.000 A 
ATOM     23  C   UNL     1       2.194   4.669  18.771  0.00  0.00    +0.000 A 
ATOM     24  C   UNL     1       2.215   5.918  18.147  0.00  0.00    +0.000 A 
ATOM     25  C   UNL     1       1.998   7.083  18.892  0.00  0.00    +0.000 A 
ATOM     26  C   UNL     1       2.046   8.412  18.188  0.00  0.00    +0.000 C 
ENDBRANCH  16  23
ENDBRANCH   1  16
TORSDOF 4
ENDMDL
MODEL 4
REMARK VINA RESULT:      -7.9      5.549      7.261
REMARK  Name = 
REMARK  6 active torsions:
REMARK  status: ('A' for Active; 'I' for Inactive)
REMARK    1  A    between atoms: C_1  and  C_2
REMARK    2  A    between atoms: C_5  and  S_6
REMARK    3  A    between atoms: S_6  and  N_9
REMARK    4  A    between atoms: N_9  and  C_10
REMARK    5  A    between atoms: C_11  and  O_12
REMARK    6  A    between atoms: C_23  and  C_24
REMARK                            x       y       z     vdW  Elec       q    Type
REMARK                         _______ _______ _______ _____ _____    ______ ____
ROOT
ATOM      1  N   UNL     1       0.857  10.598  19.987  0.00  0.00    +0.000 N 
ATOM      2  H   UNL     1       0.737  10.398  20.990  0.00  0.00    +0.000 HD
ENDROOT
BRANCH   1   3
ATOM      3  C   UNL     1       1.422   9.483  19.289  0.00  0.00    +0.000 A 
ATOM      4  C   UNL     1       2.028   9.619  18.096  0.00  0.00    +0.000 A 
ATOM      5  O   UNL     1       2.654   8.558  17.457  0.00  0.00    +0.000 OA
ATOM      6  C   UNL     1       2.855   7.389  18.141  0.00  0.00    +0.000 A 
ATOM      7  C   UNL     1       3.657   6.432  17.519  0.00  0.00    +0.000 A 
ATOM      8  C   UNL     1       3.941   5.233  18.173  0.00  0.00    +0.000 A 
ATOM      9  C   UNL     1       3.410   4.986  19.441  0.00  0.00    +0.000 A 
ATOM     10  C   UNL     1       2.590   5.936  20.056  0.00  0.00    +0.000 A 
ATOM     11  C   UNL     1       2.319   7.142  19.399  0.00  0.00    +0.000 A 
ATOM     12  C   UNL     1       1.500   8.193  20.025  0.00  0.00    +0.000 A 
ATOM     13  O   UNL     1       0.941   8.051  21.109  0.00  0.00    +0.000 OA
BRANCH   4  14
ATOM     14  O   UNL     1       2.122  10.814  17.413  0.00  0.00    +0.000 OA
ATOM     15  H   UNL     1       1.740  10.727  16.516  0.00  0.00    +0.000 HD
ENDBRANCH   4  14
ENDBRANCH   1   3
BRANCH   1  16
ATOM     16  S   UNL     1      -0.569  11.285  19.400  0.00  0.00    +0.000 S 
ATOM     17  O   UNL     1      -1.271  10.232  18.694  0.00  0.00    +0.000 OA
ATOM     18  O   UNL     1      -0.193  12.511  18.733  0.00  0.00    +0.000 OA
BRANCH  16  23
ATOM     19  C   UNL     1      -3.876  12.686  24.286  0.00  0.00    +0.000 C 
ATOM     20  C   UNL     1      -3.042  12.378  23.073  0.00  0.00    +0.000 A 
ATOM     21  C   UNL     1      -1.846  11.653  23.220  0.00  0.00    +0.000 A 
ATOM     22  C   UNL     1      -1.065  11.326  22.111  0.00  0.00    +0.000 A 
ATOM     23  C   UNL     1      -1.486  11.726  20.845  0.00  0.00    +0.000 A 
ATOM     24  C   UNL     1      -2.670  12.448  20.678  0.00  0.00    +0.000 A 
ATOM     25  C   UNL     1      -3.450  12.793  21.788  0.00  0.00    +0.000 A 
ATOM     26  C   UNL     1      -4.709  13.586  21.570  0.00  0.00    +0.000 C 
ENDBRANCH  16  23
ENDBRANCH   1  16
TORSDOF 4
ENDMDL
MODEL 5
REMARK VINA RESULT:      -7.8      1.460      4.952
REMARK  Name = 
REMARK  6 active torsions:
REMARK  status: ('A' for Active; 'I' for Inactive)
REMARK    1  A    between atoms: C_1  and  C_2
REMARK    2  A    between atoms: C_5  and  S_6
REMARK    3  A    between atoms: S_6  and  N_9
REMARK    4  A    between atoms: N_9  and  C_10
REMARK    5  A    between atoms: C_11  and  O_12
REMARK    6  A    between atoms: C_23  and  C_24
REMARK                            x       y       z     vdW  Elec       q    Type
REMARK                         _______ _______ _______ _____ _____    ______ ____
ROOT
ATOM      1  N   UNL     1       2.297   2.574  19.315  0.00  0.00    +0.000 N 
ATOM      2  H   UNL     1       1.769   1.925  19.913  0.00  0.00    +0.000 HD
ENDROOT
BRANCH   1   3
ATOM      3  C   UNL     1       1.985   3.940  19.613  0.00  0.00    +0.000 A 
ATOM      4  C   UNL     1       1.965   4.410  20.874  0.00  0.00    +0.000 A 
ATOM      5  O   UNL     1       1.749   5.749  21.163  0.00  0.00    +0.000 OA
ATOM      6  C   UNL     1       1.771   6.665  20.145  0.00  0.00    +0.000 A 
ATOM      7  C   UNL     1       1.745   8.010  20.515  0.00  0.00    +0.000 A 
ATOM      8  C   UNL     1       1.807   9.001  19.535  0.00  0.00    +0.000 A 
ATOM      9  C   UNL     1       1.878   8.646  18.186  0.00  0.00    +0.000 A 
ATOM     10  C   UNL     1       1.885   7.299  17.814  0.00  0.00    +0.000 A 
ATOM     11  C   UNL     1       1.835   6.310  18.803  0.00  0.00    +0.000 A 
ATOM     12  C   UNL     1       1.886   4.879  18.464  0.00  0.00    +0.000 A 
ATOM     13  O   UNL     1       1.891   4.463  17.309  0.00  0.00    +0.000 OA
BRANCH   4  14
ATOM     14  O   UNL     1       2.187   3.628  21.989  0.00  0.00    +0.000 OA
ATOM     15  H   UNL     1       2.858   2.942  21.798  0.00  0.00    +0.000 HD
ENDBRANCH   4  14
ENDBRANCH   1   3
BRANCH   1  16
ATOM     16  S   UNL     1       3.916   2.099  19.296  0.00  0.00    +0.000 S 
ATOM     17  O   UNL     1       4.010   0.998  18.358  0.00  0.00    +0.000 OA
ATOM     18  O   UNL     1       4.318   1.942  20.675  0.00  0.00    +0.000 OA
BRANCH  16  23
ATOM     19  C   UNL     1       6.730   6.939  16.965  0.00  0.00    +0.000 C 
ATOM     20  C   UNL     1       6.066   5.715  17.533  0.00  0.00    +0.000 A 
ATOM     21  C   UNL     1       5.978   5.560  18.928  0.00  0.00    +0.000 A 
ATOM     22  C   UNL     1       5.342   4.451  19.488  0.00  0.00    +0.000 A 
ATOM     23  C   UNL     1       4.788   3.491  18.643  0.00  0.00    +0.000 A 
ATOM     24  C   UNL     1       4.867   3.626  17.255  0.00  0.00    +0.000 A 
ATOM     25  C   UNL     1       5.517   4.728  16.688  0.00  0.00    +0.000 A 
ATOM     26  C   UNL     1       5.597   4.830  15.189  0.00  0.00    +0.000 C 
ENDBRANCH  16  23
ENDBRANCH   1  16
TORSDOF 4
ENDMDL
MODEL 6
REMARK VINA RESULT:      -7.8      2.562      4.775
REMARK  Name = 
REMARK  6 active torsions:
REMARK  status: ('A' for Active; 'I' for Inactive)
REMARK    1  A    between atoms: C_1  and  C_2
REMARK    2  A    between atoms: C_5  and  S_6
REMARK    3  A    between atoms: S_6  and  N_9
REMARK    4  A    between atoms: N_9  and  C_10
REMARK    5  A    between atoms: C_11  and  O_12
REMARK    6  A    between atoms: C_23  and  C_24
REMARK                            x       y       z     vdW  Elec       q    Type
REMARK                         _______ _______ _______ _____ _____    ______ ____
ROOT
ATOM      1  N   UNL     1       4.576   4.753  16.513  0.00  0.00    +0.000 N 
ATOM      2  H   UNL     1       5.280   4.244  15.962  0.00  0.00    +0.000 HD
ENDROOT
BRANCH   1   3
ATOM      3  C   UNL     1       4.193   4.022  17.684  0.00  0.00    +0.000 A 
ATOM      4  C   UNL     1       5.081   3.674  18.633  0.00  0.00    +0.000 A 
ATOM      5  O   UNL     1       4.701   3.044  19.809  0.00  0.00    +0.000 OA
ATOM      6  C   UNL     1       3.371   2.961  20.124  0.00  0.00    +0.000 A 
ATOM      7  C   UNL     1       3.060   2.495  21.401  0.00  0.00    +0.000 A 
ATOM      8  C   UNL     1       1.728   2.422  21.810  0.00  0.00    +0.000 A 
ATOM      9  C   UNL     1       0.708   2.800  20.933  0.00  0.00    +0.000 A 
ATOM     10  C   UNL     1       1.017   3.247  19.646  0.00  0.00    +0.000 A 
ATOM     11  C   UNL     1       2.357   3.329  19.248  0.00  0.00    +0.000 A 
ATOM     12  C   UNL     1       2.736   3.839  17.920  0.00  0.00    +0.000 A 
ATOM     13  O   UNL     1       1.915   4.141  17.058  0.00  0.00    +0.000 OA
BRANCH   4  14
ATOM     14  O   UNL     1       6.434   3.936  18.553  0.00  0.00    +0.000 OA
ATOM     15  H   UNL     1       6.588   4.835  18.201  0.00  0.00    +0.000 HD
ENDBRANCH   4  14
ENDBRANCH   1   3
BRANCH   1  16
ATOM     16  S   UNL     1       5.080   6.355  16.687  0.00  0.00    +0.000 S 
ATOM     17  O   UNL     1       5.160   6.907  15.349  0.00  0.00    +0.000 OA
ATOM     18  O   UNL     1       6.232   6.335  17.558  0.00  0.00    +0.000 OA
BRANCH  16  23
ATOM     19  C   UNL     1       0.700   9.113  19.848  0.00  0.00    +0.000 C 
ATOM     20  C   UNL     1       1.759   8.399  19.053  0.00  0.00    +0.000 A 
ATOM     21  C   UNL     1       2.159   8.919  17.809  0.00  0.00    +0.000 A 
ATOM     22  C   UNL     1       3.160   8.298  17.060  0.00  0.00    +0.000 A 
ATOM     23  C   UNL     1       3.765   7.148  17.563  0.00  0.00    +0.000 A 
ATOM     24  C   UNL     1       3.380   6.614  18.795  0.00  0.00    +0.000 A 
ATOM     25  C   UNL     1       2.367   7.224  19.543  0.00  0.00    +0.000 A 
ATOM     26  C   UNL     1       1.967   6.611  20.857  0.00  0.00    +0.000 C 
ENDBRANCH  16  23
ENDBRANCH   1  16
TORSDOF 4
ENDMDL
MODEL 7
REMARK VINA RESULT:      -7.8      2.580      4.826
REMARK  Name = 
REMARK  6 active torsions:
REMARK  status: ('A' for Active; 'I' for Inactive)
REMARK    1  A    between atoms: C_1  and  C_2
REMARK    2  A    between atoms: C_5  and  S_6
REMARK    3  A    between atoms: S_6  and  N_9
REMARK    4  A    between atoms: N_9  and  C_10
REMARK    5  A    between atoms: C_11  and  O_12
REMARK    6  A    between atoms: C_23  and  C_24
REMARK                            x       y       z     vdW  Elec       q    Type
REMARK                         _______ _______ _______ _____ _____    ______ ____
ROOT
ATOM      1  N   UNL     1       4.605   4.778  16.494  0.00  0.00    +0.000 N 
ATOM      2  H   UNL     1       5.351   4.307  15.964  0.00  0.00    +0.000 HD
ENDROOT
BRANCH   1   3
ATOM      3  C   UNL     1       4.229   4.030  17.656  0.00  0.00    +0.000 A 
ATOM      4  C   UNL     1       5.124   3.666  18.592  0.00  0.00    +0.000 A 
ATOM      5  O   UNL     1       4.752   3.019  19.761  0.00  0.00    +0.000 OA
ATOM      6  C   UNL     1       3.425   2.932  20.086  0.00  0.00    +0.000 A 
ATOM      7  C   UNL     1       3.123   2.448  21.358  0.00  0.00    +0.000 A 
ATOM      8  C   UNL     1       1.794   2.370  21.775  0.00  0.00    +0.000 A 
ATOM      9  C   UNL     1       0.768   2.763  20.912  0.00  0.00    +0.000 A 
ATOM     10  C   UNL     1       1.068   3.230  19.630  0.00  0.00    +0.000 A 
ATOM     11  C   UNL     1       2.405   3.316  19.223  0.00  0.00    +0.000 A 
ATOM     12  C   UNL     1       2.774   3.845  17.900  0.00  0.00    +0.000 A 
ATOM     13  O   UNL     1       1.947   4.161  17.049  0.00  0.00    +0.000 OA
BRANCH   4  14
ATOM     14  O   UNL     1       6.477   3.927  18.506  0.00  0.00    +0.000 OA
ATOM     15  H   UNL     1       6.914   3.275  17.923  0.00  0.00    +0.000 HD
ENDBRANCH   4  14
ENDBRANCH   1   3
BRANCH   1  16
ATOM     16  S   UNL     1       5.015   6.405  16.675  0.00  0.00    +0.000 S 
ATOM     17  O   UNL     1       4.795   7.030  15.385  0.00  0.00    +0.000 OA
ATOM     18  O   UNL     1       6.312   6.438  17.310  0.00  0.00    +0.000 OA
BRANCH  16  23
ATOM     19  C   UNL     1       0.830   8.517  20.523  0.00  0.00    +0.000 C 
ATOM     20  C   UNL     1       1.890   8.028  19.575  0.00  0.00    +0.000 A 
ATOM     21  C   UNL     1       2.774   7.015  19.987  0.00  0.00    +0.000 A 
ATOM     22  C   UNL     1       3.750   6.518  19.122  0.00  0.00    +0.000 A 
ATOM     23  C   UNL     1       3.839   7.039  17.833  0.00  0.00    +0.000 A 
ATOM     24  C   UNL     1       2.972   8.047  17.405  0.00  0.00    +0.000 A 
ATOM     25  C   UNL     1       2.002   8.560  18.273  0.00  0.00    +0.000 A 
ATOM     26  C   UNL     1       1.097   9.657  17.782  0.00  0.00    +0.000 C 
ENDBRANCH  16  23
ENDBRANCH   1  16
TORSDOF 4
ENDMDL
MODEL 8
REMARK VINA RESULT:      -7.8      3.020      6.590
REMARK  Name = 
REMARK  6 active torsions:
REMARK  status: ('A' for Active; 'I' for Inactive)
REMARK    1  A    between atoms: C_1  and  C_2
REMARK    2  A    between atoms: C_5  and  S_6
REMARK    3  A    between atoms: S_6  and  N_9
REMARK    4  A    between atoms: N_9  and  C_10
REMARK    5  A    between atoms: C_11  and  O_12
REMARK    6  A    between atoms: C_23  and  C_24
REMARK                            x       y       z     vdW  Elec       q    Type
REMARK                         _______ _______ _______ _____ _____    ______ ____
ROOT
ATOM      1  N   UNL     1       5.776   6.227  17.693  0.00  0.00    +0.000 N 
ATOM      2  H   UNL     1       5.153   6.706  17.029  0.00  0.00    +0.000 HD
ENDROOT
BRANCH   1   3
ATOM      3  C   UNL     1       5.077   5.232  18.450  0.00  0.00    +0.000 A 
ATOM      4  C   UNL     1       5.593   4.691  19.569  0.00  0.00    +0.000 A 
ATOM      5  O   UNL     1       4.884   3.792  20.353  0.00  0.00    +0.000 OA
ATOM      6  C   UNL     1       3.549   3.605  20.115  0.00  0.00    +0.000 A 
ATOM      7  C   UNL     1       2.849   2.843  21.051  0.00  0.00    +0.000 A 
ATOM      8  C   UNL     1       1.477   2.643  20.898  0.00  0.00    +0.000 A 
ATOM      9  C   UNL     1       0.810   3.192  19.801  0.00  0.00    +0.000 A 
ATOM     10  C   UNL     1       1.513   3.939  18.852  0.00  0.00    +0.000 A 
ATOM     11  C   UNL     1       2.888   4.145  19.018  0.00  0.00    +0.000 A 
ATOM     12  C   UNL     1       3.664   4.962  18.071  0.00  0.00    +0.000 A 
ATOM     13  O   UNL     1       3.184   5.439  17.047  0.00  0.00    +0.000 OA
BRANCH   4  14
ATOM     14  O   UNL     1       6.844   4.997  20.064  0.00  0.00    +0.000 OA
ATOM     15  H   UNL     1       7.540   4.684  19.453  0.00  0.00    +0.000 HD
ENDBRANCH   4  14
ENDBRANCH   1   3
BRANCH   1  16
ATOM     16  S   UNL     1       7.191   5.787  16.886  0.00  0.00    +0.000 S 
ATOM     17  O   UNL     1       7.860   4.818  17.730  0.00  0.00    +0.000 OA
ATOM     18  O   UNL     1       7.844   7.015  16.495  0.00  0.00    +0.000 OA
BRANCH  16  23
ATOM     19  C   UNL     1       5.482   2.956  11.803  0.00  0.00    +0.000 C 
ATOM     20  C   UNL     1       5.886   3.693  13.050  0.00  0.00    +0.000 A 
ATOM     21  C   UNL     1       5.241   3.401  14.266  0.00  0.00    +0.000 A 
ATOM     22  C   UNL     1       5.612   4.045  15.447  0.00  0.00    +0.000 A 
ATOM     23  C   UNL     1       6.638   4.986  15.410  0.00  0.00    +0.000 A 
ATOM     24  C   UNL     1       7.289   5.291  14.213  0.00  0.00    +0.000 A 
ATOM     25  C   UNL     1       6.911   4.660  13.023  0.00  0.00    +0.000 A 
ATOM     26  C   UNL     1       7.624   5.027  11.750  0.00  0.00    +0.000 C 
ENDBRANCH  16  23
ENDBRANCH   1  16
TORSDOF 4
ENDMDL
MODEL 9
REMARK VINA RESULT:      -7.7      2.101      6.309
REMARK  Name = 
REMARK  6 active torsions:
REMARK  status: ('A' for Active; 'I' for Inactive)
REMARK    1  A    between atoms: C_1  and  C_2
REMARK    2  A    between atoms: C_5  and  S_6
REMARK    3  A    between atoms: S_6  and  N_9
REMARK    4  A    between atoms: N_9  and  C_10
REMARK    5  A    between atoms: C_11  and  O_12
REMARK    6  A    between atoms: C_23  and  C_24
REMARK                            x       y       z     vdW  Elec       q    Type
REMARK                         _______ _______ _______ _____ _____    ______ ____
ROOT
ATOM      1  N   UNL     1       3.410   4.843  18.512  0.00  0.00    +0.000 N 
ATOM      2  H   UNL     1       2.794   4.121  18.910  0.00  0.00    +0.000 HD
ENDROOT
BRANCH   1   3
ATOM      3  C   UNL     1       2.973   6.162  18.861  0.00  0.00    +0.000 A 
ATOM      4  C   UNL     1       3.102   7.204  18.019  0.00  0.00    +0.000 A 
ATOM      5  O   UNL     1       2.602   8.463  18.316  0.00  0.00    +0.000 OA
ATOM      6  C   UNL     1       1.767   8.615  19.391  0.00  0.00    +0.000 A 
ATOM      7  C   UNL     1       1.143   9.855  19.525  0.00  0.00    +0.000 A 
ATOM      8  C   UNL     1       0.245  10.072  20.571  0.00  0.00    +0.000 A 
ATOM      9  C   UNL     1      -0.013   9.053  21.491  0.00  0.00    +0.000 A 
ATOM     10  C   UNL     1       0.626   7.816  21.369  0.00  0.00    +0.000 A 
ATOM     11  C   UNL     1       1.516   7.602  20.309  0.00  0.00    +0.000 A 
ATOM     12  C   UNL     1       2.179   6.303  20.110  0.00  0.00    +0.000 A 
ATOM     13  O   UNL     1       2.063   5.365  20.893  0.00  0.00    +0.000 OA
BRANCH   4  14
ATOM     14  O   UNL     1       3.702   7.121  16.779  0.00  0.00    +0.000 OA
ATOM     15  H   UNL     1       3.113   6.667  16.144  0.00  0.00    +0.000 HD
ENDBRANCH   4  14
ENDBRANCH   1   3
BRANCH   1  16
ATOM     16  S   UNL     1       5.014   4.413  18.816  0.00  0.00    +0.000 S 
ATOM     17  O   UNL     1       4.997   3.018  19.210  0.00  0.00    +0.000 OA
ATOM     18  O   UNL     1       5.557   5.430  19.688  0.00  0.00    +0.000 OA
BRANCH  16  23
ATOM     19  C   UNL     1       7.642   5.054  13.389  0.00  0.00    +0.000 C 
ATOM     20  C   UNL     1       7.000   4.854  14.734  0.00  0.00    +0.000 A 
ATOM     21  C   UNL     1       7.661   5.305  15.891  0.00  0.00    +0.000 A 
ATOM     22  C   UNL     1       7.079   5.162  17.151  0.00  0.00    +0.000 A 
ATOM     23  C   UNL     1       5.825   4.564  17.253  0.00  0.00    +0.000 A 
ATOM     24  C   UNL     1       5.153   4.108  16.117  0.00  0.00    +0.000 A 
ATOM     25  C   UNL     1       5.738   4.235  14.852  0.00  0.00    +0.000 A 
ATOM     26  C   UNL     1       4.992   3.715  13.653  0.00  0.00    +0.000 C 
ENDBRANCH  16  23
ENDBRANCH   1  16
TORSDOF 4
ENDMDL
