MODEL 1
REMARK VINA RESULT:      -7.5      0.000      0.000
REMARK  Name = 
REMARK  1 active torsions:
REMARK  status: ('A' for Active; 'I' for Inactive)
REMARK    1  A    between atoms: C_2  and  C_13
REMARK                            x       y       z     vdW  Elec       q    Type
REMARK                         _______ _______ _______ _____ _____    ______ ____
ROOT
ATOM      1  O   UNL     1       5.230   5.616  15.427  0.00  0.00    +0.000 OA
ATOM      2  C   UNL     1       5.643   4.454  15.427  0.00  0.00    +0.000 C 
ATOM      3  N   UNL     1       5.400   3.510  16.412  0.00  0.00    +0.000 N 
ATOM      4  C   UNL     1       4.576   3.796  17.480  0.00  0.00    +0.000 A 
ATOM      5  N   UNL     1       3.913   4.902  17.712  0.00  0.00    +0.000 NA
ATOM      6  C   UNL     1       3.221   4.702  18.873  0.00  0.00    +0.000 A 
ATOM      7  C   UNL     1       2.349   5.563  19.549  0.00  0.00    +0.000 A 
ATOM      8  C   UNL     1       1.755   5.117  20.734  0.00  0.00    +0.000 A 
ATOM      9  C   UNL     1       2.036   3.843  21.238  0.00  0.00    +0.000 A 
ATOM     10  C   UNL     1       2.908   2.968  20.573  0.00  0.00    +0.000 A 
ATOM     11  C   UNL     1       3.475   3.437  19.386  0.00  0.00    +0.000 A 
ATOM     12  N   UNL     1       4.335   2.876  18.472  0.00  0.00    +0.000 N 
ATOM     13  H   UNL     1       5.813   2.594  16.337  0.00  0.00    +0.000 HD
ATOM     14  H   UNL     1       4.714   1.944  18.522  0.00  0.00    +0.000 HD
ENDROOT
BRANCH   2  15
ATOM     15  C   UNL     1       6.519   3.915  14.258  0.00  0.00    +0.000 C 
ATOM     16  C   UNL     1       5.768   3.584  12.938  0.00  0.00    +0.000 C 
ATOM     17  C   UNL     1       6.973   4.156  12.171  0.00  0.00    +0.000 C 
ATOM     18  C   UNL     1       7.313   4.968  13.433  0.00  0.00    +0.000 C 
ENDBRANCH   2  15
TORSDOF 1
ENDMDL
MODEL 2
REMARK VINA RESULT:      -7.0      2.868      3.693
REMARK  Name = 
REMARK  1 active torsions:
REMARK  status: ('A' for Active; 'I' for Inactive)
REMARK    1  A    between atoms: C_2  and  C_13
REMARK                            x       y       z     vdW  Elec       q    Type
REMARK                         _______ _______ _______ _____ _____    ______ ____
ROOT
ATOM      1  O   UNL     1       5.690   5.673  16.247  0.00  0.00    +0.000 OA
ATOM      2  C   UNL     1       6.095   6.226  17.272  0.00  0.00    +0.000 C 
ATOM      3  N   UNL     1       5.478   6.180  18.513  0.00  0.00    +0.000 N 
ATOM      4  C   UNL     1       4.351   5.413  18.715  0.00  0.00    +0.000 A 
ATOM      5  N   UNL     1       3.739   4.638  17.855  0.00  0.00    +0.000 NA
ATOM      6  C   UNL     1       2.692   4.069  18.523  0.00  0.00    +0.000 A 
ATOM      7  C   UNL     1       1.737   3.152  18.068  0.00  0.00    +0.000 A 
ATOM      8  C   UNL     1       0.753   2.713  18.959  0.00  0.00    +0.000 A 
ATOM      9  C   UNL     1       0.718   3.188  20.273  0.00  0.00    +0.000 A 
ATOM     10  C   UNL     1       1.666   4.107  20.746  0.00  0.00    +0.000 A 
ATOM     11  C   UNL     1       2.643   4.517  19.836  0.00  0.00    +0.000 A 
ATOM     12  N   UNL     1       3.720   5.366  19.936  0.00  0.00    +0.000 N 
ATOM     13  H   UNL     1       5.871   6.697  19.283  0.00  0.00    +0.000 HD
ATOM     14  H   UNL     1       3.999   5.861  20.767  0.00  0.00    +0.000 HD
ENDROOT
BRANCH   2  15
ATOM     15  C   UNL     1       7.404   7.068  17.265  0.00  0.00    +0.000 C 
ATOM     16  C   UNL     1       7.228   8.608  17.388  0.00  0.00    +0.000 C 
ATOM     17  C   UNL     1       8.476   8.626  18.286  0.00  0.00    +0.000 C 
ATOM     18  C   UNL     1       8.197   7.146  18.601  0.00  0.00    +0.000 C 
ENDBRANCH   2  15
TORSDOF 1
ENDMDL
MODEL 3
REMARK VINA RESULT:      -7.0      3.356      3.928
REMARK  Name = 
REMARK  1 active torsions:
REMARK  status: ('A' for Active; 'I' for Inactive)
REMARK    1  A    between atoms: C_2  and  C_13
REMARK                            x       y       z     vdW  Elec       q    Type
REMARK                         _______ _______ _______ _____ _____    ______ ____
ROOT
ATOM      1  O   UNL     1       7.021   5.319  19.814  0.00  0.00    +0.000 OA
ATOM      2  C   UNL     1       6.758   5.836  18.726  0.00  0.00    +0.000 C 
ATOM      3  N   UNL     1       5.583   5.660  18.012  0.00  0.00    +0.000 N 
ATOM      4  C   UNL     1       4.544   4.916  18.528  0.00  0.00    +0.000 A 
ATOM      5  N   UNL     1       4.480   4.323  19.695  0.00  0.00    +0.000 NA
ATOM      6  C   UNL     1       3.250   3.734  19.763  0.00  0.00    +0.000 A 
ATOM      7  C   UNL     1       2.673   2.992  20.801  0.00  0.00    +0.000 A 
ATOM      8  C   UNL     1       1.380   2.490  20.625  0.00  0.00    +0.000 A 
ATOM      9  C   UNL     1       0.682   2.716  19.435  0.00  0.00    +0.000 A 
ATOM     10  C   UNL     1       1.245   3.457  18.385  0.00  0.00    +0.000 A 
ATOM     11  C   UNL     1       2.533   3.955  18.595  0.00  0.00    +0.000 A 
ATOM     12  N   UNL     1       3.377   4.721  17.828  0.00  0.00    +0.000 N 
ATOM     13  H   UNL     1       5.477   6.100  17.112  0.00  0.00    +0.000 HD
ATOM     14  H   UNL     1       3.169   5.082  16.911  0.00  0.00    +0.000 HD
ENDROOT
BRANCH   2  15
ATOM     15  C   UNL     1       7.772   6.783  18.022  0.00  0.00    +0.000 C 
ATOM     16  C   UNL     1       7.162   7.981  17.242  0.00  0.00    +0.000 C 
ATOM     17  C   UNL     1       8.331   8.841  17.751  0.00  0.00    +0.000 C 
ATOM     18  C   UNL     1       8.478   7.846  18.915  0.00  0.00    +0.000 C 
ENDBRANCH   2  15
TORSDOF 1
ENDMDL
MODEL 4
REMARK VINA RESULT:      -6.9      2.994      4.086
REMARK  Name = 
REMARK  1 active torsions:
REMARK  status: ('A' for Active; 'I' for Inactive)
REMARK    1  A    between atoms: C_2  and  C_13
REMARK                            x       y       z     vdW  Elec       q    Type
REMARK                         _______ _______ _______ _____ _____    ______ ____
ROOT
ATOM      1  O   UNL     1       7.640   4.951  12.553  0.00  0.00    +0.000 OA
ATOM      2  C   UNL     1       6.926   3.952  12.669  0.00  0.00    +0.000 C 
ATOM      3  N   UNL     1       6.404   3.467  13.858  0.00  0.00    +0.000 N 
ATOM      4  C   UNL     1       6.597   4.141  15.045  0.00  0.00    +0.000 A 
ATOM      5  N   UNL     1       7.224   5.276  15.234  0.00  0.00    +0.000 NA
ATOM      6  C   UNL     1       7.130   5.552  16.568  0.00  0.00    +0.000 A 
ATOM      7  C   UNL     1       7.616   6.652  17.286  0.00  0.00    +0.000 A 
ATOM      8  C   UNL     1       7.385   6.705  18.664  0.00  0.00    +0.000 A 
ATOM      9  C   UNL     1       6.693   5.677  19.312  0.00  0.00    +0.000 A 
ATOM     10  C   UNL     1       6.200   4.569  18.608  0.00  0.00    +0.000 A 
ATOM     11  C   UNL     1       6.436   4.550  17.231  0.00  0.00    +0.000 A 
ATOM     12  N   UNL     1       6.097   3.666  16.235  0.00  0.00    +0.000 N 
ATOM     13  H   UNL     1       5.859   2.620  13.853  0.00  0.00    +0.000 HD
ATOM     14  H   UNL     1       5.566   2.820  16.359  0.00  0.00    +0.000 HD
ENDROOT
BRANCH   2  15
ATOM     15  C   UNL     1       6.524   3.106  11.427  0.00  0.00    +0.000 C 
ATOM     16  C   UNL     1       7.384   1.840  11.155  0.00  0.00    +0.000 C 
ATOM     17  C   UNL     1       6.092   1.113  10.746  0.00  0.00    +0.000 C 
ATOM     18  C   UNL     1       5.319   2.135  11.598  0.00  0.00    +0.000 C 
ENDBRANCH   2  15
TORSDOF 1
ENDMDL
MODEL 5
REMARK VINA RESULT:      -6.8      1.375      1.886
REMARK  Name = 
REMARK  1 active torsions:
REMARK  status: ('A' for Active; 'I' for Inactive)
REMARK    1  A    between atoms: C_2  and  C_13
REMARK                            x       y       z     vdW  Elec       q    Type
REMARK                         _______ _______ _______ _____ _____    ______ ____
ROOT
ATOM      1  O   UNL     1       6.314   4.013  16.785  0.00  0.00    +0.000 OA
ATOM      2  C   UNL     1       5.434   4.274  15.962  0.00  0.00    +0.000 C 
ATOM      3  N   UNL     1       4.069   4.172  16.179  0.00  0.00    +0.000 N 
ATOM      4  C   UNL     1       3.573   3.822  17.416  0.00  0.00    +0.000 A 
ATOM      5  N   UNL     1       4.244   3.579  18.515  0.00  0.00    +0.000 NA
ATOM      6  C   UNL     1       3.320   3.301  19.481  0.00  0.00    +0.000 A 
ATOM      7  C   UNL     1       3.509   2.992  20.833  0.00  0.00    +0.000 A 
ATOM      8  C   UNL     1       2.385   2.746  21.627  0.00  0.00    +0.000 A 
ATOM      9  C   UNL     1       1.099   2.798  21.079  0.00  0.00    +0.000 A 
ATOM     10  C   UNL     1       0.892   3.106  19.726  0.00  0.00    +0.000 A 
ATOM     11  C   UNL     1       2.033   3.359  18.962  0.00  0.00    +0.000 A 
ATOM     12  N   UNL     1       2.222   3.703  17.645  0.00  0.00    +0.000 N 
ATOM     13  H   UNL     1       3.429   4.375  15.429  0.00  0.00    +0.000 HD
ATOM     14  H   UNL     1       1.491   3.851  16.969  0.00  0.00    +0.000 HD
ENDROOT
BRANCH   2  15
ATOM     15  C   UNL     1       5.797   4.771  14.532  0.00  0.00    +0.000 C 
ATOM     16  C   UNL     1       7.314   4.874  14.209  0.00  0.00    +0.000 C 
ATOM     17  C   UNL     1       6.995   4.352  12.798  0.00  0.00    +0.000 C 
ATOM     18  C   UNL     1       5.719   3.723  13.384  0.00  0.00    +0.000 C 
ENDBRANCH   2  15
TORSDOF 1
ENDMDL
MODEL 6
REMARK VINA RESULT:      -6.7      1.081      1.393
REMARK  Name = 
REMARK  1 active torsions:
REMARK  status: ('A' for Active; 'I' for Inactive)
REMARK    1  A    between atoms: C_2  and  C_13
REMARK                            x       y       z     vdW  Elec       q    Type
REMARK                         _______ _______ _______ _____ _____    ______ ____
ROOT
ATOM      1  O   UNL     1       5.405   6.118  16.722  0.00  0.00    +0.000 OA
ATOM      2  C   UNL     1       5.195   5.182  15.947  0.00  0.00    +0.000 C 
ATOM      3  N   UNL     1       4.456   4.045  16.235  0.00  0.00    +0.000 N 
ATOM      4  C   UNL     1       3.810   3.907  17.444  0.00  0.00    +0.000 A 
ATOM      5  N   UNL     1       3.759   4.765  18.433  0.00  0.00    +0.000 NA
ATOM      6  C   UNL     1       2.983   4.194  19.402  0.00  0.00    +0.000 A 
ATOM      7  C   UNL     1       2.602   4.700  20.650  0.00  0.00    +0.000 A 
ATOM      8  C   UNL     1       1.789   3.911  21.471  0.00  0.00    +0.000 A 
ATOM      9  C   UNL     1       1.376   2.641  21.057  0.00  0.00    +0.000 A 
ATOM     10  C   UNL     1       1.749   2.120  19.810  0.00  0.00    +0.000 A 
ATOM     11  C   UNL     1       2.551   2.936  19.008  0.00  0.00    +0.000 A 
ATOM     12  N   UNL     1       3.083   2.781  17.750  0.00  0.00    +0.000 N 
ATOM     13  H   UNL     1       4.372   3.318  15.543  0.00  0.00    +0.000 HD
ATOM     14  H   UNL     1       2.953   1.979  17.155  0.00  0.00    +0.000 HD
ENDROOT
BRANCH   2  15
ATOM     15  C   UNL     1       5.770   5.195  14.501  0.00  0.00    +0.000 C 
ATOM     16  C   UNL     1       7.248   4.739  14.349  0.00  0.00    +0.000 C 
ATOM     17  C   UNL     1       6.841   4.033  13.044  0.00  0.00    +0.000 C 
ATOM     18  C   UNL     1       5.402   3.990  13.587  0.00  0.00    +0.000 C 
ENDBRANCH   2  15
TORSDOF 1
ENDMDL
MODEL 7
REMARK VINA RESULT:      -6.6      3.108      3.997
REMARK  Name = 
REMARK  1 active torsions:
REMARK  status: ('A' for Active; 'I' for Inactive)
REMARK    1  A    between atoms: C_2  and  C_13
REMARK                            x       y       z     vdW  Elec       q    Type
REMARK                         _______ _______ _______ _____ _____    ______ ____
ROOT
ATOM      1  O   UNL     1       7.400   4.705  18.143  0.00  0.00    +0.000 OA
ATOM      2  C   UNL     1       6.909   5.788  17.816  0.00  0.00    +0.000 C 
ATOM      3  N   UNL     1       5.556   6.051  17.672  0.00  0.00    +0.000 N 
ATOM      4  C   UNL     1       4.612   5.092  17.971  0.00  0.00    +0.000 A 
ATOM      5  N   UNL     1       4.811   3.882  18.433  0.00  0.00    +0.000 NA
ATOM      6  C   UNL     1       3.576   3.322  18.594  0.00  0.00    +0.000 A 
ATOM      7  C   UNL     1       3.229   2.053  19.074  0.00  0.00    +0.000 A 
ATOM      8  C   UNL     1       1.875   1.713  19.146  0.00  0.00    +0.000 A 
ATOM      9  C   UNL     1       0.889   2.616  18.737  0.00  0.00    +0.000 A 
ATOM     10  C   UNL     1       1.219   3.891  18.254  0.00  0.00    +0.000 A 
ATOM     11  C   UNL     1       2.579   4.206  18.206  0.00  0.00    +0.000 A 
ATOM     12  N   UNL     1       3.267   5.333  17.822  0.00  0.00    +0.000 N 
ATOM     13  H   UNL     1       5.256   6.962  17.365  0.00  0.00    +0.000 HD
ATOM     14  H   UNL     1       2.850   6.189  17.496  0.00  0.00    +0.000 HD
ENDROOT
BRANCH   2  15
ATOM     15  C   UNL     1       7.813   7.020  17.522  0.00  0.00    +0.000 C 
ATOM     16  C   UNL     1       7.076   8.372  17.303  0.00  0.00    +0.000 C 
ATOM     17  C   UNL     1       8.212   9.057  18.081  0.00  0.00    +0.000 C 
ATOM     18  C   UNL     1       8.496   7.698  18.744  0.00  0.00    +0.000 C 
ENDBRANCH   2  15
TORSDOF 1
ENDMDL
MODEL 8
REMARK VINA RESULT:      -6.6      3.799      7.474
REMARK  Name = 
REMARK  1 active torsions:
REMARK  status: ('A' for Active; 'I' for Inactive)
REMARK    1  A    between atoms: C_2  and  C_13
REMARK                            x       y       z     vdW  Elec       q    Type
REMARK                         _______ _______ _______ _____ _____    ______ ____
ROOT
ATOM      1  O   UNL     1       1.322   9.007  19.389  0.00  0.00    +0.000 OA
ATOM      2  C   UNL     1       1.292   8.749  20.595  0.00  0.00    +0.000 C 
ATOM      3  N   UNL     1       1.620   7.531  21.168  0.00  0.00    +0.000 N 
ATOM      4  C   UNL     1       2.098   6.491  20.400  0.00  0.00    +0.000 A 
ATOM      5  N   UNL     1       2.335   6.484  19.111  0.00  0.00    +0.000 NA
ATOM      6  C   UNL     1       2.821   5.243  18.813  0.00  0.00    +0.000 A 
ATOM      7  C   UNL     1       3.243   4.724  17.584  0.00  0.00    +0.000 A 
ATOM      8  C   UNL     1       3.708   3.406  17.539  0.00  0.00    +0.000 A 
ATOM      9  C   UNL     1       3.741   2.621  18.696  0.00  0.00    +0.000 A 
ATOM     10  C   UNL     1       3.321   3.126  19.936  0.00  0.00    +0.000 A 
ATOM     11  C   UNL     1       2.874   4.449  19.950  0.00  0.00    +0.000 A 
ATOM     12  N   UNL     1       2.417   5.273  20.951  0.00  0.00    +0.000 N 
ATOM     13  H   UNL     1       1.529   7.409  22.164  0.00  0.00    +0.000 HD
ATOM     14  H   UNL     1       2.339   5.023  21.924  0.00  0.00    +0.000 HD
ENDROOT
BRANCH   2  15
ATOM     15  C   UNL     1       0.861   9.825  21.634  0.00  0.00    +0.000 C 
ATOM     16  C   UNL     1      -0.432  10.620  21.298  0.00  0.00    +0.000 C 
ATOM     17  C   UNL     1      -0.794  10.560  22.792  0.00  0.00    +0.000 C 
ATOM     18  C   UNL     1       0.109   9.318  22.899  0.00  0.00    +0.000 C 
ENDBRANCH   2  15
TORSDOF 1
ENDMDL
MODEL 9
REMARK VINA RESULT:      -6.5      1.911      6.514
REMARK  Name = 
REMARK  1 active torsions:
REMARK  status: ('A' for Active; 'I' for Inactive)
REMARK    1  A    between atoms: C_2  and  C_13
REMARK                            x       y       z     vdW  Elec       q    Type
REMARK                         _______ _______ _______ _____ _____    ______ ____
ROOT
ATOM      1  O   UNL     1       1.918   2.453  17.497  0.00  0.00    +0.000 OA
ATOM      2  C   UNL     1       2.431   2.683  18.595  0.00  0.00    +0.000 C 
ATOM      3  N   UNL     1       3.697   3.208  18.801  0.00  0.00    +0.000 N 
ATOM      4  C   UNL     1       4.484   3.597  17.739  0.00  0.00    +0.000 A 
ATOM      5  N   UNL     1       4.187   3.571  16.463  0.00  0.00    +0.000 NA
ATOM      6  C   UNL     1       5.270   4.077  15.802  0.00  0.00    +0.000 A 
ATOM      7  C   UNL     1       5.460   4.282  14.430  0.00  0.00    +0.000 A 
ATOM      8  C   UNL     1       6.675   4.824  13.998  0.00  0.00    +0.000 A 
ATOM      9  C   UNL     1       7.680   5.143  14.915  0.00  0.00    +0.000 A 
ATOM     10  C   UNL     1       7.506   4.945  16.293  0.00  0.00    +0.000 A 
ATOM     11  C   UNL     1       6.278   4.414  16.695  0.00  0.00    +0.000 A 
ATOM     12  N   UNL     1       5.747   4.107  17.925  0.00  0.00    +0.000 N 
ATOM     13  H   UNL     1       4.040   3.326  19.741  0.00  0.00    +0.000 HD
ATOM     14  H   UNL     1       6.207   4.244  18.811  0.00  0.00    +0.000 HD
ENDROOT
BRANCH   2  15
ATOM     15  C   UNL     1       1.661   2.391  19.915  0.00  0.00    +0.000 C 
ATOM     16  C   UNL     1       2.528   2.272  21.200  0.00  0.00    +0.000 C 
ATOM     17  C   UNL     1       1.413   3.013  21.958  0.00  0.00    +0.000 C 
ATOM     18  C   UNL     1       0.969   3.602  20.607  0.00  0.00    +0.000 C 
ENDBRANCH   2  15
TORSDOF 1
ENDMDL
