MODEL 1
REMARK VINA RESULT:      -7.4      0.000      0.000
REMARK  Name = 
REMARK  7 active torsions:
REMARK  status: ('A' for Active; 'I' for Inactive)
REMARK    1  A    between atoms: C_1  and  O_2
REMARK    2  A    between atoms: O_2  and  C_3
REMARK    3  A    between atoms: C_3  and  C_5
REMARK    4  A    between atoms: C_10  and  N_11
REMARK    5  A    between atoms: C_12  and  C_14
REMARK    6  A    between atoms: C_14  and  S_15
REMARK    7  A    between atoms: S_15  and  C_16
REMARK                            x       y       z     vdW  Elec       q    Type
REMARK                         _______ _______ _______ _____ _____    ______ ____
ROOT
ATOM      1  N   UNL     1       2.448   6.237  20.514  0.00  0.00    +0.000 N 
ATOM      2  C   UNL     1       1.808   5.002  20.502  0.00  0.00    +0.000 C 
ATOM      3  O   UNL     1       0.882   4.678  19.758  0.00  0.00    +0.000 OA
ATOM      4  H   UNL     1       3.348   6.273  20.991  0.00  0.00    +0.000 HD
ENDROOT
BRANCH   1  10
ATOM      5  C   UNL     1       1.259   8.378  20.147  0.00  0.00    +0.000 A 
ATOM      6  C   UNL     1       1.035   9.508  19.330  0.00  0.00    +0.000 A 
ATOM      7  C   UNL     1       1.660   9.646  18.093  0.00  0.00    +0.000 A 
ATOM      8  C   UNL     1       2.498   8.640  17.643  0.00  0.00    +0.000 A 
ATOM      9  C   UNL     1       2.727   7.512  18.436  0.00  0.00    +0.000 A 
ATOM     10  C   UNL     1       2.147   7.367  19.707  0.00  0.00    +0.000 A 
BRANCH   5  11
ATOM     11  C   UNL     1       0.520   8.409  21.447  0.00  0.00    +0.000 C 
ATOM     12  O   UNL     1      -0.358   7.603  21.725  0.00  0.00    +0.000 OA
BRANCH  11  14
ATOM     13  C   UNL     1      -0.160  10.033  22.962  0.00  0.00    +0.000 C 
ATOM     14  O   UNL     1       0.928   9.409  22.269  0.00  0.00    +0.000 OA
ENDBRANCH  11  14
ENDBRANCH   5  11
ENDBRANCH   1  10
BRANCH   2  15
ATOM     15  C   UNL     1       2.331   4.026  21.548  0.00  0.00    +0.000 C 
BRANCH  15  16
ATOM     16  S   UNL     1       3.054   2.537  20.800  0.00  0.00    +0.000 S 
BRANCH  16  17
ATOM     17  C   UNL     1       3.932   3.214  19.485  0.00  0.00    +0.000 A 
ATOM     18  N   UNL     1       3.645   3.130  18.208  0.00  0.00    +0.000 NA
ATOM     19  C   UNL     1       4.724   3.706  17.577  0.00  0.00    +0.000 A 
ATOM     20  C   UNL     1       4.994   3.839  16.207  0.00  0.00    +0.000 A 
ATOM     21  C   UNL     1       6.196   4.440  15.827  0.00  0.00    +0.000 A 
ATOM     22 BR   UNL     1       6.602   4.602  13.986  0.00  0.00    +0.000 Br
ATOM     23  C   UNL     1       7.110   4.911  16.777  0.00  0.00    +0.000 A 
ATOM     24  C   UNL     1       6.851   4.802  18.145  0.00  0.00    +0.000 A 
ATOM     25  C   UNL     1       5.651   4.188  18.502  0.00  0.00    +0.000 A 
ATOM     26  N   UNL     1       5.092   3.888  19.720  0.00  0.00    +0.000 N 
ATOM     27  H   UNL     1       5.488   4.069  20.630  0.00  0.00    +0.000 HD
ENDBRANCH  16  17
ENDBRANCH  15  16
ENDBRANCH   2  15
TORSDOF 6
ENDMDL
MODEL 2
REMARK VINA RESULT:      -7.4      4.988      8.480
REMARK  Name = 
REMARK  7 active torsions:
REMARK  status: ('A' for Active; 'I' for Inactive)
REMARK    1  A    between atoms: C_1  and  O_2
REMARK    2  A    between atoms: O_2  and  C_3
REMARK    3  A    between atoms: C_3  and  C_5
REMARK    4  A    between atoms: C_10  and  N_11
REMARK    5  A    between atoms: C_12  and  C_14
REMARK    6  A    between atoms: C_14  and  S_15
REMARK    7  A    between atoms: S_15  and  C_16
REMARK                            x       y       z     vdW  Elec       q    Type
REMARK                         _______ _______ _______ _____ _____    ______ ____
ROOT
ATOM      1  N   UNL     1       2.535   6.654  17.833  0.00  0.00    +0.000 N 
ATOM      2  C   UNL     1       2.194   7.495  18.887  0.00  0.00    +0.000 C 
ATOM      3  O   UNL     1       2.129   7.172  20.074  0.00  0.00    +0.000 OA
ATOM      4  H   UNL     1       2.797   7.110  16.960  0.00  0.00    +0.000 HD
ENDROOT
BRANCH   1  10
ATOM      5  C   UNL     1       4.165   4.808  18.100  0.00  0.00    +0.000 A 
ATOM      6  C   UNL     1       4.407   3.422  18.219  0.00  0.00    +0.000 A 
ATOM      7  C   UNL     1       3.372   2.494  18.137  0.00  0.00    +0.000 A 
ATOM      8  C   UNL     1       2.081   2.938  17.906  0.00  0.00    +0.000 A 
ATOM      9  C   UNL     1       1.823   4.307  17.781  0.00  0.00    +0.000 A 
ATOM     10  C   UNL     1       2.840   5.268  17.905  0.00  0.00    +0.000 A 
BRANCH   5  11
ATOM     11  C   UNL     1       5.390   5.655  18.232  0.00  0.00    +0.000 C 
ATOM     12  O   UNL     1       5.589   6.640  17.534  0.00  0.00    +0.000 OA
BRANCH  11  14
ATOM     13  C   UNL     1       7.539   5.810  19.100  0.00  0.00    +0.000 C 
ATOM     14  O   UNL     1       6.238   5.219  19.199  0.00  0.00    +0.000 OA
ENDBRANCH  11  14
ENDBRANCH   5  11
ENDBRANCH   1  10
BRANCH   2  15
ATOM     15  C   UNL     1       1.854   8.916  18.457  0.00  0.00    +0.000 C 
BRANCH  15  16
ATOM     16  S   UNL     1       1.024   9.855  19.772  0.00  0.00    +0.000 S 
BRANCH  16  17
ATOM     17  C   UNL     1      -0.391  10.396  18.957  0.00  0.00    +0.000 A 
ATOM     18  N   UNL     1      -1.369  11.115  19.451  0.00  0.00    +0.000 NA
ATOM     19  C   UNL     1      -2.310  11.147  18.447  0.00  0.00    +0.000 A 
ATOM     20  C   UNL     1      -3.589  11.721  18.439  0.00  0.00    +0.000 A 
ATOM     21  C   UNL     1      -4.368  11.579  17.287  0.00  0.00    +0.000 A 
ATOM     22 BR   UNL     1      -6.112  12.314  17.260  0.00  0.00    +0.000 Br
ATOM     23  C   UNL     1      -3.892  10.894  16.163  0.00  0.00    +0.000 A 
ATOM     24  C   UNL     1      -2.615  10.330  16.148  0.00  0.00    +0.000 A 
ATOM     25  C   UNL     1      -1.859  10.473  17.312  0.00  0.00    +0.000 A 
ATOM     26  N   UNL     1      -0.606  10.034  17.661  0.00  0.00    +0.000 N 
ATOM     27  H   UNL     1       0.025   9.487  17.094  0.00  0.00    +0.000 HD
ENDBRANCH  16  17
ENDBRANCH  15  16
ENDBRANCH   2  15
TORSDOF 6
ENDMDL
MODEL 3
REMARK VINA RESULT:      -7.3      4.924      8.558
REMARK  Name = 
REMARK  7 active torsions:
REMARK  status: ('A' for Active; 'I' for Inactive)
REMARK    1  A    between atoms: C_1  and  O_2
REMARK    2  A    between atoms: O_2  and  C_3
REMARK    3  A    between atoms: C_3  and  C_5
REMARK    4  A    between atoms: C_10  and  N_11
REMARK    5  A    between atoms: C_12  and  C_14
REMARK    6  A    between atoms: C_14  and  S_15
REMARK    7  A    between atoms: S_15  and  C_16
REMARK                            x       y       z     vdW  Elec       q    Type
REMARK                         _______ _______ _______ _____ _____    ______ ____
ROOT
ATOM      1  N   UNL     1       2.346   6.338  17.774  0.00  0.00    +0.000 N 
ATOM      2  C   UNL     1       2.194   7.254  18.810  0.00  0.00    +0.000 C 
ATOM      3  O   UNL     1       2.254   6.997  20.013  0.00  0.00    +0.000 OA
ATOM      4  H   UNL     1       2.529   6.729  16.851  0.00  0.00    +0.000 HD
ENDROOT
BRANCH   1  10
ATOM      5  C   UNL     1       3.852   4.372  17.758  0.00  0.00    +0.000 A 
ATOM      6  C   UNL     1       4.020   2.981  17.937  0.00  0.00    +0.000 A 
ATOM      7  C   UNL     1       2.942   2.150  18.231  0.00  0.00    +0.000 A 
ATOM      8  C   UNL     1       1.672   2.696  18.322  0.00  0.00    +0.000 A 
ATOM      9  C   UNL     1       1.486   4.070  18.143  0.00  0.00    +0.000 A 
ATOM     10  C   UNL     1       2.561   4.938  17.891  0.00  0.00    +0.000 A 
BRANCH   5  11
ATOM     11  C   UNL     1       5.121   5.107  17.468  0.00  0.00    +0.000 C 
ATOM     12  O   UNL     1       5.449   6.120  18.072  0.00  0.00    +0.000 OA
BRANCH  11  14
ATOM     13  C   UNL     1       5.542   5.054  15.184  0.00  0.00    +0.000 C 
ATOM     14  O   UNL     1       5.856   4.534  16.482  0.00  0.00    +0.000 OA
ENDBRANCH  11  14
ENDBRANCH   5  11
ENDBRANCH   1  10
BRANCH   2  15
ATOM     15  C   UNL     1       1.903   8.673  18.340  0.00  0.00    +0.000 C 
BRANCH  15  16
ATOM     16  S   UNL     1       1.156   9.692  19.644  0.00  0.00    +0.000 S 
BRANCH  16  17
ATOM     17  C   UNL     1      -0.270  10.250  18.860  0.00  0.00    +0.000 A 
ATOM     18  N   UNL     1      -1.247  10.947  19.386  0.00  0.00    +0.000 NA
ATOM     19  C   UNL     1      -2.198  11.006  18.393  0.00  0.00    +0.000 A 
ATOM     20  C   UNL     1      -3.481  11.572  18.414  0.00  0.00    +0.000 A 
ATOM     21  C   UNL     1      -4.269  11.462  17.266  0.00  0.00    +0.000 A 
ATOM     22 BR   UNL     1      -6.017  12.187  17.278  0.00  0.00    +0.000 Br
ATOM     23  C   UNL     1      -3.800  10.816  16.116  0.00  0.00    +0.000 A 
ATOM     24  C   UNL     1      -2.519  10.261  16.071  0.00  0.00    +0.000 A 
ATOM     25  C   UNL     1      -1.754  10.371  17.232  0.00  0.00    +0.000 A 
ATOM     26  N   UNL     1      -0.495   9.929  17.556  0.00  0.00    +0.000 N 
ATOM     27  H   UNL     1       0.133   9.404  16.966  0.00  0.00    +0.000 HD
ENDBRANCH  16  17
ENDBRANCH  15  16
ENDBRANCH   2  15
TORSDOF 6
ENDMDL
MODEL 4
REMARK VINA RESULT:      -7.1      6.494      8.630
REMARK  Name = 
REMARK  7 active torsions:
REMARK  status: ('A' for Active; 'I' for Inactive)
REMARK    1  A    between atoms: C_1  and  O_2
REMARK    2  A    between atoms: O_2  and  C_3
REMARK    3  A    between atoms: C_3  and  C_5
REMARK    4  A    between atoms: C_10  and  N_11
REMARK    5  A    between atoms: C_12  and  C_14
REMARK    6  A    between atoms: C_14  and  S_15
REMARK    7  A    between atoms: S_15  and  C_16
REMARK                            x       y       z     vdW  Elec       q    Type
REMARK                         _______ _______ _______ _____ _____    ______ ____
ROOT
ATOM      1  N   UNL     1       6.437   6.300  18.097  0.00  0.00    +0.000 N 
ATOM      2  C   UNL     1       7.647   6.184  18.773  0.00  0.00    +0.000 C 
ATOM      3  O   UNL     1       8.066   5.169  19.330  0.00  0.00    +0.000 OA
ATOM      4  H   UNL     1       6.343   7.102  17.476  0.00  0.00    +0.000 HD
ENDROOT
BRANCH   1  10
ATOM      5  C   UNL     1       5.363   4.496  16.782  0.00  0.00    +0.000 A 
ATOM      6  C   UNL     1       4.386   3.479  16.704  0.00  0.00    +0.000 A 
ATOM      7  C   UNL     1       3.487   3.254  17.742  0.00  0.00    +0.000 A 
ATOM      8  C   UNL     1       3.533   4.064  18.865  0.00  0.00    +0.000 A 
ATOM      9  C   UNL     1       4.490   5.079  18.957  0.00  0.00    +0.000 A 
ATOM     10  C   UNL     1       5.439   5.299  17.945  0.00  0.00    +0.000 A 
BRANCH   5  11
ATOM     11  C   UNL     1       6.253   4.580  15.584  0.00  0.00    +0.000 C 
ATOM     12  O   UNL     1       7.474   4.603  15.669  0.00  0.00    +0.000 OA
BRANCH  11  14
ATOM     13  C   UNL     1       6.121   3.748  13.419  0.00  0.00    +0.000 C 
ATOM     14  O   UNL     1       5.569   4.620  14.412  0.00  0.00    +0.000 OA
ENDBRANCH  11  14
ENDBRANCH   5  11
ENDBRANCH   1  10
BRANCH   2  15
ATOM     15  C   UNL     1       8.458   7.473  18.809  0.00  0.00    +0.000 C 
BRANCH  15  16
ATOM     16  S   UNL     1       7.843   8.707  17.628  0.00  0.00    +0.000 S 
BRANCH  16  17
ATOM     17  C   UNL     1       8.567  10.144  18.236  0.00  0.00    +0.000 A 
ATOM     18  N   UNL     1       8.533  11.341  17.702  0.00  0.00    +0.000 NA
ATOM     19  C   UNL     1       9.376  12.091  18.490  0.00  0.00    +0.000 A 
ATOM     20  C   UNL     1       9.774  13.429  18.355  0.00  0.00    +0.000 A 
ATOM     21  C   UNL     1      10.680  13.945  19.285  0.00  0.00    +0.000 A 
ATOM     22 BR   UNL     1      11.260  15.737  19.106  0.00  0.00    +0.000 Br
ATOM     23  C   UNL     1      11.176  13.162  20.334  0.00  0.00    +0.000 A 
ATOM     24  C   UNL     1      10.779  11.833  20.494  0.00  0.00    +0.000 A 
ATOM     25  C   UNL     1       9.883  11.335  19.547  0.00  0.00    +0.000 A 
ATOM     26  N   UNL     1       9.313  10.097  19.375  0.00  0.00    +0.000 N 
ATOM     27  H   UNL     1       9.462   9.276  19.943  0.00  0.00    +0.000 HD
ENDBRANCH  16  17
ENDBRANCH  15  16
ENDBRANCH   2  15
TORSDOF 6
ENDMDL
MODEL 5
REMARK VINA RESULT:      -7.1      3.557      6.421
REMARK  Name = 
REMARK  7 active torsions:
REMARK  status: ('A' for Active; 'I' for Inactive)
REMARK    1  A    between atoms: C_1  and  O_2
REMARK    2  A    between atoms: O_2  and  C_3
REMARK    3  A    between atoms: C_3  and  C_5
REMARK    4  A    between atoms: C_10  and  N_11
REMARK    5  A    between atoms: C_12  and  C_14
REMARK    6  A    between atoms: C_14  and  S_15
REMARK    7  A    between atoms: S_15  and  C_16
REMARK                            x       y       z     vdW  Elec       q    Type
REMARK                         _______ _______ _______ _____ _____    ______ ____
ROOT
ATOM      1  N   UNL     1       5.188   3.720  17.901  0.00  0.00    +0.000 N 
ATOM      2  C   UNL     1       4.737   2.887  18.921  0.00  0.00    +0.000 C 
ATOM      3  O   UNL     1       5.067   2.955  20.105  0.00  0.00    +0.000 OA
ATOM      4  H   UNL     1       4.643   3.713  17.041  0.00  0.00    +0.000 HD
ENDROOT
BRANCH   1  10
ATOM      5  C   UNL     1       6.251   5.772  17.011  0.00  0.00    +0.000 A 
ATOM      6  C   UNL     1       7.166   6.832  17.194  0.00  0.00    +0.000 A 
ATOM      7  C   UNL     1       7.963   6.916  18.333  0.00  0.00    +0.000 A 
ATOM      8  C   UNL     1       7.876   5.923  19.294  0.00  0.00    +0.000 A 
ATOM      9  C   UNL     1       6.979   4.864  19.128  0.00  0.00    +0.000 A 
ATOM     10  C   UNL     1       6.130   4.778  18.011  0.00  0.00    +0.000 A 
BRANCH   5  11
ATOM     11  C   UNL     1       5.468   5.855  15.740  0.00  0.00    +0.000 C 
ATOM     12  O   UNL     1       5.023   6.909  15.307  0.00  0.00    +0.000 OA
BRANCH  11  14
ATOM     13  C   UNL     1       6.488   4.240  14.417  0.00  0.00    +0.000 C 
ATOM     14  O   UNL     1       5.315   4.652  15.128  0.00  0.00    +0.000 OA
ENDBRANCH  11  14
ENDBRANCH   5  11
ENDBRANCH   1  10
BRANCH   2  15
ATOM     15  C   UNL     1       3.777   1.802  18.451  0.00  0.00    +0.000 C 
BRANCH  15  16
ATOM     16  S   UNL     1       2.254   2.490  17.742  0.00  0.00    +0.000 S 
BRANCH  16  17
ATOM     17  C   UNL     1       2.220   4.050  18.466  0.00  0.00    +0.000 A 
ATOM     18  N   UNL     1       1.938   4.344  19.713  0.00  0.00    +0.000 NA
ATOM     19  C   UNL     1       1.908   5.719  19.741  0.00  0.00    +0.000 A 
ATOM     20  C   UNL     1       1.595   6.586  20.798  0.00  0.00    +0.000 A 
ATOM     21  C   UNL     1       1.604   7.961  20.548  0.00  0.00    +0.000 A 
ATOM     22 BR   UNL     1       1.152   9.153  21.947  0.00  0.00    +0.000 Br
ATOM     23  C   UNL     1       1.925   8.472  19.285  0.00  0.00    +0.000 A 
ATOM     24  C   UNL     1       2.256   7.625  18.226  0.00  0.00    +0.000 A 
ATOM     25  C   UNL     1       2.228   6.256  18.494  0.00  0.00    +0.000 A 
ATOM     26  N   UNL     1       2.460   5.155  17.707  0.00  0.00    +0.000 N 
ATOM     27  H   UNL     1       2.701   5.150  16.727  0.00  0.00    +0.000 HD
ENDBRANCH  16  17
ENDBRANCH  15  16
ENDBRANCH   2  15
TORSDOF 6
ENDMDL
MODEL 6
REMARK VINA RESULT:      -7.1      3.267      6.337
REMARK  Name = 
REMARK  7 active torsions:
REMARK  status: ('A' for Active; 'I' for Inactive)
REMARK    1  A    between atoms: C_1  and  O_2
REMARK    2  A    between atoms: O_2  and  C_3
REMARK    3  A    between atoms: C_3  and  C_5
REMARK    4  A    between atoms: C_10  and  N_11
REMARK    5  A    between atoms: C_12  and  C_14
REMARK    6  A    between atoms: C_14  and  S_15
REMARK    7  A    between atoms: S_15  and  C_16
REMARK                            x       y       z     vdW  Elec       q    Type
REMARK                         _______ _______ _______ _____ _____    ______ ____
ROOT
ATOM      1  N   UNL     1       4.883   3.631  17.943  0.00  0.00    +0.000 N 
ATOM      2  C   UNL     1       4.517   2.685  18.894  0.00  0.00    +0.000 C 
ATOM      3  O   UNL     1       4.998   2.575  20.023  0.00  0.00    +0.000 OA
ATOM      4  H   UNL     1       4.234   3.767  17.169  0.00  0.00    +0.000 HD
ENDROOT
BRANCH   1  10
ATOM      5  C   UNL     1       6.341   5.368  16.947  0.00  0.00    +0.000 A 
ATOM      6  C   UNL     1       7.308   6.381  17.131  0.00  0.00    +0.000 A 
ATOM      7  C   UNL     1       7.841   6.658  18.388  0.00  0.00    +0.000 A 
ATOM      8  C   UNL     1       7.434   5.904  19.476  0.00  0.00    +0.000 A 
ATOM      9  C   UNL     1       6.481   4.894  19.312  0.00  0.00    +0.000 A 
ATOM     10  C   UNL     1       5.893   4.624  18.064  0.00  0.00    +0.000 A 
BRANCH   5  11
ATOM     11  C   UNL     1       5.870   5.225  15.535  0.00  0.00    +0.000 C 
ATOM     12  O   UNL     1       5.477   6.175  14.872  0.00  0.00    +0.000 OA
BRANCH  11  14
ATOM     13  C   UNL     1       6.165   3.877  13.667  0.00  0.00    +0.000 C 
ATOM     14  O   UNL     1       5.932   3.948  15.079  0.00  0.00    +0.000 OA
ENDBRANCH  11  14
ENDBRANCH   5  11
ENDBRANCH   1  10
BRANCH   2  15
ATOM     15  C   UNL     1       3.443   1.716  18.418  0.00  0.00    +0.000 C 
BRANCH  15  16
ATOM     16  S   UNL     1       1.849   1.995  19.241  0.00  0.00    +0.000 S 
BRANCH  16  17
ATOM     17  C   UNL     1       1.750   3.712  19.209  0.00  0.00    +0.000 A 
ATOM     18  N   UNL     1       1.874   4.498  18.167  0.00  0.00    +0.000 NA
ATOM     19  C   UNL     1       1.859   5.769  18.694  0.00  0.00    +0.000 A 
ATOM     20  C   UNL     1       2.020   7.006  18.053  0.00  0.00    +0.000 A 
ATOM     21  C   UNL     1       1.998   8.162  18.836  0.00  0.00    +0.000 A 
ATOM     22 BR   UNL     1       2.246   9.843  18.002  0.00  0.00    +0.000 Br
ATOM     23  C   UNL     1       1.812   8.103  20.223  0.00  0.00    +0.000 A 
ATOM     24  C   UNL     1       1.634   6.882  20.876  0.00  0.00    +0.000 A 
ATOM     25  C   UNL     1       1.671   5.739  20.076  0.00  0.00    +0.000 A 
ATOM     26  N   UNL     1       1.567   4.402  20.370  0.00  0.00    +0.000 N 
ATOM     27  H   UNL     1       1.444   3.989  21.282  0.00  0.00    +0.000 HD
ENDBRANCH  16  17
ENDBRANCH  15  16
ENDBRANCH   2  15
TORSDOF 6
ENDMDL
MODEL 7
REMARK VINA RESULT:      -7.0      5.179      8.618
REMARK  Name = 
REMARK  7 active torsions:
REMARK  status: ('A' for Active; 'I' for Inactive)
REMARK    1  A    between atoms: C_1  and  O_2
REMARK    2  A    between atoms: O_2  and  C_3
REMARK    3  A    between atoms: C_3  and  C_5
REMARK    4  A    between atoms: C_10  and  N_11
REMARK    5  A    between atoms: C_12  and  C_14
REMARK    6  A    between atoms: C_14  and  S_15
REMARK    7  A    between atoms: S_15  and  C_16
REMARK                            x       y       z     vdW  Elec       q    Type
REMARK                         _______ _______ _______ _____ _____    ______ ____
ROOT
ATOM      1  N   UNL     1       2.386   7.374  18.760  0.00  0.00    +0.000 N 
ATOM      2  C   UNL     1       1.879   8.638  18.475  0.00  0.00    +0.000 C 
ATOM      3  O   UNL     1       2.070   9.273  17.438  0.00  0.00    +0.000 OA
ATOM      4  H   UNL     1       1.941   6.873  19.527  0.00  0.00    +0.000 HD
ENDROOT
BRANCH   1  10
ATOM      5  C   UNL     1       3.177   5.174  17.943  0.00  0.00    +0.000 A 
ATOM      6  C   UNL     1       4.012   4.441  17.069  0.00  0.00    +0.000 A 
ATOM      7  C   UNL     1       4.906   5.079  16.213  0.00  0.00    +0.000 A 
ATOM      8  C   UNL     1       4.998   6.460  16.238  0.00  0.00    +0.000 A 
ATOM      9  C   UNL     1       4.184   7.202  17.099  0.00  0.00    +0.000 A 
ATOM     10  C   UNL     1       3.241   6.588  17.940  0.00  0.00    +0.000 A 
BRANCH   5  11
ATOM     11  C   UNL     1       2.270   4.325  18.774  0.00  0.00    +0.000 C 
ATOM     12  O   UNL     1       1.874   4.670  19.880  0.00  0.00    +0.000 OA
BRANCH  11  14
ATOM     13  C   UNL     1       0.772   2.550  18.751  0.00  0.00    +0.000 C 
ATOM     14  O   UNL     1       1.936   3.154  18.174  0.00  0.00    +0.000 OA
ENDBRANCH  11  14
ENDBRANCH   5  11
ENDBRANCH   1  10
BRANCH   2  15
ATOM     15  C   UNL     1       1.049   9.237  19.603  0.00  0.00    +0.000 C 
BRANCH  15  16
ATOM     16  S   UNL     1       0.980  11.050  19.520  0.00  0.00    +0.000 S 
BRANCH  16  17
ATOM     17  C   UNL     1      -0.611  11.299  18.916  0.00  0.00    +0.000 A 
ATOM     18  N   UNL     1      -1.663  11.703  19.586  0.00  0.00    +0.000 NA
ATOM     19  C   UNL     1      -2.701  11.597  18.688  0.00  0.00    +0.000 A 
ATOM     20  C   UNL     1      -4.071  11.835  18.871  0.00  0.00    +0.000 A 
ATOM     21  C   UNL     1      -4.929  11.615  17.791  0.00  0.00    +0.000 A 
ATOM     22 BR   UNL     1      -6.786  11.894  18.020  0.00  0.00    +0.000 Br
ATOM     23  C   UNL     1      -4.446  11.180  16.551  0.00  0.00    +0.000 A 
ATOM     24  C   UNL     1      -3.083  10.955  16.345  0.00  0.00    +0.000 A 
ATOM     25  C   UNL     1      -2.247  11.168  17.441  0.00  0.00    +0.000 A 
ATOM     26  N   UNL     1      -0.892  11.021  17.612  0.00  0.00    +0.000 N 
ATOM     27  H   UNL     1      -0.224  10.704  16.925  0.00  0.00    +0.000 HD
ENDBRANCH  16  17
ENDBRANCH  15  16
ENDBRANCH   2  15
TORSDOF 6
ENDMDL
MODEL 8
REMARK VINA RESULT:      -7.0      4.475      8.318
REMARK  Name = 
REMARK  7 active torsions:
REMARK  status: ('A' for Active; 'I' for Inactive)
REMARK    1  A    between atoms: C_1  and  O_2
REMARK    2  A    between atoms: O_2  and  C_3
REMARK    3  A    between atoms: C_3  and  C_5
REMARK    4  A    between atoms: C_10  and  N_11
REMARK    5  A    between atoms: C_12  and  C_14
REMARK    6  A    between atoms: C_14  and  S_15
REMARK    7  A    between atoms: S_15  and  C_16
REMARK                            x       y       z     vdW  Elec       q    Type
REMARK                         _______ _______ _______ _____ _____    ______ ____
ROOT
ATOM      1  N   UNL     1       4.371   6.702  17.596  0.00  0.00    +0.000 N 
ATOM      2  C   UNL     1       3.326   6.240  18.391  0.00  0.00    +0.000 C 
ATOM      3  O   UNL     1       3.044   5.059  18.594  0.00  0.00    +0.000 OA
ATOM      4  H   UNL     1       4.640   7.675  17.727  0.00  0.00    +0.000 HD
ENDROOT
BRANCH   1  10
ATOM      5  C   UNL     1       6.516   5.482  17.390  0.00  0.00    +0.000 A 
ATOM      6  C   UNL     1       7.366   4.660  16.617  0.00  0.00    +0.000 A 
ATOM      7  C   UNL     1       7.027   4.278  15.321  0.00  0.00    +0.000 A 
ATOM      8  C   UNL     1       5.843   4.737  14.769  0.00  0.00    +0.000 A 
ATOM      9  C   UNL     1       4.992   5.555  15.517  0.00  0.00    +0.000 A 
ATOM     10  C   UNL     1       5.286   5.918  16.842  0.00  0.00    +0.000 A 
BRANCH   5  11
ATOM     11  C   UNL     1       7.033   5.774  18.762  0.00  0.00    +0.000 C 
ATOM     12  O   UNL     1       6.500   5.338  19.774  0.00  0.00    +0.000 OA
BRANCH  11  14
ATOM     13  C   UNL     1       7.939   7.799  18.075  0.00  0.00    +0.000 C 
ATOM     14  O   UNL     1       8.142   6.557  18.759  0.00  0.00    +0.000 OA
ENDBRANCH  11  14
ENDBRANCH   5  11
ENDBRANCH   1  10
BRANCH   2  15
ATOM     15  C   UNL     1       2.485   7.350  19.007  0.00  0.00    +0.000 C 
BRANCH  15  16
ATOM     16  S   UNL     1       2.144   8.690  17.831  0.00  0.00    +0.000 S 
BRANCH  16  17
ATOM     17  C   UNL     1       1.125   9.710  18.769  0.00  0.00    +0.000 A 
ATOM     18  N   UNL     1       1.013   9.742  20.074  0.00  0.00    +0.000 NA
ATOM     19  C   UNL     1      -0.025  10.614  20.308  0.00  0.00    +0.000 A 
ATOM     20  C   UNL     1      -0.627  10.986  21.519  0.00  0.00    +0.000 A 
ATOM     21  C   UNL     1      -1.704  11.875  21.475  0.00  0.00    +0.000 A 
ATOM     22 BR   UNL     1      -2.557  12.368  23.090  0.00  0.00    +0.000 Br
ATOM     23  C   UNL     1      -2.173  12.395  20.262  0.00  0.00    +0.000 A 
ATOM     24  C   UNL     1      -1.576  12.049  19.049  0.00  0.00    +0.000 A 
ATOM     25  C   UNL     1      -0.510  11.151  19.115  0.00  0.00    +0.000 A 
ATOM     26  N   UNL     1       0.276  10.577  18.147  0.00  0.00    +0.000 N 
ATOM     27  H   UNL     1       0.207  10.712  17.150  0.00  0.00    +0.000 HD
ENDBRANCH  16  17
ENDBRANCH  15  16
ENDBRANCH   2  15
TORSDOF 6
ENDMDL
MODEL 9
REMARK VINA RESULT:      -7.0      4.769      8.446
REMARK  Name = 
REMARK  7 active torsions:
REMARK  status: ('A' for Active; 'I' for Inactive)
REMARK    1  A    between atoms: C_1  and  O_2
REMARK    2  A    between atoms: O_2  and  C_3
REMARK    3  A    between atoms: C_3  and  C_5
REMARK    4  A    between atoms: C_10  and  N_11
REMARK    5  A    between atoms: C_12  and  C_14
REMARK    6  A    between atoms: C_14  and  S_15
REMARK    7  A    between atoms: S_15  and  C_16
REMARK                            x       y       z     vdW  Elec       q    Type
REMARK                         _______ _______ _______ _____ _____    ______ ____
ROOT
ATOM      1  N   UNL     1       2.342   6.423  19.196  0.00  0.00    +0.000 N 
ATOM      2  C   UNL     1       1.862   7.583  19.797  0.00  0.00    +0.000 C 
ATOM      3  O   UNL     1       1.450   7.676  20.954  0.00  0.00    +0.000 OA
ATOM      4  H   UNL     1       2.881   6.550  18.341  0.00  0.00    +0.000 HD
ENDROOT
BRANCH   1  10
ATOM      5  C   UNL     1       3.586   4.334  19.662  0.00  0.00    +0.000 A 
ATOM      6  C   UNL     1       3.631   3.074  20.300  0.00  0.00    +0.000 A 
ATOM      7  C   UNL     1       2.548   2.588  21.026  0.00  0.00    +0.000 A 
ATOM      8  C   UNL     1       1.390   3.344  21.103  0.00  0.00    +0.000 A 
ATOM      9  C   UNL     1       1.326   4.591  20.474  0.00  0.00    +0.000 A 
ATOM     10  C   UNL     1       2.419   5.127  19.773  0.00  0.00    +0.000 A 
BRANCH   5  11
ATOM     11  C   UNL     1       4.846   4.699  18.944  0.00  0.00    +0.000 C 
ATOM     12  O   UNL     1       5.953   4.575  19.451  0.00  0.00    +0.000 OA
BRANCH  11  14
ATOM     13  C   UNL     1       4.386   4.122  16.742  0.00  0.00    +0.000 C 
ATOM     14  O   UNL     1       4.628   5.169  17.690  0.00  0.00    +0.000 OA
ENDBRANCH  11  14
ENDBRANCH   5  11
ENDBRANCH   1  10
BRANCH   2  15
ATOM     15  C   UNL     1       1.849   8.795  18.875  0.00  0.00    +0.000 C 
BRANCH  15  16
ATOM     16  S   UNL     1       1.358  10.314  19.741  0.00  0.00    +0.000 S 
BRANCH  16  17
ATOM     17  C   UNL     1      -0.145  10.663  18.982  0.00  0.00    +0.000 A 
ATOM     18  N   UNL     1      -1.147  11.350  19.476  0.00  0.00    +0.000 NA
ATOM     19  C   UNL     1      -2.148  11.213  18.542  0.00  0.00    +0.000 A 
ATOM     20  C   UNL     1      -3.469  11.684  18.571  0.00  0.00    +0.000 A 
ATOM     21  C   UNL     1      -4.304  11.371  17.495  0.00  0.00    +0.000 A 
ATOM     22 BR   UNL     1      -6.101  11.964  17.523  0.00  0.00    +0.000 Br
ATOM     23  C   UNL     1      -3.844  10.619  16.407  0.00  0.00    +0.000 A 
ATOM     24  C   UNL     1      -2.528  10.156  16.354  0.00  0.00    +0.000 A 
ATOM     25  C   UNL     1      -1.715  10.469  17.444  0.00  0.00    +0.000 A 
ATOM     26  N   UNL     1      -0.411  10.163  17.743  0.00  0.00    +0.000 N 
ATOM     27  H   UNL     1       0.226   9.613  17.186  0.00  0.00    +0.000 HD
ENDBRANCH  16  17
ENDBRANCH  15  16
ENDBRANCH   2  15
TORSDOF 6
ENDMDL
