MODEL 1
REMARK VINA RESULT:      -7.4      0.000      0.000
REMARK  Name = 
REMARK  6 active torsions:
REMARK  status: ('A' for Active; 'I' for Inactive)
REMARK    1  A    between atoms: C_5  and  C_6
REMARK    2  A    between atoms: C_6  and  O_7
REMARK    3  A    between atoms: O_7  and  C_8
REMARK    4  A    between atoms: C_12  and  C_13
REMARK    5  A    between atoms: C_13  and  N_14
REMARK    6  A    between atoms: N_14  and  C_15
REMARK                            x       y       z     vdW  Elec       q    Type
REMARK                         _______ _______ _______ _____ _____    ______ ____
ROOT
ATOM      1  C   UNL     1       2.147   6.666  19.603  0.00  0.00    +0.000 A 
ATOM      2  C   UNL     1       2.610   5.365  19.879  0.00  0.00    +0.000 A 
ATOM      3 CL   UNL     1       2.102   4.510  21.299  0.00  0.00    +0.000 Cl
ATOM      4  C   UNL     1       3.506   4.709  19.024  0.00  0.00    +0.000 A 
ATOM      5  C   UNL     1       3.958   5.333  17.859  0.00  0.00    +0.000 A 
ATOM      6  C   UNL     1       3.490   6.615  17.567  0.00  0.00    +0.000 A 
ATOM      7  C   UNL     1       2.583   7.274  18.412  0.00  0.00    +0.000 A 
ATOM      8 CL   UNL     1       2.045   8.805  17.813  0.00  0.00    +0.000 Cl
ENDROOT
BRANCH   1   9
ATOM      9  O   UNL     1       1.260   7.179  20.519  0.00  0.00    +0.000 OA
BRANCH   9  10
ATOM     10  C   UNL     1       1.734   8.191  21.401  0.00  0.00    +0.000 C 
BRANCH  10  15
ATOM     11 CL   UNL     1      -2.420  12.433  22.451  0.00  0.00    +0.000 Cl
ATOM     12  C   UNL     1      -1.254  11.203  22.151  0.00  0.00    +0.000 A 
ATOM     13  C   UNL     1      -0.833  10.376  23.191  0.00  0.00    +0.000 A 
ATOM     14  C   UNL     1       0.118   9.382  22.948  0.00  0.00    +0.000 A 
ATOM     15  C   UNL     1       0.654   9.214  21.665  0.00  0.00    +0.000 A 
ATOM     16  C   UNL     1       0.220  10.055  20.628  0.00  0.00    +0.000 A 
ATOM     17  C   UNL     1      -0.733  11.046  20.870  0.00  0.00    +0.000 A 
ENDBRANCH  10  15
ENDBRANCH   9  10
ENDBRANCH   1   9
BRANCH   5  18
ATOM     18  C   UNL     1       4.929   4.647  16.929  0.00  0.00    +0.000 C 
BRANCH  18  19
ATOM     19  N   UNL     1       5.749   5.624  16.218  0.00  0.00    +0.000 NA
ATOM     20  H   UNL     1       5.212   6.483  16.094  0.00  0.00    +0.000 HD
BRANCH  19  21
ATOM     21  C   UNL     1       6.984   5.929  16.930  0.00  0.00    +0.000 C 
ATOM     22  C   UNL     1       7.088   7.360  17.452  0.00  0.00    +0.000 C 
ATOM     23  C   UNL     1       8.206   7.275  18.482  0.00  0.00    +0.000 C 
ATOM     24  C   UNL     1       8.123   5.863  19.064  0.00  0.00    +0.000 C 
ATOM     25  C   UNL     1       7.098   5.111  18.216  0.00  0.00    +0.000 C 
ENDBRANCH  19  21
ENDBRANCH  18  19
ENDBRANCH   5  18
TORSDOF 6
ENDMDL
MODEL 2
REMARK VINA RESULT:      -7.4      0.366      1.030
REMARK  Name = 
REMARK  6 active torsions:
REMARK  status: ('A' for Active; 'I' for Inactive)
REMARK    1  A    between atoms: C_5  and  C_6
REMARK    2  A    between atoms: C_6  and  O_7
REMARK    3  A    between atoms: O_7  and  C_8
REMARK    4  A    between atoms: C_12  and  C_13
REMARK    5  A    between atoms: C_13  and  N_14
REMARK    6  A    between atoms: N_14  and  C_15
REMARK                            x       y       z     vdW  Elec       q    Type
REMARK                         _______ _______ _______ _____ _____    ______ ____
ROOT
ATOM      1  C   UNL     1       2.098   7.004  19.615  0.00  0.00    +0.000 A 
ATOM      2  C   UNL     1       2.521   5.675  19.815  0.00  0.00    +0.000 A 
ATOM      3 CL   UNL     1       2.007   4.764  21.198  0.00  0.00    +0.000 Cl
ATOM      4  C   UNL     1       3.381   5.036  18.912  0.00  0.00    +0.000 A 
ATOM      5  C   UNL     1       3.836   5.706  17.774  0.00  0.00    +0.000 A 
ATOM      6  C   UNL     1       3.407   7.016  17.558  0.00  0.00    +0.000 A 
ATOM      7  C   UNL     1       2.536   7.659  18.451  0.00  0.00    +0.000 A 
ATOM      8 CL   UNL     1       2.041   9.237  17.942  0.00  0.00    +0.000 Cl
ENDROOT
BRANCH   1   9
ATOM      9  O   UNL     1       1.243   7.497  20.573  0.00  0.00    +0.000 OA
BRANCH   9  10
ATOM     10  C   UNL     1       1.775   8.412  21.524  0.00  0.00    +0.000 C 
BRANCH  10  15
ATOM     11 CL   UNL     1      -2.364  12.654  22.634  0.00  0.00    +0.000 Cl
ATOM     12  C   UNL     1      -1.163  11.460  22.326  0.00  0.00    +0.000 A 
ATOM     13  C   UNL     1      -0.372  11.549  21.181  0.00  0.00    +0.000 A 
ATOM     14  C   UNL     1       0.598  10.576  20.928  0.00  0.00    +0.000 A 
ATOM     15  C   UNL     1       0.779   9.510  21.819  0.00  0.00    +0.000 A 
ATOM     16  C   UNL     1      -0.025   9.434  22.967  0.00  0.00    +0.000 A 
ATOM     17  C   UNL     1      -0.992  10.408  23.221  0.00  0.00    +0.000 A 
ENDBRANCH  10  15
ENDBRANCH   9  10
ENDBRANCH   1   9
BRANCH   5  18
ATOM     18  C   UNL     1       4.769   5.039  16.792  0.00  0.00    +0.000 C 
BRANCH  18  19
ATOM     19  N   UNL     1       5.643   6.019  16.154  0.00  0.00    +0.000 NA
ATOM     20  H   UNL     1       5.160   6.916  16.107  0.00  0.00    +0.000 HD
BRANCH  19  21
ATOM     21  C   UNL     1       6.900   6.187  16.874  0.00  0.00    +0.000 C 
ATOM     22  C   UNL     1       7.094   7.560  17.514  0.00  0.00    +0.000 C 
ATOM     23  C   UNL     1       8.212   7.321  18.519  0.00  0.00    +0.000 C 
ATOM     24  C   UNL     1       8.048   5.872  18.980  0.00  0.00    +0.000 C 
ATOM     25  C   UNL     1       6.973   5.257  18.084  0.00  0.00    +0.000 C 
ENDBRANCH  19  21
ENDBRANCH  18  19
ENDBRANCH   5  18
TORSDOF 6
ENDMDL
MODEL 3
REMARK VINA RESULT:      -7.3      3.083      8.332
REMARK  Name = 
REMARK  6 active torsions:
REMARK  status: ('A' for Active; 'I' for Inactive)
REMARK    1  A    between atoms: C_5  and  C_6
REMARK    2  A    between atoms: C_6  and  O_7
REMARK    3  A    between atoms: O_7  and  C_8
REMARK    4  A    between atoms: C_12  and  C_13
REMARK    5  A    between atoms: C_13  and  N_14
REMARK    6  A    between atoms: N_14  and  C_15
REMARK                            x       y       z     vdW  Elec       q    Type
REMARK                         _______ _______ _______ _____ _____    ______ ____
ROOT
ATOM      1  C   UNL     1       3.197   4.947  18.909  0.00  0.00    +0.000 A 
ATOM      2  C   UNL     1       2.520   4.504  20.061  0.00  0.00    +0.000 A 
ATOM      3 CL   UNL     1       2.597   2.849  20.572  0.00  0.00    +0.000 Cl
ATOM      4  C   UNL     1       1.749   5.377  20.840  0.00  0.00    +0.000 A 
ATOM      5  C   UNL     1       1.641   6.727  20.493  0.00  0.00    +0.000 A 
ATOM      6  C   UNL     1       2.324   7.179  19.363  0.00  0.00    +0.000 A 
ATOM      7  C   UNL     1       3.108   6.313  18.585  0.00  0.00    +0.000 A 
ATOM      8 CL   UNL     1       3.956   7.095  17.296  0.00  0.00    +0.000 Cl
ENDROOT
BRANCH   1   9
ATOM      9  O   UNL     1       3.927   3.985  18.252  0.00  0.00    +0.000 OA
BRANCH   9  10
ATOM     10  C   UNL     1       5.345   4.109  18.266  0.00  0.00    +0.000 C 
BRANCH  10  15
ATOM     11 CL   UNL     1       7.466   4.946  12.685  0.00  0.00    +0.000 Cl
ATOM     12  C   UNL     1       6.856   4.734  14.279  0.00  0.00    +0.000 A 
ATOM     13  C   UNL     1       7.660   5.039  15.377  0.00  0.00    +0.000 A 
ATOM     14  C   UNL     1       7.166   4.861  16.672  0.00  0.00    +0.000 A 
ATOM     15  C   UNL     1       5.868   4.374  16.873  0.00  0.00    +0.000 A 
ATOM     16  C   UNL     1       5.071   4.071  15.757  0.00  0.00    +0.000 A 
ATOM     17  C   UNL     1       5.564   4.252  14.464  0.00  0.00    +0.000 A 
ENDBRANCH  10  15
ENDBRANCH   9  10
ENDBRANCH   1   9
BRANCH   5  18
ATOM     18  C   UNL     1       0.809   7.683  21.314  0.00  0.00    +0.000 C 
BRANCH  18  19
ATOM     19  N   UNL     1       1.660   8.611  22.054  0.00  0.00    +0.000 NA
ATOM     20  H   UNL     1       2.494   8.812  21.501  0.00  0.00    +0.000 HD
BRANCH  19  21
ATOM     21  C   UNL     1       0.974   9.860  22.362  0.00  0.00    +0.000 C 
ATOM     22  C   UNL     1       0.387  10.584  21.153  0.00  0.00    +0.000 C 
ATOM     23  C   UNL     1      -0.602  11.559  21.777  0.00  0.00    +0.000 C 
ATOM     24  C   UNL     1      -1.116  10.871  23.042  0.00  0.00    +0.000 C 
ATOM     25  C   UNL     1      -0.266   9.614  23.220  0.00  0.00    +0.000 C 
ENDBRANCH  19  21
ENDBRANCH  18  19
ENDBRANCH   5  18
TORSDOF 6
ENDMDL
MODEL 4
REMARK VINA RESULT:      -7.3      3.088      8.411
REMARK  Name = 
REMARK  6 active torsions:
REMARK  status: ('A' for Active; 'I' for Inactive)
REMARK    1  A    between atoms: C_5  and  C_6
REMARK    2  A    between atoms: C_6  and  O_7
REMARK    3  A    between atoms: O_7  and  C_8
REMARK    4  A    between atoms: C_12  and  C_13
REMARK    5  A    between atoms: C_13  and  N_14
REMARK    6  A    between atoms: N_14  and  C_15
REMARK                            x       y       z     vdW  Elec       q    Type
REMARK                         _______ _______ _______ _____ _____    ______ ____
ROOT
ATOM      1  C   UNL     1       2.768   5.190  18.659  0.00  0.00    +0.000 A 
ATOM      2  C   UNL     1       2.048   4.851  19.821  0.00  0.00    +0.000 A 
ATOM      3 CL   UNL     1       1.737   3.197  20.237  0.00  0.00    +0.000 Cl
ATOM      4  C   UNL     1       1.546   5.832  20.686  0.00  0.00    +0.000 A 
ATOM      5  C   UNL     1       1.760   7.187  20.418  0.00  0.00    +0.000 A 
ATOM      6  C   UNL     1       2.488   7.533  19.279  0.00  0.00    +0.000 A 
ATOM      7  C   UNL     1       3.004   6.555  18.415  0.00  0.00    +0.000 A 
ATOM      8 CL   UNL     1       3.968   7.190  17.125  0.00  0.00    +0.000 Cl
ENDROOT
BRANCH   1   9
ATOM      9  O   UNL     1       3.213   4.125  17.914  0.00  0.00    +0.000 OA
BRANCH   9  10
ATOM     10  C   UNL     1       4.565   3.715  18.090  0.00  0.00    +0.000 C 
BRANCH  10  15
ATOM     11 CL   UNL     1       7.807   5.305  13.261  0.00  0.00    +0.000 Cl
ATOM     12  C   UNL     1       6.888   4.825  14.634  0.00  0.00    +0.000 A 
ATOM     13  C   UNL     1       5.596   4.327  14.466  0.00  0.00    +0.000 A 
ATOM     14  C   UNL     1       4.847   3.943  15.582  0.00  0.00    +0.000 A 
ATOM     15  C   UNL     1       5.387   4.059  16.869  0.00  0.00    +0.000 A 
ATOM     16  C   UNL     1       6.689   4.563  17.022  0.00  0.00    +0.000 A 
ATOM     17  C   UNL     1       7.438   4.943  15.908  0.00  0.00    +0.000 A 
ENDBRANCH  10  15
ENDBRANCH   9  10
ENDBRANCH   1   9
BRANCH   5  18
ATOM     18  C   UNL     1       1.220   8.261  21.332  0.00  0.00    +0.000 C 
BRANCH  18  19
ATOM     19  N   UNL     1       0.606   9.340  20.564  0.00  0.00    +0.000 NA
ATOM     20  H   UNL     1      -0.195   8.970  20.052  0.00  0.00    +0.000 HD
BRANCH  19  21
ATOM     21  C   UNL     1       0.167  10.440  21.414  0.00  0.00    +0.000 C 
ATOM     22  C   UNL     1      -0.872  11.364  20.781  0.00  0.00    +0.000 C 
ATOM     23  C   UNL     1      -1.451  12.108  21.977  0.00  0.00    +0.000 C 
ATOM     24  C   UNL     1      -1.375  11.126  23.147  0.00  0.00    +0.000 C 
ATOM     25  C   UNL     1      -0.574   9.925  22.647  0.00  0.00    +0.000 C 
ENDBRANCH  19  21
ENDBRANCH  18  19
ENDBRANCH   5  18
TORSDOF 6
ENDMDL
MODEL 5
REMARK VINA RESULT:      -7.2      0.192      2.123
REMARK  Name = 
REMARK  6 active torsions:
REMARK  status: ('A' for Active; 'I' for Inactive)
REMARK    1  A    between atoms: C_5  and  C_6
REMARK    2  A    between atoms: C_6  and  O_7
REMARK    3  A    between atoms: O_7  and  C_8
REMARK    4  A    between atoms: C_12  and  C_13
REMARK    5  A    between atoms: C_13  and  N_14
REMARK    6  A    between atoms: N_14  and  C_15
REMARK                            x       y       z     vdW  Elec       q    Type
REMARK                         _______ _______ _______ _____ _____    ______ ____
ROOT
ATOM      1  C   UNL     1       2.103   6.630  19.556  0.00  0.00    +0.000 A 
ATOM      2  C   UNL     1       2.606   7.226  18.383  0.00  0.00    +0.000 A 
ATOM      3 CL   UNL     1       2.086   8.801  17.877  0.00  0.00    +0.000 Cl
ATOM      4  C   UNL     1       3.540   6.570  17.570  0.00  0.00    +0.000 A 
ATOM      5  C   UNL     1       4.008   5.299  17.914  0.00  0.00    +0.000 A 
ATOM      6  C   UNL     1       3.529   4.709  19.084  0.00  0.00    +0.000 A 
ATOM      7  C   UNL     1       2.603   5.365  19.910  0.00  0.00    +0.000 A 
ATOM      8 CL   UNL     1       2.224   4.508  21.365  0.00  0.00    +0.000 Cl
ENDROOT
BRANCH   1   9
ATOM      9  O   UNL     1       1.205   7.395  20.262  0.00  0.00    +0.000 OA
BRANCH   9  10
ATOM     10  C   UNL     1       1.698   8.129  21.378  0.00  0.00    +0.000 C 
BRANCH  10  15
ATOM     11 CL   UNL     1      -2.172  12.571  22.661  0.00  0.00    +0.000 Cl
ATOM     12  C   UNL     1      -1.047  11.320  22.300  0.00  0.00    +0.000 A 
ATOM     13  C   UNL     1      -0.400  11.303  21.065  0.00  0.00    +0.000 A 
ATOM     14  C   UNL     1       0.509  10.284  20.770  0.00  0.00    +0.000 A 
ATOM     15  C   UNL     1       0.771   9.277  21.708  0.00  0.00    +0.000 A 
ATOM     16  C   UNL     1       0.111   9.308  22.947  0.00  0.00    +0.000 A 
ATOM     17  C   UNL     1      -0.794  10.328  23.242  0.00  0.00    +0.000 A 
ENDBRANCH  10  15
ENDBRANCH   9  10
ENDBRANCH   1   9
BRANCH   5  18
ATOM     18  C   UNL     1       5.008   4.572  17.048  0.00  0.00    +0.000 C 
BRANCH  18  19
ATOM     19  N   UNL     1       5.820   5.515  16.285  0.00  0.00    +0.000 NA
ATOM     20  H   UNL     1       5.268   6.351  16.093  0.00  0.00    +0.000 HD
BRANCH  19  21
ATOM     21  C   UNL     1       7.036   5.895  16.995  0.00  0.00    +0.000 C 
ATOM     22  C   UNL     1       7.098   7.360  17.422  0.00  0.00    +0.000 C 
ATOM     23  C   UNL     1       8.200   7.369  18.474  0.00  0.00    +0.000 C 
ATOM     24  C   UNL     1       8.138   5.997  19.146  0.00  0.00    +0.000 C 
ATOM     25  C   UNL     1       7.145   5.167  18.334  0.00  0.00    +0.000 C 
ENDBRANCH  19  21
ENDBRANCH  18  19
ENDBRANCH   5  18
TORSDOF 6
ENDMDL
MODEL 6
REMARK VINA RESULT:      -7.2      3.112      8.230
REMARK  Name = 
REMARK  6 active torsions:
REMARK  status: ('A' for Active; 'I' for Inactive)
REMARK    1  A    between atoms: C_5  and  C_6
REMARK    2  A    between atoms: C_6  and  O_7
REMARK    3  A    between atoms: O_7  and  C_8
REMARK    4  A    between atoms: C_12  and  C_13
REMARK    5  A    between atoms: C_13  and  N_14
REMARK    6  A    between atoms: N_14  and  C_15
REMARK                            x       y       z     vdW  Elec       q    Type
REMARK                         _______ _______ _______ _____ _____    ______ ____
ROOT
ATOM      1  C   UNL     1       2.889   5.278  18.931  0.00  0.00    +0.000 A 
ATOM      2  C   UNL     1       2.161   5.002  20.105  0.00  0.00    +0.000 A 
ATOM      3 CL   UNL     1       1.993   3.383  20.701  0.00  0.00    +0.000 Cl
ATOM      4  C   UNL     1       1.536   6.021  20.836  0.00  0.00    +0.000 A 
ATOM      5  C   UNL     1       1.629   7.351  20.418  0.00  0.00    +0.000 A 
ATOM      6  C   UNL     1       2.364   7.636  19.267  0.00  0.00    +0.000 A 
ATOM      7  C   UNL     1       3.003   6.623  18.536  0.00  0.00    +0.000 A 
ATOM      8 CL   UNL     1       3.949   7.201  17.207  0.00  0.00    +0.000 Cl
ENDROOT
BRANCH   1   9
ATOM      9  O   UNL     1       3.461   4.185  18.326  0.00  0.00    +0.000 OA
BRANCH   9  10
ATOM     10  C   UNL     1       4.871   4.027  18.445  0.00  0.00    +0.000 C 
BRANCH  10  15
ATOM     11 CL   UNL     1       7.621   5.027  13.173  0.00  0.00    +0.000 Cl
ATOM     12  C   UNL     1       6.831   4.769  14.680  0.00  0.00    +0.000 A 
ATOM     13  C   UNL     1       7.510   5.019  15.872  0.00  0.00    +0.000 A 
ATOM     14  C   UNL     1       6.871   4.802  17.095  0.00  0.00    +0.000 A 
ATOM     15  C   UNL     1       5.552   4.333  17.130  0.00  0.00    +0.000 A 
ATOM     16  C   UNL     1       4.882   4.086  15.921  0.00  0.00    +0.000 A 
ATOM     17  C   UNL     1       5.519   4.305  14.700  0.00  0.00    +0.000 A 
ENDBRANCH  10  15
ENDBRANCH   9  10
ENDBRANCH   1   9
BRANCH   5  18
ATOM     18  C   UNL     1       0.957   8.463  21.188  0.00  0.00    +0.000 C 
BRANCH  18  19
ATOM     19  N   UNL     1       0.963   9.705  20.421  0.00  0.00    +0.000 NA
ATOM     20  H   UNL     1       1.608   9.610  19.637  0.00  0.00    +0.000 HD
BRANCH  19  21
ATOM     21  C   UNL     1      -0.361  10.047  19.915  0.00  0.00    +0.000 C 
ATOM     22  C   UNL     1      -0.872  11.424  20.332  0.00  0.00    +0.000 C 
ATOM     23  C   UNL     1      -2.007  11.687  19.352  0.00  0.00    +0.000 C 
ATOM     24  C   UNL     1      -1.608  10.973  18.060  0.00  0.00    +0.000 C 
ATOM     25  C   UNL     1      -0.360  10.155  18.391  0.00  0.00    +0.000 C 
ENDBRANCH  19  21
ENDBRANCH  18  19
ENDBRANCH   5  18
TORSDOF 6
ENDMDL
MODEL 7
REMARK VINA RESULT:      -7.2      0.493      1.938
REMARK  Name = 
REMARK  6 active torsions:
REMARK  status: ('A' for Active; 'I' for Inactive)
REMARK    1  A    between atoms: C_5  and  C_6
REMARK    2  A    between atoms: C_6  and  O_7
REMARK    3  A    between atoms: O_7  and  C_8
REMARK    4  A    between atoms: C_12  and  C_13
REMARK    5  A    between atoms: C_13  and  N_14
REMARK    6  A    between atoms: N_14  and  C_15
REMARK                            x       y       z     vdW  Elec       q    Type
REMARK                         _______ _______ _______ _____ _____    ______ ____
ROOT
ATOM      1  C   UNL     1       2.082   7.005  19.370  0.00  0.00    +0.000 A 
ATOM      2  C   UNL     1       2.616   7.626  18.224  0.00  0.00    +0.000 A 
ATOM      3 CL   UNL     1       2.121   9.218  17.747  0.00  0.00    +0.000 Cl
ATOM      4  C   UNL     1       3.562   6.983  17.416  0.00  0.00    +0.000 A 
ATOM      5  C   UNL     1       4.011   5.699  17.737  0.00  0.00    +0.000 A 
ATOM      6  C   UNL     1       3.502   5.084  18.881  0.00  0.00    +0.000 A 
ATOM      7  C   UNL     1       2.563   5.727  19.702  0.00  0.00    +0.000 A 
ATOM      8 CL   UNL     1       2.145   4.837  21.127  0.00  0.00    +0.000 Cl
ENDROOT
BRANCH   1   9
ATOM      9  O   UNL     1       1.175   7.760  20.076  0.00  0.00    +0.000 OA
BRANCH   9  10
ATOM     10  C   UNL     1       1.613   8.345  21.297  0.00  0.00    +0.000 C 
BRANCH  10  15
ATOM     11 CL   UNL     1      -1.930  12.896  23.056  0.00  0.00    +0.000 Cl
ATOM     12  C   UNL     1      -0.940  11.585  22.543  0.00  0.00    +0.000 A 
ATOM     13  C   UNL     1      -0.952  10.386  23.254  0.00  0.00    +0.000 A 
ATOM     14  C   UNL     1      -0.144   9.324  22.841  0.00  0.00    +0.000 A 
ATOM     15  C   UNL     1       0.681   9.459  21.716  0.00  0.00    +0.000 A 
ATOM     16  C   UNL     1       0.681  10.673  21.011  0.00  0.00    +0.000 A 
ATOM     17  C   UNL     1      -0.128  11.732  21.422  0.00  0.00    +0.000 A 
ENDBRANCH  10  15
ENDBRANCH   9  10
ENDBRANCH   1   9
BRANCH   5  18
ATOM     18  C   UNL     1       5.025   4.985  16.875  0.00  0.00    +0.000 C 
BRANCH  18  19
ATOM     19  N   UNL     1       5.892   5.939  16.190  0.00  0.00    +0.000 NA
ATOM     20  H   UNL     1       5.378   6.808  16.039  0.00  0.00    +0.000 HD
BRANCH  19  21
ATOM     21  C   UNL     1       7.104   6.224  16.949  0.00  0.00    +0.000 C 
ATOM     22  C   UNL     1       7.199   7.647  17.496  0.00  0.00    +0.000 C 
ATOM     23  C   UNL     1       8.280   7.539  18.563  0.00  0.00    +0.000 C 
ATOM     24  C   UNL     1       8.168   6.119  19.119  0.00  0.00    +0.000 C 
ATOM     25  C   UNL     1       7.168   5.387  18.225  0.00  0.00    +0.000 C 
ENDBRANCH  19  21
ENDBRANCH  18  19
ENDBRANCH   5  18
TORSDOF 6
ENDMDL
MODEL 8
REMARK VINA RESULT:      -7.1      3.754      8.166
REMARK  Name = 
REMARK  6 active torsions:
REMARK  status: ('A' for Active; 'I' for Inactive)
REMARK    1  A    between atoms: C_5  and  C_6
REMARK    2  A    between atoms: C_6  and  O_7
REMARK    3  A    between atoms: O_7  and  C_8
REMARK    4  A    between atoms: C_12  and  C_13
REMARK    5  A    between atoms: C_13  and  N_14
REMARK    6  A    between atoms: N_14  and  C_15
REMARK                            x       y       z     vdW  Elec       q    Type
REMARK                         _______ _______ _______ _____ _____    ______ ____
ROOT
ATOM      1  C   UNL     1       1.140   8.877  20.179  0.00  0.00    +0.000 A 
ATOM      2  C   UNL     1       1.242   9.306  18.842  0.00  0.00    +0.000 A 
ATOM      3 CL   UNL     1       2.321   8.532  17.727  0.00  0.00    +0.000 Cl
ATOM      4  C   UNL     1       0.484  10.380  18.356  0.00  0.00    +0.000 A 
ATOM      5  C   UNL     1      -0.409  11.052  19.195  0.00  0.00    +0.000 A 
ATOM      6  C   UNL     1      -0.530  10.622  20.517  0.00  0.00    +0.000 A 
ATOM      7  C   UNL     1       0.217   9.540  21.007  0.00  0.00    +0.000 A 
ATOM      8 CL   UNL     1      -0.164   9.100  22.637  0.00  0.00    +0.000 Cl
ENDROOT
BRANCH   1   9
ATOM      9  O   UNL     1       1.931   7.803  20.512  0.00  0.00    +0.000 OA
BRANCH   9  10
ATOM     10  C   UNL     1       1.282   6.624  20.975  0.00  0.00    +0.000 C 
BRANCH  10  15
ATOM     11 CL   UNL     1       3.541   1.681  18.366  0.00  0.00    +0.000 Cl
ATOM     12  C   UNL     1       2.921   3.097  19.121  0.00  0.00    +0.000 A 
ATOM     13  C   UNL     1       2.619   3.083  20.482  0.00  0.00    +0.000 A 
ATOM     14  C   UNL     1       2.109   4.232  21.094  0.00  0.00    +0.000 A 
ATOM     15  C   UNL     1       1.898   5.397  20.345  0.00  0.00    +0.000 A 
ATOM     16  C   UNL     1       2.207   5.394  18.975  0.00  0.00    +0.000 A 
ATOM     17  C   UNL     1       2.718   4.248  18.366  0.00  0.00    +0.000 A 
ENDBRANCH  10  15
ENDBRANCH   9  10
ENDBRANCH   1   9
BRANCH   5  18
ATOM     18  C   UNL     1      -1.229  12.217  18.694  0.00  0.00    +0.000 C 
BRANCH  18  19
ATOM     19  N   UNL     1      -2.657  11.933  18.803  0.00  0.00    +0.000 NA
ATOM     20  H   UNL     1      -3.153  12.797  19.027  0.00  0.00    +0.000 HD
BRANCH  19  21
ATOM     21  C   UNL     1      -3.202  11.372  17.573  0.00  0.00    +0.000 C 
ATOM     22  C   UNL     1      -2.376  11.651  16.319  0.00  0.00    +0.000 C 
ATOM     23  C   UNL     1      -2.901  10.628  15.321  0.00  0.00    +0.000 C 
ATOM     24  C   UNL     1      -3.315   9.415  16.154  0.00  0.00    +0.000 C 
ATOM     25  C   UNL     1      -3.208   9.844  17.617  0.00  0.00    +0.000 C 
ENDBRANCH  19  21
ENDBRANCH  18  19
ENDBRANCH   5  18
TORSDOF 6
ENDMDL
MODEL 9
REMARK VINA RESULT:      -7.1      3.498      8.189
REMARK  Name = 
REMARK  6 active torsions:
REMARK  status: ('A' for Active; 'I' for Inactive)
REMARK    1  A    between atoms: C_5  and  C_6
REMARK    2  A    between atoms: C_6  and  O_7
REMARK    3  A    between atoms: O_7  and  C_8
REMARK    4  A    between atoms: C_12  and  C_13
REMARK    5  A    between atoms: C_13  and  N_14
REMARK    6  A    between atoms: N_14  and  C_15
REMARK                            x       y       z     vdW  Elec       q    Type
REMARK                         _______ _______ _______ _____ _____    ______ ____
ROOT
ATOM      1  C   UNL     1       1.382   8.927  20.216  0.00  0.00    +0.000 A 
ATOM      2  C   UNL     1       1.505   9.356  18.880  0.00  0.00    +0.000 A 
ATOM      3 CL   UNL     1       2.397   8.432  17.715  0.00  0.00    +0.000 Cl
ATOM      4  C   UNL     1       0.921  10.550  18.437  0.00  0.00    +0.000 A 
ATOM      5  C   UNL     1       0.185  11.347  19.318  0.00  0.00    +0.000 A 
ATOM      6  C   UNL     1       0.042  10.921  20.638  0.00  0.00    +0.000 A 
ATOM      7  C   UNL     1       0.614   9.720  21.087  0.00  0.00    +0.000 A 
ATOM      8 CL   UNL     1       0.225   9.322  22.725  0.00  0.00    +0.000 Cl
ENDROOT
BRANCH   1   9
ATOM      9  O   UNL     1       1.993   7.731  20.506  0.00  0.00    +0.000 OA
BRANCH   9  10
ATOM     10  C   UNL     1       1.159   6.630  20.850  0.00  0.00    +0.000 C 
BRANCH  10  15
ATOM     11 CL   UNL     1       3.402   1.546  18.511  0.00  0.00    +0.000 Cl
ATOM     12  C   UNL     1       2.770   2.988  19.203  0.00  0.00    +0.000 A 
ATOM     13  C   UNL     1       1.546   2.961  19.870  0.00  0.00    +0.000 A 
ATOM     14  C   UNL     1       1.030   4.134  20.426  0.00  0.00    +0.000 A 
ATOM     15  C   UNL     1       1.736   5.339  20.315  0.00  0.00    +0.000 A 
ATOM     16  C   UNL     1       2.967   5.350  19.640  0.00  0.00    +0.000 A 
ATOM     17  C   UNL     1       3.483   4.178  19.087  0.00  0.00    +0.000 A 
ENDBRANCH  10  15
ENDBRANCH   9  10
ENDBRANCH   1   9
BRANCH   5  18
ATOM     18  C   UNL     1      -0.446  12.641  18.862  0.00  0.00    +0.000 C 
BRANCH  18  19
ATOM     19  N   UNL     1      -1.242  12.436  17.655  0.00  0.00    +0.000 NA
ATOM     20  H   UNL     1      -0.616  12.257  16.869  0.00  0.00    +0.000 HD
BRANCH  19  21
ATOM     21  C   UNL     1      -2.172  11.322  17.791  0.00  0.00    +0.000 C 
ATOM     22  C   UNL     1      -3.619  11.725  18.067  0.00  0.00    +0.000 C 
ATOM     23  C   UNL     1      -4.402  10.463  17.731  0.00  0.00    +0.000 C 
ATOM     24  C   UNL     1      -3.614   9.774  16.617  0.00  0.00    +0.000 C 
ATOM     25  C   UNL     1      -2.301  10.545  16.482  0.00  0.00    +0.000 C 
ENDBRANCH  19  21
ENDBRANCH  18  19
ENDBRANCH   5  18
TORSDOF 6
ENDMDL
