MODEL 1
REMARK VINA RESULT:      -7.5      0.000      0.000
REMARK  Name = 
REMARK  10 active torsions:
REMARK  status: ('A' for Active; 'I' for Inactive)
REMARK    1  A    between atoms: C_1  and  C_2
REMARK    2  A    between atoms: C_8  and  N_9
REMARK    3  A    between atoms: C_10  and  C_12
REMARK    4  A    between atoms: C_14  and  C_15
REMARK    5  A    between atoms: C_16  and  C_17
REMARK    6  A    between atoms: C_19  and  C_20
REMARK    7  A    between atoms: N_22  and  C_23
REMARK    8  A    between atoms: C_23  and  C_24
REMARK    9  A    between atoms: C_23  and  C_25
REMARK   10  A    between atoms: C_23  and  C_26
REMARK                            x       y       z     vdW  Elec       q    Type
REMARK                         _______ _______ _______ _____ _____    ______ ____
ROOT
ATOM      1  C   UNL     1       2.399   7.629  18.982  0.00  0.00    +0.000 A 
ATOM      2  N   UNL     1       2.040   8.953  18.929  0.00  0.00    +0.000 NA
ATOM      3  C   UNL     1       1.165   9.393  19.870  0.00  0.00    +0.000 A 
ATOM      4  C   UNL     1       0.769  10.834  19.765  0.00  0.00    +0.000 C 
ATOM      5  C   UNL     1       0.682   8.544  20.872  0.00  0.00    +0.000 A 
ATOM      6  C   UNL     1      -0.125   9.034  22.037  0.00  0.00    +0.000 C 
ATOM      7  N   UNL     1       1.005   7.222  20.903  0.00  0.00    +0.000 NA
ATOM      8  C   UNL     1       1.887   6.772  19.949  0.00  0.00    +0.000 A 
ENDROOT
BRANCH   1  10
ATOM      9  N   UNL     1       4.253   6.247  18.269  0.00  0.00    +0.000 N 
ATOM     10  C   UNL     1       3.337   7.232  17.887  0.00  0.00    +0.000 C 
ATOM     11  O   UNL     1       3.321   7.833  16.821  0.00  0.00    +0.000 OA
ATOM     12  H   UNL     1       4.296   6.077  19.270  0.00  0.00    +0.000 HD
BRANCH   9  20
ATOM     13  C   UNL     1       6.938   5.544  19.330  0.00  0.00    +0.000 C 
ATOM     14  C   UNL     1       6.487   5.277  17.918  0.00  0.00    +0.000 A 
ATOM     15  C   UNL     1       7.431   4.701  17.041  0.00  0.00    +0.000 A 
ATOM     16  C   UNL     1       7.081   4.354  15.739  0.00  0.00    +0.000 A 
ATOM     17  C   UNL     1       5.784   4.580  15.301  0.00  0.00    +0.000 A 
ATOM     18 CL   UNL     1       5.319   4.071  13.724  0.00  0.00    +0.000 Cl
ATOM     19  C   UNL     1       4.854   5.202  16.134  0.00  0.00    +0.000 A 
ATOM     20  C   UNL     1       5.194   5.590  17.437  0.00  0.00    +0.000 A 
ENDBRANCH   9  20
ENDBRANCH   1  10
BRANCH   8  21
ATOM     21  C   UNL     1       2.325   5.358  20.160  0.00  0.00    +0.000 C 
ATOM     22  O   UNL     1       3.328   5.096  20.800  0.00  0.00    +0.000 OA
ATOM     23  N   UNL     1       1.460   4.390  19.654  0.00  0.00    +0.000 N 
ATOM     24  H   UNL     1       0.570   4.743  19.307  0.00  0.00    +0.000 HD
BRANCH  23  25
ATOM     25  C   UNL     1       1.657   2.932  19.744  0.00  0.00    +0.000 C 
ATOM     26  C   UNL     1       0.641   2.175  18.872  0.00  0.00    +0.000 C 
ATOM     27  C   UNL     1       3.071   2.578  19.239  0.00  0.00    +0.000 C 
ATOM     28  C   UNL     1       1.550   2.458  21.203  0.00  0.00    +0.000 C 
ENDBRANCH  23  25
ENDBRANCH   8  21
TORSDOF 4
ENDMDL
MODEL 2
REMARK VINA RESULT:      -7.2      3.873      6.808
REMARK  Name = 
REMARK  10 active torsions:
REMARK  status: ('A' for Active; 'I' for Inactive)
REMARK    1  A    between atoms: C_1  and  C_2
REMARK    2  A    between atoms: C_8  and  N_9
REMARK    3  A    between atoms: C_10  and  C_12
REMARK    4  A    between atoms: C_14  and  C_15
REMARK    5  A    between atoms: C_16  and  C_17
REMARK    6  A    between atoms: C_19  and  C_20
REMARK    7  A    between atoms: N_22  and  C_23
REMARK    8  A    between atoms: C_23  and  C_24
REMARK    9  A    between atoms: C_23  and  C_25
REMARK   10  A    between atoms: C_23  and  C_26
REMARK                            x       y       z     vdW  Elec       q    Type
REMARK                         _______ _______ _______ _____ _____    ______ ____
ROOT
ATOM      1  C   UNL     1       0.605  11.683  18.569  0.00  0.00    +0.000 A 
ATOM      2  N   UNL     1       1.821  12.259  18.842  0.00  0.00    +0.000 NA
ATOM      3  C   UNL     1       1.852  13.612  18.949  0.00  0.00    +0.000 A 
ATOM      4  C   UNL     1       3.200  14.212  19.215  0.00  0.00    +0.000 C 
ATOM      5  C   UNL     1       0.691  14.382  18.825  0.00  0.00    +0.000 A 
ATOM      6  C   UNL     1       0.648  15.850  19.129  0.00  0.00    +0.000 C 
ATOM      7  N   UNL     1      -0.508  13.818  18.514  0.00  0.00    +0.000 NA
ATOM      8  C   UNL     1      -0.543  12.448  18.402  0.00  0.00    +0.000 A 
ENDROOT
BRANCH   1  10
ATOM      9  N   UNL     1       1.785   9.634  19.081  0.00  0.00    +0.000 N 
ATOM     10  C   UNL     1       0.678  10.195  18.436  0.00  0.00    +0.000 C 
ATOM     11  O   UNL     1      -0.122   9.605  17.724  0.00  0.00    +0.000 OA
ATOM     12  H   UNL     1       2.487  10.307  19.377  0.00  0.00    +0.000 HD
BRANCH   9  20
ATOM     13  C   UNL     1       0.746   8.137  21.429  0.00  0.00    +0.000 C 
ATOM     14  C   UNL     1       1.614   7.536  20.356  0.00  0.00    +0.000 A 
ATOM     15  C   UNL     1       1.991   6.185  20.518  0.00  0.00    +0.000 A 
ATOM     16  C   UNL     1       2.733   5.526  19.542  0.00  0.00    +0.000 A 
ATOM     17  C   UNL     1       3.105   6.211  18.394  0.00  0.00    +0.000 A 
ATOM     18 CL   UNL     1       3.944   5.378  17.143  0.00  0.00    +0.000 Cl
ATOM     19  C   UNL     1       2.793   7.562  18.243  0.00  0.00    +0.000 A 
ATOM     20  C   UNL     1       2.075   8.254  19.228  0.00  0.00    +0.000 A 
ENDBRANCH   9  20
ENDBRANCH   1  10
BRANCH   8  21
ATOM     21  C   UNL     1      -1.923  11.896  18.236  0.00  0.00    +0.000 C 
ATOM     22  O   UNL     1      -2.727  11.919  19.153  0.00  0.00    +0.000 OA
ATOM     23  N   UNL     1      -2.232  11.453  16.952  0.00  0.00    +0.000 N 
ATOM     24  H   UNL     1      -1.534  11.664  16.241  0.00  0.00    +0.000 HD
BRANCH  23  25
ATOM     25  C   UNL     1      -3.524  10.882  16.529  0.00  0.00    +0.000 C 
ATOM     26  C   UNL     1      -3.504  10.494  15.042  0.00  0.00    +0.000 C 
ATOM     27  C   UNL     1      -3.808   9.606  17.348  0.00  0.00    +0.000 C 
ATOM     28  C   UNL     1      -4.669  11.874  16.796  0.00  0.00    +0.000 C 
ENDBRANCH  23  25
ENDBRANCH   8  21
TORSDOF 4
ENDMDL
MODEL 3
REMARK VINA RESULT:      -7.2      3.895      7.073
REMARK  Name = 
REMARK  10 active torsions:
REMARK  status: ('A' for Active; 'I' for Inactive)
REMARK    1  A    between atoms: C_1  and  C_2
REMARK    2  A    between atoms: C_8  and  N_9
REMARK    3  A    between atoms: C_10  and  C_12
REMARK    4  A    between atoms: C_14  and  C_15
REMARK    5  A    between atoms: C_16  and  C_17
REMARK    6  A    between atoms: C_19  and  C_20
REMARK    7  A    between atoms: N_22  and  C_23
REMARK    8  A    between atoms: C_23  and  C_24
REMARK    9  A    between atoms: C_23  and  C_25
REMARK   10  A    between atoms: C_23  and  C_26
REMARK                            x       y       z     vdW  Elec       q    Type
REMARK                         _______ _______ _______ _____ _____    ______ ____
ROOT
ATOM      1  C   UNL     1       1.107  12.373  18.634  0.00  0.00    +0.000 A 
ATOM      2  N   UNL     1       2.116  13.273  18.873  0.00  0.00    +0.000 NA
ATOM      3  C   UNL     1       1.767  14.584  18.946  0.00  0.00    +0.000 A 
ATOM      4  C   UNL     1       2.895  15.544  19.176  0.00  0.00    +0.000 C 
ATOM      5  C   UNL     1       0.435  14.994  18.822  0.00  0.00    +0.000 A 
ATOM      6  C   UNL     1      -0.014  16.400  19.090  0.00  0.00    +0.000 C 
ATOM      7  N   UNL     1      -0.560  14.108  18.545  0.00  0.00    +0.000 NA
ATOM      8  C   UNL     1      -0.211  12.781  18.467  0.00  0.00    +0.000 A 
ENDROOT
BRANCH   1  10
ATOM      9  N   UNL     1       1.250  10.179  19.644  0.00  0.00    +0.000 N 
ATOM     10  C   UNL     1       1.593  10.962  18.538  0.00  0.00    +0.000 C 
ATOM     11  O   UNL     1       2.311  10.626  17.607  0.00  0.00    +0.000 OA
ATOM     12  H   UNL     1       0.900  10.705  20.441  0.00  0.00    +0.000 HD
BRANCH   9  20
ATOM     13  C   UNL     1       0.063   8.743  21.959  0.00  0.00    +0.000 C 
ATOM     14  C   UNL     1       0.938   8.097  20.918  0.00  0.00    +0.000 A 
ATOM     15  C   UNL     1       1.245   6.731  21.097  0.00  0.00    +0.000 A 
ATOM     16  C   UNL     1       1.988   6.033  20.148  0.00  0.00    +0.000 A 
ATOM     17  C   UNL     1       2.430   6.695  19.012  0.00  0.00    +0.000 A 
ATOM     18 CL   UNL     1       3.270   5.818  17.792  0.00  0.00    +0.000 Cl
ATOM     19  C   UNL     1       2.187   8.059  18.846  0.00  0.00    +0.000 A 
ATOM     20  C   UNL     1       1.470   8.787  19.805  0.00  0.00    +0.000 A 
ENDBRANCH   9  20
ENDBRANCH   1  10
BRANCH   8  21
ATOM     21  C   UNL     1      -1.383  11.860  18.338  0.00  0.00    +0.000 C 
ATOM     22  O   UNL     1      -1.880  11.330  19.316  0.00  0.00    +0.000 OA
ATOM     23  N   UNL     1      -1.901  11.741  17.050  0.00  0.00    +0.000 N 
ATOM     24  H   UNL     1      -1.507  12.382  16.363  0.00  0.00    +0.000 HD
BRANCH  23  25
ATOM     25  C   UNL     1      -3.057  10.911  16.664  0.00  0.00    +0.000 C 
ATOM     26  C   UNL     1      -4.384  11.628  16.959  0.00  0.00    +0.000 C 
ATOM     27  C   UNL     1      -2.997  10.630  15.148  0.00  0.00    +0.000 C 
ATOM     28  C   UNL     1      -3.020   9.557  17.393  0.00  0.00    +0.000 C 
ENDBRANCH  23  25
ENDBRANCH   8  21
TORSDOF 4
ENDMDL
MODEL 4
REMARK VINA RESULT:      -7.1      1.009      1.235
REMARK  Name = 
REMARK  10 active torsions:
REMARK  status: ('A' for Active; 'I' for Inactive)
REMARK    1  A    between atoms: C_1  and  C_2
REMARK    2  A    between atoms: C_8  and  N_9
REMARK    3  A    between atoms: C_10  and  C_12
REMARK    4  A    between atoms: C_14  and  C_15
REMARK    5  A    between atoms: C_16  and  C_17
REMARK    6  A    between atoms: C_19  and  C_20
REMARK    7  A    between atoms: N_22  and  C_23
REMARK    8  A    between atoms: C_23  and  C_24
REMARK    9  A    between atoms: C_23  and  C_25
REMARK   10  A    between atoms: C_23  and  C_26
REMARK                            x       y       z     vdW  Elec       q    Type
REMARK                         _______ _______ _______ _____ _____    ______ ____
ROOT
ATOM      1  C   UNL     1       2.403   6.968  18.828  0.00  0.00    +0.000 A 
ATOM      2  N   UNL     1       2.249   8.241  18.337  0.00  0.00    +0.000 NA
ATOM      3  C   UNL     1       1.608   9.135  19.133  0.00  0.00    +0.000 A 
ATOM      4  C   UNL     1       1.427  10.506  18.556  0.00  0.00    +0.000 C 
ATOM      5  C   UNL     1       1.158   8.785  20.411  0.00  0.00    +0.000 A 
ATOM      6  C   UNL     1       0.624   9.786  21.392  0.00  0.00    +0.000 C 
ATOM      7  N   UNL     1       1.274   7.513  20.883  0.00  0.00    +0.000 NA
ATOM      8  C   UNL     1       1.919   6.604  20.079  0.00  0.00    +0.000 A 
ENDROOT
BRANCH   1  10
ATOM      9  N   UNL     1       4.401   6.436  17.570  0.00  0.00    +0.000 N 
ATOM     10  C   UNL     1       3.090   6.050  17.867  0.00  0.00    +0.000 C 
ATOM     11  O   UNL     1       2.467   5.135  17.345  0.00  0.00    +0.000 OA
ATOM     12  H   UNL     1       4.644   7.374  17.877  0.00  0.00    +0.000 HD
BRANCH   9  20
ATOM     13  C   UNL     1       7.073   5.773  18.687  0.00  0.00    +0.000 C 
ATOM     14  C   UNL     1       6.628   5.428  17.290  0.00  0.00    +0.000 A 
ATOM     15  C   UNL     1       7.572   4.793  16.454  0.00  0.00    +0.000 A 
ATOM     16  C   UNL     1       7.227   4.374  15.172  0.00  0.00    +0.000 A 
ATOM     17  C   UNL     1       5.934   4.585  14.714  0.00  0.00    +0.000 A 
ATOM     18 CL   UNL     1       5.474   3.989  13.166  0.00  0.00    +0.000 Cl
ATOM     19  C   UNL     1       5.005   5.263  15.503  0.00  0.00    +0.000 A 
ATOM     20  C   UNL     1       5.341   5.723  16.783  0.00  0.00    +0.000 A 
ENDBRANCH   9  20
ENDBRANCH   1  10
BRANCH   8  21
ATOM     21  C   UNL     1       2.161   5.285  20.740  0.00  0.00    +0.000 C 
ATOM     22  O   UNL     1       2.431   5.213  21.927  0.00  0.00    +0.000 OA
ATOM     23  N   UNL     1       1.964   4.172  19.926  0.00  0.00    +0.000 N 
ATOM     24  H   UNL     1       1.561   4.369  19.012  0.00  0.00    +0.000 HD
BRANCH  23  25
ATOM     25  C   UNL     1       2.124   2.766  20.342  0.00  0.00    +0.000 C 
ATOM     26  C   UNL     1       1.398   2.490  21.669  0.00  0.00    +0.000 C 
ATOM     27  C   UNL     1       1.512   1.845  19.266  0.00  0.00    +0.000 C 
ATOM     28  C   UNL     1       3.613   2.405  20.475  0.00  0.00    +0.000 C 
ENDBRANCH  23  25
ENDBRANCH   8  21
TORSDOF 4
ENDMDL
MODEL 5
REMARK VINA RESULT:      -7.0      2.608      6.010
REMARK  Name = 
REMARK  10 active torsions:
REMARK  status: ('A' for Active; 'I' for Inactive)
REMARK    1  A    between atoms: C_1  and  C_2
REMARK    2  A    between atoms: C_8  and  N_9
REMARK    3  A    between atoms: C_10  and  C_12
REMARK    4  A    between atoms: C_14  and  C_15
REMARK    5  A    between atoms: C_16  and  C_17
REMARK    6  A    between atoms: C_19  and  C_20
REMARK    7  A    between atoms: N_22  and  C_23
REMARK    8  A    between atoms: C_23  and  C_24
REMARK    9  A    between atoms: C_23  and  C_25
REMARK   10  A    between atoms: C_23  and  C_26
REMARK                            x       y       z     vdW  Elec       q    Type
REMARK                         _______ _______ _______ _____ _____    ______ ____
ROOT
ATOM      1  C   UNL     1       4.154   7.032  17.891  0.00  0.00    +0.000 A 
ATOM      2  N   UNL     1       5.322   7.650  17.521  0.00  0.00    +0.000 NA
ATOM      3  C   UNL     1       6.453   6.900  17.553  0.00  0.00    +0.000 A 
ATOM      4  C   UNL     1       7.717   7.612  17.174  0.00  0.00    +0.000 C 
ATOM      5  C   UNL     1       6.424   5.547  17.910  0.00  0.00    +0.000 A 
ATOM      6  C   UNL     1       7.610   4.640  17.771  0.00  0.00    +0.000 C 
ATOM      7  N   UNL     1       5.274   4.943  18.317  0.00  0.00    +0.000 NA
ATOM      8  C   UNL     1       4.127   5.700  18.289  0.00  0.00    +0.000 A 
ENDROOT
BRANCH   1  10
ATOM      9  N   UNL     1       2.301   8.035  19.081  0.00  0.00    +0.000 N 
ATOM     10  C   UNL     1       2.971   7.946  17.856  0.00  0.00    +0.000 C 
ATOM     11  O   UNL     1       2.616   8.445  16.798  0.00  0.00    +0.000 OA
ATOM     12  H   UNL     1       2.573   7.332  19.762  0.00  0.00    +0.000 HD
BRANCH   9  20
ATOM     13  C   UNL     1       1.664   8.637  21.920  0.00  0.00    +0.000 C 
ATOM     14  C   UNL     1       0.881   9.162  20.745  0.00  0.00    +0.000 A 
ATOM     15  C   UNL     1      -0.256   9.948  21.031  0.00  0.00    +0.000 A 
ATOM     16  C   UNL     1      -0.998  10.533  20.009  0.00  0.00    +0.000 A 
ATOM     17  C   UNL     1      -0.610  10.339  18.691  0.00  0.00    +0.000 A 
ATOM     18 CL   UNL     1      -1.468  11.133  17.427  0.00  0.00    +0.000 Cl
ATOM     19  C   UNL     1       0.475   9.517  18.386  0.00  0.00    +0.000 A 
ATOM     20  C   UNL     1       1.216   8.891  19.398  0.00  0.00    +0.000 A 
ENDBRANCH   9  20
ENDBRANCH   1  10
BRANCH   8  21
ATOM     21  C   UNL     1       2.886   4.917  18.577  0.00  0.00    +0.000 C 
ATOM     22  O   UNL     1       1.907   4.996  17.855  0.00  0.00    +0.000 OA
ATOM     23  N   UNL     1       2.977   4.043  19.658  0.00  0.00    +0.000 N 
ATOM     24  H   UNL     1       3.909   3.942  20.057  0.00  0.00    +0.000 HD
BRANCH  23  25
ATOM     25  C   UNL     1       1.902   3.155  20.136  0.00  0.00    +0.000 C 
ATOM     26  C   UNL     1       1.683   1.974  19.175  0.00  0.00    +0.000 C 
ATOM     27  C   UNL     1       2.292   2.579  21.513  0.00  0.00    +0.000 C 
ATOM     28  C   UNL     1       0.589   3.937  20.311  0.00  0.00    +0.000 C 
ENDBRANCH  23  25
ENDBRANCH   8  21
TORSDOF 4
ENDMDL
MODEL 6
REMARK VINA RESULT:      -6.9      2.919      6.596
REMARK  Name = 
REMARK  10 active torsions:
REMARK  status: ('A' for Active; 'I' for Inactive)
REMARK    1  A    between atoms: C_1  and  C_2
REMARK    2  A    between atoms: C_8  and  N_9
REMARK    3  A    between atoms: C_10  and  C_12
REMARK    4  A    between atoms: C_14  and  C_15
REMARK    5  A    between atoms: C_16  and  C_17
REMARK    6  A    between atoms: C_19  and  C_20
REMARK    7  A    between atoms: N_22  and  C_23
REMARK    8  A    between atoms: C_23  and  C_24
REMARK    9  A    between atoms: C_23  and  C_25
REMARK   10  A    between atoms: C_23  and  C_26
REMARK                            x       y       z     vdW  Elec       q    Type
REMARK                         _______ _______ _______ _____ _____    ______ ____
ROOT
ATOM      1  C   UNL     1       3.030   4.526  19.468  0.00  0.00    +0.000 A 
ATOM      2  N   UNL     1       2.388   3.825  20.458  0.00  0.00    +0.000 NA
ATOM      3  C   UNL     1       3.009   2.713  20.929  0.00  0.00    +0.000 A 
ATOM      4  C   UNL     1       2.267   1.953  21.987  0.00  0.00    +0.000 C 
ATOM      5  C   UNL     1       4.265   2.321  20.454  0.00  0.00    +0.000 A 
ATOM      6  C   UNL     1       5.068   1.220  21.080  0.00  0.00    +0.000 C 
ATOM      7  N   UNL     1       4.886   2.991  19.444  0.00  0.00    +0.000 NA
ATOM      8  C   UNL     1       4.258   4.115  18.962  0.00  0.00    +0.000 A 
ENDROOT
BRANCH   1  10
ATOM      9  N   UNL     1       2.393   6.834  19.815  0.00  0.00    +0.000 N 
ATOM     10  C   UNL     1       2.254   5.712  18.992  0.00  0.00    +0.000 C 
ATOM     11  O   UNL     1       1.502   5.605  18.032  0.00  0.00    +0.000 OA
ATOM     12  H   UNL     1       2.828   6.646  20.714  0.00  0.00    +0.000 HD
BRANCH   9  20
ATOM     13  C   UNL     1       3.099   8.289  17.322  0.00  0.00    +0.000 C 
ATOM     14  C   UNL     1       2.226   8.850  18.413  0.00  0.00    +0.000 A 
ATOM     15  C   UNL     1       1.762  10.172  18.248  0.00  0.00    +0.000 A 
ATOM     16  C   UNL     1       0.892  10.748  19.171  0.00  0.00    +0.000 A 
ATOM     17  C   UNL     1       0.477  10.005  20.267  0.00  0.00    +0.000 A 
ATOM     18 CL   UNL     1      -0.668  10.677  21.363  0.00  0.00    +0.000 Cl
ATOM     19  C   UNL     1       0.971   8.718  20.478  0.00  0.00    +0.000 A 
ATOM     20  C   UNL     1       1.873   8.132  19.580  0.00  0.00    +0.000 A 
ENDBRANCH   9  20
ENDBRANCH   1  10
BRANCH   8  21
ATOM     21  C   UNL     1       5.084   4.889  17.984  0.00  0.00    +0.000 C 
ATOM     22  O   UNL     1       5.766   5.834  18.342  0.00  0.00    +0.000 OA
ATOM     23  N   UNL     1       5.080   4.390  16.684  0.00  0.00    +0.000 N 
ATOM     24  H   UNL     1       4.618   3.490  16.566  0.00  0.00    +0.000 HD
BRANCH  23  25
ATOM     25  C   UNL     1       5.821   4.962  15.544  0.00  0.00    +0.000 C 
ATOM     26  C   UNL     1       7.339   4.908  15.780  0.00  0.00    +0.000 C 
ATOM     27  C   UNL     1       5.510   4.143  14.274  0.00  0.00    +0.000 C 
ATOM     28  C   UNL     1       5.382   6.413  15.284  0.00  0.00    +0.000 C 
ENDBRANCH  23  25
ENDBRANCH   8  21
TORSDOF 4
ENDMDL
MODEL 7
REMARK VINA RESULT:      -6.7      2.854      6.170
REMARK  Name = 
REMARK  10 active torsions:
REMARK  status: ('A' for Active; 'I' for Inactive)
REMARK    1  A    between atoms: C_1  and  C_2
REMARK    2  A    between atoms: C_8  and  N_9
REMARK    3  A    between atoms: C_10  and  C_12
REMARK    4  A    between atoms: C_14  and  C_15
REMARK    5  A    between atoms: C_16  and  C_17
REMARK    6  A    between atoms: C_19  and  C_20
REMARK    7  A    between atoms: N_22  and  C_23
REMARK    8  A    between atoms: C_23  and  C_24
REMARK    9  A    between atoms: C_23  and  C_25
REMARK   10  A    between atoms: C_23  and  C_26
REMARK                            x       y       z     vdW  Elec       q    Type
REMARK                         _______ _______ _______ _____ _____    ______ ____
ROOT
ATOM      1  C   UNL     1       4.040   6.159  18.066  0.00  0.00    +0.000 A 
ATOM      2  N   UNL     1       5.050   7.044  17.780  0.00  0.00    +0.000 NA
ATOM      3  C   UNL     1       6.286   6.521  17.571  0.00  0.00    +0.000 A 
ATOM      4  C   UNL     1       7.373   7.514  17.294  0.00  0.00    +0.000 C 
ATOM      5  C   UNL     1       6.511   5.141  17.607  0.00  0.00    +0.000 A 
ATOM      6  C   UNL     1       7.809   4.514  17.191  0.00  0.00    +0.000 C 
ATOM      7  N   UNL     1       5.520   4.265  17.930  0.00  0.00    +0.000 NA
ATOM      8  C   UNL     1       4.269   4.791  18.146  0.00  0.00    +0.000 A 
ENDROOT
BRANCH   1  10
ATOM      9  N   UNL     1       2.748   7.710  19.401  0.00  0.00    +0.000 N 
ATOM     10  C   UNL     1       2.727   6.831  18.313  0.00  0.00    +0.000 C 
ATOM     11  O   UNL     1       1.743   6.509  17.661  0.00  0.00    +0.000 OA
ATOM     12  H   UNL     1       3.572   7.630  19.991  0.00  0.00    +0.000 HD
BRANCH   9  20
ATOM     13  C   UNL     1       1.826   9.909  17.628  0.00  0.00    +0.000 C 
ATOM     14  C   UNL     1       1.274   9.640  19.003  0.00  0.00    +0.000 A 
ATOM     15  C   UNL     1       0.291  10.530  19.485  0.00  0.00    +0.000 A 
ATOM     16  C   UNL     1      -0.327  10.318  20.715  0.00  0.00    +0.000 A 
ATOM     17  C   UNL     1       0.033   9.214  21.474  0.00  0.00    +0.000 A 
ATOM     18 CL   UNL     1      -0.789   8.896  22.953  0.00  0.00    +0.000 Cl
ATOM     19  C   UNL     1       1.045   8.356  21.041  0.00  0.00    +0.000 A 
ATOM     20  C   UNL     1       1.703   8.570  19.822  0.00  0.00    +0.000 A 
ENDBRANCH   9  20
ENDBRANCH   1  10
BRANCH   8  21
ATOM     21  C   UNL     1       3.205   3.753  18.318  0.00  0.00    +0.000 C 
ATOM     22  O   UNL     1       2.873   3.030  17.395  0.00  0.00    +0.000 OA
ATOM     23  N   UNL     1       2.709   3.626  19.614  0.00  0.00    +0.000 N 
ATOM     24  H   UNL     1       3.206   4.162  20.323  0.00  0.00    +0.000 HD
BRANCH  23  25
ATOM     25  C   UNL     1       1.671   2.671  20.045  0.00  0.00    +0.000 C 
ATOM     26  C   UNL     1       0.329   2.954  19.351  0.00  0.00    +0.000 C 
ATOM     27  C   UNL     1       2.108   1.241  19.667  0.00  0.00    +0.000 C 
ATOM     28  C   UNL     1       1.492   2.718  21.572  0.00  0.00    +0.000 C 
ENDBRANCH  23  25
ENDBRANCH   8  21
TORSDOF 4
ENDMDL
MODEL 8
REMARK VINA RESULT:      -6.7      2.418      6.524
REMARK  Name = 
REMARK  10 active torsions:
REMARK  status: ('A' for Active; 'I' for Inactive)
REMARK    1  A    between atoms: C_1  and  C_2
REMARK    2  A    between atoms: C_8  and  N_9
REMARK    3  A    between atoms: C_10  and  C_12
REMARK    4  A    between atoms: C_14  and  C_15
REMARK    5  A    between atoms: C_16  and  C_17
REMARK    6  A    between atoms: C_19  and  C_20
REMARK    7  A    between atoms: N_22  and  C_23
REMARK    8  A    between atoms: C_23  and  C_24
REMARK    9  A    between atoms: C_23  and  C_25
REMARK   10  A    between atoms: C_23  and  C_26
REMARK                            x       y       z     vdW  Elec       q    Type
REMARK                         _______ _______ _______ _____ _____    ______ ____
ROOT
ATOM      1  C   UNL     1       2.951   5.090  19.490  0.00  0.00    +0.000 A 
ATOM      2  N   UNL     1       2.189   4.496  20.467  0.00  0.00    +0.000 NA
ATOM      3  C   UNL     1       2.618   3.297  20.938  0.00  0.00    +0.000 A 
ATOM      4  C   UNL     1       1.749   2.660  21.980  0.00  0.00    +0.000 C 
ATOM      5  C   UNL     1       3.802   2.711  20.478  0.00  0.00    +0.000 A 
ATOM      6  C   UNL     1       4.409   1.493  21.108  0.00  0.00    +0.000 C 
ATOM      7  N   UNL     1       4.536   3.277  19.481  0.00  0.00    +0.000 NA
ATOM      8  C   UNL     1       4.104   4.490  18.999  0.00  0.00    +0.000 A 
ENDROOT
BRANCH   1  10
ATOM      9  N   UNL     1       1.961   7.226  20.049  0.00  0.00    +0.000 N 
ATOM     10  C   UNL     1       2.381   6.387  19.012  0.00  0.00    +0.000 C 
ATOM     11  O   UNL     1       2.223   6.580  17.814  0.00  0.00    +0.000 OA
ATOM     12  H   UNL     1       1.911   6.777  20.960  0.00  0.00    +0.000 HD
BRANCH   9  20
ATOM     13  C   UNL     1      -0.222   8.182  21.824  0.00  0.00    +0.000 C 
ATOM     14  C   UNL     1       0.420   9.013  20.745  0.00  0.00    +0.000 A 
ATOM     15  C   UNL     1      -0.095  10.312  20.544  0.00  0.00    +0.000 A 
ATOM     16  C   UNL     1       0.482  11.177  19.618  0.00  0.00    +0.000 A 
ATOM     17  C   UNL     1       1.581  10.751  18.885  0.00  0.00    +0.000 A 
ATOM     18 CL   UNL     1       2.355  11.845  17.804  0.00  0.00    +0.000 Cl
ATOM     19  C   UNL     1       2.067   9.452  19.027  0.00  0.00    +0.000 A 
ATOM     20  C   UNL     1       1.480   8.554  19.929  0.00  0.00    +0.000 A 
ENDBRANCH   9  20
ENDBRANCH   1  10
BRANCH   8  21
ATOM     21  C   UNL     1       5.058   5.126  18.038  0.00  0.00    +0.000 C 
ATOM     22  O   UNL     1       5.953   5.856  18.426  0.00  0.00    +0.000 OA
ATOM     23  N   UNL     1       4.896   4.746  16.707  0.00  0.00    +0.000 N 
ATOM     24  H   UNL     1       4.233   3.989  16.550  0.00  0.00    +0.000 HD
BRANCH  23  25
ATOM     25  C   UNL     1       5.714   5.218  15.575  0.00  0.00    +0.000 C 
ATOM     26  C   UNL     1       5.480   4.361  14.320  0.00  0.00    +0.000 C 
ATOM     27  C   UNL     1       5.322   6.671  15.237  0.00  0.00    +0.000 C 
ATOM     28  C   UNL     1       7.208   5.210  15.944  0.00  0.00    +0.000 C 
ENDBRANCH  23  25
ENDBRANCH   8  21
TORSDOF 4
ENDMDL
MODEL 9
REMARK VINA RESULT:      -6.6      3.267      6.526
REMARK  Name = 
REMARK  10 active torsions:
REMARK  status: ('A' for Active; 'I' for Inactive)
REMARK    1  A    between atoms: C_1  and  C_2
REMARK    2  A    between atoms: C_8  and  N_9
REMARK    3  A    between atoms: C_10  and  C_12
REMARK    4  A    between atoms: C_14  and  C_15
REMARK    5  A    between atoms: C_16  and  C_17
REMARK    6  A    between atoms: C_19  and  C_20
REMARK    7  A    between atoms: N_22  and  C_23
REMARK    8  A    between atoms: C_23  and  C_24
REMARK    9  A    between atoms: C_23  and  C_25
REMARK   10  A    between atoms: C_23  and  C_26
REMARK                            x       y       z     vdW  Elec       q    Type
REMARK                         _______ _______ _______ _____ _____    ______ ____
ROOT
ATOM      1  C   UNL     1       0.066  10.435  18.519  0.00  0.00    +0.000 A 
ATOM      2  N   UNL     1      -0.996   9.829  17.895  0.00  0.00    +0.000 NA
ATOM      3  C   UNL     1      -2.224  10.369  18.105  0.00  0.00    +0.000 A 
ATOM      4  C   UNL     1      -3.366   9.666  17.436  0.00  0.00    +0.000 C 
ATOM      5  C   UNL     1      -2.394  11.514  18.891  0.00  0.00    +0.000 A 
ATOM      6  C   UNL     1      -3.697  12.251  18.988  0.00  0.00    +0.000 C 
ATOM      7  N   UNL     1      -1.349  12.092  19.544  0.00  0.00    +0.000 NA
ATOM      8  C   UNL     1      -0.105  11.546  19.336  0.00  0.00    +0.000 A 
ENDROOT
BRANCH   1  10
ATOM      9  N   UNL     1       1.422   8.445  18.757  0.00  0.00    +0.000 N 
ATOM     10  C   UNL     1       1.369   9.749  18.255  0.00  0.00    +0.000 C 
ATOM     11  O   UNL     1       2.293  10.369  17.746  0.00  0.00    +0.000 OA
ATOM     12  H   UNL     1       0.667   8.208  19.395  0.00  0.00    +0.000 HD
BRANCH   9  20
ATOM     13  C   UNL     1       1.794   6.243  20.717  0.00  0.00    +0.000 C 
ATOM     14  C   UNL     1       2.678   6.471  19.520  0.00  0.00    +0.000 A 
ATOM     15  C   UNL     1       3.780   5.604  19.362  0.00  0.00    +0.000 A 
ATOM     16  C   UNL     1       4.610   5.694  18.248  0.00  0.00    +0.000 A 
ATOM     17  C   UNL     1       4.345   6.654  17.281  0.00  0.00    +0.000 A 
ATOM     18 CL   UNL     1       5.311   6.713  15.857  0.00  0.00    +0.000 Cl
ATOM     19  C   UNL     1       3.296   7.558  17.448  0.00  0.00    +0.000 A 
ATOM     20  C   UNL     1       2.469   7.506  18.579  0.00  0.00    +0.000 A 
ENDBRANCH   9  20
ENDBRANCH   1  10
BRANCH   8  21
ATOM     21  C   UNL     1       1.007  12.343  19.942  0.00  0.00    +0.000 C 
ATOM     22  O   UNL     1       1.457  12.065  21.040  0.00  0.00    +0.000 OA
ATOM     23  N   UNL     1       1.532  13.341  19.124  0.00  0.00    +0.000 N 
ATOM     24  H   UNL     1       1.188  13.341  18.165  0.00  0.00    +0.000 HD
BRANCH  23  25
ATOM     25  C   UNL     1       2.636  14.250  19.482  0.00  0.00    +0.000 C 
ATOM     26  C   UNL     1       3.251  13.876  20.841  0.00  0.00    +0.000 C 
ATOM     27  C   UNL     1       3.746  14.146  18.415  0.00  0.00    +0.000 C 
ATOM     28  C   UNL     1       2.150  15.709  19.511  0.00  0.00    +0.000 C 
ENDBRANCH  23  25
ENDBRANCH   8  21
TORSDOF 4
ENDMDL
