MODEL 1
REMARK VINA RESULT:      -7.4      0.000      0.000
REMARK  Name = 
REMARK  3 active torsions:
REMARK  status: ('A' for Active; 'I' for Inactive)
REMARK    1  A    between atoms: N_10  and  C_11
REMARK    2  A    between atoms: C_11  and  C_12
REMARK    3  A    between atoms: C_12  and  N_13
REMARK                            x       y       z     vdW  Elec       q    Type
REMARK                         _______ _______ _______ _____ _____    ______ ____
ROOT
ATOM      1  O   UNL     1       7.497   5.650  19.915  0.00  0.00    +0.000 OA
ATOM      2  C   UNL     1       7.164   5.379  18.767  0.00  0.00    +0.000 A 
ATOM      3  O   UNL     1       7.963   5.654  17.657  0.00  0.00    +0.000 OA
ATOM      4  C   UNL     1       7.164   5.205  16.608  0.00  0.00    +0.000 A 
ATOM      5  N   UNL     1       7.554   5.321  15.333  0.00  0.00    +0.000 NA
ATOM      6  C   UNL     1       6.655   4.860  14.428  0.00  0.00    +0.000 A 
ATOM      7  C   UNL     1       5.420   4.302  14.772  0.00  0.00    +0.000 A 
ATOM      8  C   UNL     1       5.067   4.198  16.119  0.00  0.00    +0.000 A 
ATOM      9  C   UNL     1       5.970   4.678  17.037  0.00  0.00    +0.000 A 
ATOM     10  N   UNL     1       5.983   4.761  18.404  0.00  0.00    +0.000 N 
ENDROOT
BRANCH  10  11
ATOM     11  C   UNL     1       4.904   4.424  19.313  0.00  0.00    +0.000 C 
BRANCH  11  12
ATOM     12  C   UNL     1       4.572   2.912  19.357  0.00  0.00    +0.000 C 
BRANCH  12  13
ATOM     13  N   UNL     1       3.154   2.661  19.622  0.00  0.00    +0.000 NA
ATOM     14  C   UNL     1       2.572   3.508  20.676  0.00  0.00    +0.000 C 
ATOM     15  C   UNL     1       1.166   2.978  21.006  0.00  0.00    +0.000 C 
ATOM     16  O   UNL     1       0.316   3.010  19.850  0.00  0.00    +0.000 OA
ATOM     17  C   UNL     1       0.901   2.262  18.771  0.00  0.00    +0.000 C 
ATOM     18  C   UNL     1       2.304   2.788  18.424  0.00  0.00    +0.000 C 
ENDBRANCH  12  13
ENDBRANCH  11  12
ENDBRANCH  10  11
TORSDOF 3
ENDMDL
MODEL 2
REMARK VINA RESULT:      -6.9      0.717      1.383
REMARK  Name = 
REMARK  3 active torsions:
REMARK  status: ('A' for Active; 'I' for Inactive)
REMARK    1  A    between atoms: N_10  and  C_11
REMARK    2  A    between atoms: C_11  and  C_12
REMARK    3  A    between atoms: C_12  and  N_13
REMARK                            x       y       z     vdW  Elec       q    Type
REMARK                         _______ _______ _______ _____ _____    ______ ____
ROOT
ATOM      1  O   UNL     1       7.729   5.763  19.609  0.00  0.00    +0.000 OA
ATOM      2  C   UNL     1       7.353   5.427  18.492  0.00  0.00    +0.000 A 
ATOM      3  O   UNL     1       8.044   5.756  17.325  0.00  0.00    +0.000 OA
ATOM      4  C   UNL     1       7.231   5.196  16.341  0.00  0.00    +0.000 A 
ATOM      5  N   UNL     1       7.523   5.318  15.041  0.00  0.00    +0.000 NA
ATOM      6  C   UNL     1       6.622   4.740  14.208  0.00  0.00    +0.000 A 
ATOM      7  C   UNL     1       5.479   4.064  14.646  0.00  0.00    +0.000 A 
ATOM      8  C   UNL     1       5.228   3.960  16.016  0.00  0.00    +0.000 A 
ATOM      9  C   UNL     1       6.132   4.557  16.860  0.00  0.00    +0.000 A 
ATOM     10  N   UNL     1       6.224   4.679  18.221  0.00  0.00    +0.000 N 
ENDROOT
BRANCH  10  11
ATOM     11  C   UNL     1       5.249   4.255  19.208  0.00  0.00    +0.000 C 
BRANCH  11  12
ATOM     12  C   UNL     1       4.046   5.220  19.354  0.00  0.00    +0.000 C 
BRANCH  12  13
ATOM     13  N   UNL     1       2.772   4.508  19.464  0.00  0.00    +0.000 NA
ATOM     14  C   UNL     1       2.495   3.579  18.356  0.00  0.00    +0.000 C 
ATOM     15  C   UNL     1       1.041   3.090  18.482  0.00  0.00    +0.000 C 
ATOM     16  O   UNL     1       0.828   2.414  19.730  0.00  0.00    +0.000 OA
ATOM     17  C   UNL     1       1.175   3.268  20.833  0.00  0.00    +0.000 C 
ATOM     18  C   UNL     1       2.629   3.756  20.725  0.00  0.00    +0.000 C 
ENDBRANCH  12  13
ENDBRANCH  11  12
ENDBRANCH  10  11
TORSDOF 3
ENDMDL
MODEL 3
REMARK VINA RESULT:      -6.9      1.164      1.535
REMARK  Name = 
REMARK  3 active torsions:
REMARK  status: ('A' for Active; 'I' for Inactive)
REMARK    1  A    between atoms: N_10  and  C_11
REMARK    2  A    between atoms: C_11  and  C_12
REMARK    3  A    between atoms: C_12  and  N_13
REMARK                            x       y       z     vdW  Elec       q    Type
REMARK                         _______ _______ _______ _____ _____    ______ ____
ROOT
ATOM      1  O   UNL     1       7.048   5.392  20.189  0.00  0.00    +0.000 OA
ATOM      2  C   UNL     1       6.836   5.239  18.992  0.00  0.00    +0.000 A 
ATOM      3  O   UNL     1       7.794   4.746  18.106  0.00  0.00    +0.000 OA
ATOM      4  C   UNL     1       7.111   4.785  16.892  0.00  0.00    +0.000 A 
ATOM      5  N   UNL     1       7.699   4.420  15.746  0.00  0.00    +0.000 NA
ATOM      6  C   UNL     1       6.911   4.537  14.649  0.00  0.00    +0.000 A 
ATOM      7  C   UNL     1       5.590   4.995  14.685  0.00  0.00    +0.000 A 
ATOM      8  C   UNL     1       5.023   5.355  15.910  0.00  0.00    +0.000 A 
ATOM      9  C   UNL     1       5.825   5.250  17.020  0.00  0.00    +0.000 A 
ATOM     10  N   UNL     1       5.642   5.510  18.352  0.00  0.00    +0.000 N 
ENDROOT
BRANCH  10  11
ATOM     11  C   UNL     1       4.480   6.112  18.977  0.00  0.00    +0.000 C 
BRANCH  11  12
ATOM     12  C   UNL     1       3.715   5.158  19.928  0.00  0.00    +0.000 C 
BRANCH  12  13
ATOM     13  N   UNL     1       3.110   4.030  19.216  0.00  0.00    +0.000 NA
ATOM     14  C   UNL     1       3.814   2.749  19.394  0.00  0.00    +0.000 C 
ATOM     15  C   UNL     1       3.214   1.725  18.415  0.00  0.00    +0.000 C 
ATOM     16  O   UNL     1       1.814   1.532  18.659  0.00  0.00    +0.000 OA
ATOM     17  C   UNL     1       1.110   2.783  18.580  0.00  0.00    +0.000 C 
ATOM     18  C   UNL     1       1.693   3.814  19.561  0.00  0.00    +0.000 C 
ENDBRANCH  12  13
ENDBRANCH  11  12
ENDBRANCH  10  11
TORSDOF 3
ENDMDL
MODEL 4
REMARK VINA RESULT:      -6.8      2.250      2.769
REMARK  Name = 
REMARK  3 active torsions:
REMARK  status: ('A' for Active; 'I' for Inactive)
REMARK    1  A    between atoms: N_10  and  C_11
REMARK    2  A    between atoms: C_11  and  C_12
REMARK    3  A    between atoms: C_12  and  N_13
REMARK                            x       y       z     vdW  Elec       q    Type
REMARK                         _______ _______ _______ _____ _____    ______ ____
ROOT
ATOM      1  O   UNL     1       7.203   5.596  19.958  0.00  0.00    +0.000 OA
ATOM      2  C   UNL     1       6.997   5.312  18.784  0.00  0.00    +0.000 A 
ATOM      3  O   UNL     1       7.764   5.816  17.733  0.00  0.00    +0.000 OA
ATOM      4  C   UNL     1       7.141   5.247  16.624  0.00  0.00    +0.000 A 
ATOM      5  N   UNL     1       7.554   5.511  15.378  0.00  0.00    +0.000 NA
ATOM      6  C   UNL     1       6.830   4.901  14.407  0.00  0.00    +0.000 A 
ATOM      7  C   UNL     1       5.742   4.060  14.658  0.00  0.00    +0.000 A 
ATOM      8  C   UNL     1       5.358   3.814  15.979  0.00  0.00    +0.000 A 
ATOM      9  C   UNL     1       6.082   4.442  16.963  0.00  0.00    +0.000 A 
ATOM     10  N   UNL     1       6.009   4.460  18.331  0.00  0.00    +0.000 N 
ENDROOT
BRANCH  10  11
ATOM     11  C   UNL     1       4.994   3.843  19.164  0.00  0.00    +0.000 C 
BRANCH  11  12
ATOM     12  C   UNL     1       3.545   4.214  18.762  0.00  0.00    +0.000 C 
BRANCH  12  13
ATOM     13  N   UNL     1       3.258   5.635  18.962  0.00  0.00    +0.000 NA
ATOM     14  C   UNL     1       2.978   6.380  17.723  0.00  0.00    +0.000 C 
ATOM     15  C   UNL     1       2.932   7.881  18.058  0.00  0.00    +0.000 C 
ATOM     16  O   UNL     1       1.909   8.167  19.023  0.00  0.00    +0.000 OA
ATOM     17  C   UNL     1       2.106   7.386  20.214  0.00  0.00    +0.000 C 
ATOM     18  C   UNL     1       2.144   5.882  19.895  0.00  0.00    +0.000 C 
ENDBRANCH  12  13
ENDBRANCH  11  12
ENDBRANCH  10  11
TORSDOF 3
ENDMDL
MODEL 5
REMARK VINA RESULT:      -6.7      1.444      1.557
REMARK  Name = 
REMARK  3 active torsions:
REMARK  status: ('A' for Active; 'I' for Inactive)
REMARK    1  A    between atoms: N_10  and  C_11
REMARK    2  A    between atoms: C_11  and  C_12
REMARK    3  A    between atoms: C_12  and  N_13
REMARK                            x       y       z     vdW  Elec       q    Type
REMARK                         _______ _______ _______ _____ _____    ______ ____
ROOT
ATOM      1  O   UNL     1       5.992   5.078  20.123  0.00  0.00    +0.000 OA
ATOM      2  C   UNL     1       6.076   5.044  18.901  0.00  0.00    +0.000 A 
ATOM      3  O   UNL     1       7.170   4.500  18.227  0.00  0.00    +0.000 OA
ATOM      4  C   UNL     1       6.824   4.718  16.894  0.00  0.00    +0.000 A 
ATOM      5  N   UNL     1       7.642   4.368  15.894  0.00  0.00    +0.000 NA
ATOM      6  C   UNL     1       7.174   4.668  14.657  0.00  0.00    +0.000 A 
ATOM      7  C   UNL     1       5.943   5.287  14.419  0.00  0.00    +0.000 A 
ATOM      8  C   UNL     1       5.126   5.623  15.500  0.00  0.00    +0.000 A 
ATOM      9  C   UNL     1       5.604   5.333  16.755  0.00  0.00    +0.000 A 
ATOM     10  N   UNL     1       5.118   5.513  18.022  0.00  0.00    +0.000 N 
ENDROOT
BRANCH  10  11
ATOM     11  C   UNL     1       3.906   6.210  18.406  0.00  0.00    +0.000 C 
BRANCH  11  12
ATOM     12  C   UNL     1       2.611   5.393  18.167  0.00  0.00    +0.000 C 
BRANCH  12  13
ATOM     13  N   UNL     1       2.411   4.359  19.185  0.00  0.00    +0.000 NA
ATOM     14  C   UNL     1       2.116   4.877  20.531  0.00  0.00    +0.000 C 
ATOM     15  C   UNL     1       2.166   3.705  21.525  0.00  0.00    +0.000 C 
ATOM     16  O   UNL     1       1.203   2.696  21.187  0.00  0.00    +0.000 OA
ATOM     17  C   UNL     1       1.410   2.231  19.842  0.00  0.00    +0.000 C 
ATOM     18  C   UNL     1       1.353   3.393  18.835  0.00  0.00    +0.000 C 
ENDBRANCH  12  13
ENDBRANCH  11  12
ENDBRANCH  10  11
TORSDOF 3
ENDMDL
MODEL 6
REMARK VINA RESULT:      -6.7      1.566      1.945
REMARK  Name = 
REMARK  3 active torsions:
REMARK  status: ('A' for Active; 'I' for Inactive)
REMARK    1  A    between atoms: N_10  and  C_11
REMARK    2  A    between atoms: C_11  and  C_12
REMARK    3  A    between atoms: C_12  and  N_13
REMARK                            x       y       z     vdW  Elec       q    Type
REMARK                         _______ _______ _______ _____ _____    ______ ____
ROOT
ATOM      1  O   UNL     1       6.611   5.801  18.160  0.00  0.00    +0.000 OA
ATOM      2  C   UNL     1       6.665   5.428  16.994  0.00  0.00    +0.000 A 
ATOM      3  O   UNL     1       7.552   5.968  16.063  0.00  0.00    +0.000 OA
ATOM      4  C   UNL     1       7.220   5.264  14.907  0.00  0.00    +0.000 A 
ATOM      5  N   UNL     1       7.828   5.509  13.740  0.00  0.00    +0.000 NA
ATOM      6  C   UNL     1       7.376   4.758  12.704  0.00  0.00    +0.000 A 
ATOM      7  C   UNL     1       6.365   3.800  12.820  0.00  0.00    +0.000 A 
ATOM      8  C   UNL     1       5.771   3.579  14.065  0.00  0.00    +0.000 A 
ATOM      9  C   UNL     1       6.217   4.348  15.112  0.00  0.00    +0.000 A 
ATOM     10  N   UNL     1       5.886   4.432  16.438  0.00  0.00    +0.000 N 
ENDROOT
BRANCH  10  11
ATOM     11  C   UNL     1       4.811   3.737  17.119  0.00  0.00    +0.000 C 
BRANCH  11  12
ATOM     12  C   UNL     1       3.546   4.602  17.339  0.00  0.00    +0.000 C 
BRANCH  12  13
ATOM     13  N   UNL     1       2.826   4.235  18.560  0.00  0.00    +0.000 NA
ATOM     14  C   UNL     1       2.735   5.311  19.561  0.00  0.00    +0.000 C 
ATOM     15  C   UNL     1       2.172   4.718  20.864  0.00  0.00    +0.000 C 
ATOM     16  O   UNL     1       0.868   4.156  20.656  0.00  0.00    +0.000 OA
ATOM     17  C   UNL     1       0.907   3.160  19.619  0.00  0.00    +0.000 C 
ATOM     18  C   UNL     1       1.459   3.743  18.307  0.00  0.00    +0.000 C 
ENDBRANCH  12  13
ENDBRANCH  11  12
ENDBRANCH  10  11
TORSDOF 3
ENDMDL
MODEL 7
REMARK VINA RESULT:      -6.7      2.008      2.301
REMARK  Name = 
REMARK  3 active torsions:
REMARK  status: ('A' for Active; 'I' for Inactive)
REMARK    1  A    between atoms: N_10  and  C_11
REMARK    2  A    between atoms: C_11  and  C_12
REMARK    3  A    between atoms: C_12  and  N_13
REMARK                            x       y       z     vdW  Elec       q    Type
REMARK                         _______ _______ _______ _____ _____    ______ ____
ROOT
ATOM      1  O   UNL     1       7.063   5.445  19.822  0.00  0.00    +0.000 OA
ATOM      2  C   UNL     1       6.902   5.197  18.633  0.00  0.00    +0.000 A 
ATOM      3  O   UNL     1       7.726   5.710  17.630  0.00  0.00    +0.000 OA
ATOM      4  C   UNL     1       7.139   5.187  16.480  0.00  0.00    +0.000 A 
ATOM      5  N   UNL     1       7.614   5.474  15.261  0.00  0.00    +0.000 NA
ATOM      6  C   UNL     1       6.919   4.908  14.243  0.00  0.00    +0.000 A 
ATOM      7  C   UNL     1       5.801   4.088  14.423  0.00  0.00    +0.000 A 
ATOM      8  C   UNL     1       5.355   3.815  15.718  0.00  0.00    +0.000 A 
ATOM      9  C   UNL     1       6.048   4.399  16.750  0.00  0.00    +0.000 A 
ATOM     10  N   UNL     1       5.915   4.382  18.114  0.00  0.00    +0.000 N 
ENDROOT
BRANCH  10  11
ATOM     11  C   UNL     1       4.851   3.768  18.884  0.00  0.00    +0.000 C 
BRANCH  11  12
ATOM     12  C   UNL     1       3.447   3.928  18.250  0.00  0.00    +0.000 C 
BRANCH  12  13
ATOM     13  N   UNL     1       2.737   5.103  18.760  0.00  0.00    +0.000 NA
ATOM     14  C   UNL     1       2.709   5.208  20.228  0.00  0.00    +0.000 C 
ATOM     15  C   UNL     1       1.743   6.341  20.616  0.00  0.00    +0.000 C 
ATOM     16  O   UNL     1       2.165   7.596  20.062  0.00  0.00    +0.000 OA
ATOM     17  C   UNL     1       2.288   7.500  18.632  0.00  0.00    +0.000 C 
ATOM     18  C   UNL     1       3.259   6.377  18.230  0.00  0.00    +0.000 C 
ENDBRANCH  12  13
ENDBRANCH  11  12
ENDBRANCH  10  11
TORSDOF 3
ENDMDL
MODEL 8
REMARK VINA RESULT:      -6.7      1.469      2.088
REMARK  Name = 
REMARK  3 active torsions:
REMARK  status: ('A' for Active; 'I' for Inactive)
REMARK    1  A    between atoms: N_10  and  C_11
REMARK    2  A    between atoms: C_11  and  C_12
REMARK    3  A    between atoms: C_12  and  N_13
REMARK                            x       y       z     vdW  Elec       q    Type
REMARK                         _______ _______ _______ _____ _____    ______ ____
ROOT
ATOM      1  O   UNL     1       6.522   5.794  18.200  0.00  0.00    +0.000 OA
ATOM      2  C   UNL     1       6.573   5.415  17.036  0.00  0.00    +0.000 A 
ATOM      3  O   UNL     1       7.514   5.890  16.121  0.00  0.00    +0.000 OA
ATOM      4  C   UNL     1       7.157   5.208  14.960  0.00  0.00    +0.000 A 
ATOM      5  N   UNL     1       7.803   5.408  13.805  0.00  0.00    +0.000 NA
ATOM      6  C   UNL     1       7.321   4.687  12.762  0.00  0.00    +0.000 A 
ATOM      7  C   UNL     1       6.244   3.801  12.858  0.00  0.00    +0.000 A 
ATOM      8  C   UNL     1       5.611   3.625  14.091  0.00  0.00    +0.000 A 
ATOM      9  C   UNL     1       6.089   4.364  15.146  0.00  0.00    +0.000 A 
ATOM     10  N   UNL     1       5.738   4.474  16.465  0.00  0.00    +0.000 N 
ENDROOT
BRANCH  10  11
ATOM     11  C   UNL     1       4.605   3.856  17.126  0.00  0.00    +0.000 C 
BRANCH  11  12
ATOM     12  C   UNL     1       3.438   4.834  17.414  0.00  0.00    +0.000 C 
BRANCH  12  13
ATOM     13  N   UNL     1       2.423   4.246  18.290  0.00  0.00    +0.000 NA
ATOM     14  C   UNL     1       2.104   2.840  17.994  0.00  0.00    +0.000 C 
ATOM     15  C   UNL     1       0.873   2.435  18.824  0.00  0.00    +0.000 C 
ATOM     16  O   UNL     1       1.125   2.577  20.230  0.00  0.00    +0.000 OA
ATOM     17  C   UNL     1       1.526   3.923  20.538  0.00  0.00    +0.000 C 
ATOM     18  C   UNL     1       2.763   4.337  19.722  0.00  0.00    +0.000 C 
ENDBRANCH  12  13
ENDBRANCH  11  12
ENDBRANCH  10  11
TORSDOF 3
ENDMDL
MODEL 9
REMARK VINA RESULT:      -6.7      1.724      1.997
REMARK  Name = 
REMARK  3 active torsions:
REMARK  status: ('A' for Active; 'I' for Inactive)
REMARK    1  A    between atoms: N_10  and  C_11
REMARK    2  A    between atoms: C_11  and  C_12
REMARK    3  A    between atoms: C_12  and  N_13
REMARK                            x       y       z     vdW  Elec       q    Type
REMARK                         _______ _______ _______ _____ _____    ______ ____
ROOT
ATOM      1  O   UNL     1       6.053   6.180  18.242  0.00  0.00    +0.000 OA
ATOM      2  C   UNL     1       6.214   5.726  17.116  0.00  0.00    +0.000 A 
ATOM      3  O   UNL     1       7.335   6.007  16.334  0.00  0.00    +0.000 OA
ATOM      4  C   UNL     1       7.051   5.308  15.162  0.00  0.00    +0.000 A 
ATOM      5  N   UNL     1       7.878   5.343  14.109  0.00  0.00    +0.000 NA
ATOM      6  C   UNL     1       7.449   4.632  13.037  0.00  0.00    +0.000 A 
ATOM      7  C   UNL     1       6.251   3.912  13.008  0.00  0.00    +0.000 A 
ATOM      8  C   UNL     1       5.430   3.903  14.138  0.00  0.00    +0.000 A 
ATOM      9  C   UNL     1       5.856   4.634  15.221  0.00  0.00    +0.000 A 
ATOM     10  N   UNL     1       5.340   4.875  16.466  0.00  0.00    +0.000 N 
ENDROOT
BRANCH  10  11
ATOM     11  C   UNL     1       4.046   4.463  16.975  0.00  0.00    +0.000 C 
BRANCH  11  12
ATOM     12  C   UNL     1       4.104   3.226  17.906  0.00  0.00    +0.000 C 
BRANCH  12  13
ATOM     13  N   UNL     1       3.241   3.372  19.079  0.00  0.00    +0.000 NA
ATOM     14  C   UNL     1       3.684   2.610  20.259  0.00  0.00    +0.000 C 
ATOM     15  C   UNL     1       2.572   2.668  21.321  0.00  0.00    +0.000 C 
ATOM     16  O   UNL     1       2.295   4.022  21.709  0.00  0.00    +0.000 OA
ATOM     17  C   UNL     1       1.944   4.814  20.561  0.00  0.00    +0.000 C 
ATOM     18  C   UNL     1       3.053   4.774  19.496  0.00  0.00    +0.000 C 
ENDBRANCH  12  13
ENDBRANCH  11  12
ENDBRANCH  10  11
TORSDOF 3
ENDMDL
