MODEL 1
REMARK VINA RESULT:      -7.3      0.000      0.000
REMARK  Name = 
REMARK  7 active torsions:
REMARK  status: ('A' for Active; 'I' for Inactive)
REMARK    1  A    between atoms: C_1  and  C_2
REMARK    2  A    between atoms: C_2  and  C_3
REMARK    3  A    between atoms: C_3  and  O_4
REMARK    4  A    between atoms: O_4  and  C_5
REMARK    5  A    between atoms: C_5  and  C_7
REMARK    6  A    between atoms: C_8  and  O_9
REMARK    7  A    between atoms: C_18  and  O_19
REMARK                            x       y       z     vdW  Elec       q    Type
REMARK                         _______ _______ _______ _____ _____    ______ ____
ROOT
ATOM      1  C   UNL     1       5.856   5.731  17.701  0.00  0.00    +0.000 A 
ATOM      2  C   UNL     1       6.322   4.577  18.314  0.00  0.00    +0.000 A 
ATOM      3  N   UNL     1       5.584   3.842  19.171  0.00  0.00    +0.000 NA
ATOM      4  C   UNL     1       4.317   4.213  19.419  0.00  0.00    +0.000 A 
ATOM      5  C   UNL     1       3.545   3.421  20.256  0.00  0.00    +0.000 A 
ATOM      6  C   UNL     1       2.207   3.717  20.503  0.00  0.00    +0.000 A 
ATOM      7 CL   UNL     1       1.264   2.681  21.499  0.00  0.00    +0.000 Cl
ATOM      8  C   UNL     1       1.618   4.837  19.932  0.00  0.00    +0.000 A 
ATOM      9  C   UNL     1       2.380   5.664  19.111  0.00  0.00    +0.000 A 
ATOM     10  C   UNL     1       3.730   5.356  18.835  0.00  0.00    +0.000 A 
ATOM     11  C   UNL     1       4.539   6.115  17.971  0.00  0.00    +0.000 A 
ENDROOT
BRANCH   1  12
ATOM     12  C   UNL     1       6.739   6.534  16.848  0.00  0.00    +0.000 C 
ATOM     13  O   UNL     1       6.879   7.746  17.016  0.00  0.00    +0.000 OA
BRANCH  12  14
ATOM     14  O   UNL     1       7.158   5.803  15.794  0.00  0.00    +0.000 OA
BRANCH  14  15
ATOM     15  C   UNL     1       6.163   5.383  14.866  0.00  0.00    +0.000 C 
BRANCH  15  17
ATOM     16  C   UNL     1       6.125   3.663  13.067  0.00  0.00    +0.000 C 
ATOM     17  C   UNL     1       6.255   3.897  14.565  0.00  0.00    +0.000 C 
ENDBRANCH  15  17
ENDBRANCH  14  15
ENDBRANCH  12  14
ENDBRANCH   1  12
BRANCH   2  18
ATOM     18  O   UNL     1       7.576   4.067  18.120  0.00  0.00    +0.000 OA
ATOM     19  H   UNL     1       7.883   4.323  17.229  0.00  0.00    +0.000 HD
ENDBRANCH   2  18
BRANCH  11  20
ATOM     20  O   UNL     1       4.033   7.210  17.314  0.00  0.00    +0.000 OA
ATOM     21  H   UNL     1       3.282   7.579  17.801  0.00  0.00    +0.000 HD
ENDBRANCH  11  20
TORSDOF 6
ENDMDL
MODEL 2
REMARK VINA RESULT:      -7.2      2.105      3.357
REMARK  Name = 
REMARK  7 active torsions:
REMARK  status: ('A' for Active; 'I' for Inactive)
REMARK    1  A    between atoms: C_1  and  C_2
REMARK    2  A    between atoms: C_2  and  C_3
REMARK    3  A    between atoms: C_3  and  O_4
REMARK    4  A    between atoms: O_4  and  C_5
REMARK    5  A    between atoms: C_5  and  C_7
REMARK    6  A    between atoms: C_8  and  O_9
REMARK    7  A    between atoms: C_18  and  O_19
REMARK                            x       y       z     vdW  Elec       q    Type
REMARK                         _______ _______ _______ _____ _____    ______ ____
ROOT
ATOM      1  C   UNL     1       6.328   6.060  18.004  0.00  0.00    +0.000 A 
ATOM      2  C   UNL     1       6.529   5.476  19.246  0.00  0.00    +0.000 A 
ATOM      3  N   UNL     1       5.556   4.845  19.937  0.00  0.00    +0.000 NA
ATOM      4  C   UNL     1       4.337   4.736  19.386  0.00  0.00    +0.000 A 
ATOM      5  C   UNL     1       3.357   4.038  20.075  0.00  0.00    +0.000 A 
ATOM      6  C   UNL     1       2.091   3.836  19.530  0.00  0.00    +0.000 A 
ATOM      7 CL   UNL     1       0.920   2.915  20.388  0.00  0.00    +0.000 Cl
ATOM      8  C   UNL     1       1.772   4.356  18.283  0.00  0.00    +0.000 A 
ATOM      9  C   UNL     1       2.729   5.086  17.584  0.00  0.00    +0.000 A 
ATOM     10  C   UNL     1       4.022   5.273  18.118  0.00  0.00    +0.000 A 
ATOM     11  C   UNL     1       5.052   5.950  17.441  0.00  0.00    +0.000 A 
ENDROOT
BRANCH   1  12
ATOM     12  C   UNL     1       7.404   6.808  17.344  0.00  0.00    +0.000 C 
ATOM     13  O   UNL     1       7.764   6.552  16.195  0.00  0.00    +0.000 OA
BRANCH  12  14
ATOM     14  O   UNL     1       8.027   7.609  18.235  0.00  0.00    +0.000 OA
BRANCH  14  15
ATOM     15  C   UNL     1       8.105   8.993  17.909  0.00  0.00    +0.000 C 
BRANCH  15  17
ATOM     16  C   UNL     1       9.449  11.061  18.242  0.00  0.00    +0.000 C 
ATOM     17  C   UNL     1       8.992   9.757  18.877  0.00  0.00    +0.000 C 
ENDBRANCH  15  17
ENDBRANCH  14  15
ENDBRANCH  12  14
ENDBRANCH   1  12
BRANCH   2  18
ATOM     18  O   UNL     1       7.729   5.480  19.902  0.00  0.00    +0.000 OA
ATOM     19  H   UNL     1       7.614   5.037  20.765  0.00  0.00    +0.000 HD
ENDBRANCH   2  18
BRANCH  11  20
ATOM     20  O   UNL     1       4.852   6.453  16.179  0.00  0.00    +0.000 OA
ATOM     21  H   UNL     1       5.546   7.090  15.955  0.00  0.00    +0.000 HD
ENDBRANCH  11  20
TORSDOF 6
ENDMDL
MODEL 3
REMARK VINA RESULT:      -7.2      1.646      2.473
REMARK  Name = 
REMARK  7 active torsions:
REMARK  status: ('A' for Active; 'I' for Inactive)
REMARK    1  A    between atoms: C_1  and  C_2
REMARK    2  A    between atoms: C_2  and  C_3
REMARK    3  A    between atoms: C_3  and  O_4
REMARK    4  A    between atoms: O_4  and  C_5
REMARK    5  A    between atoms: C_5  and  C_7
REMARK    6  A    between atoms: C_8  and  O_9
REMARK    7  A    between atoms: C_18  and  O_19
REMARK                            x       y       z     vdW  Elec       q    Type
REMARK                         _______ _______ _______ _____ _____    ______ ____
ROOT
ATOM      1  C   UNL     1       4.731   5.455  17.004  0.00  0.00    +0.000 A 
ATOM      2  C   UNL     1       4.952   4.088  17.105  0.00  0.00    +0.000 A 
ATOM      3  N   UNL     1       4.394   3.315  18.060  0.00  0.00    +0.000 NA
ATOM      4  C   UNL     1       3.548   3.877  18.938  0.00  0.00    +0.000 A 
ATOM      5  C   UNL     1       2.935   3.067  19.881  0.00  0.00    +0.000 A 
ATOM      6  C   UNL     1       2.000   3.579  20.778  0.00  0.00    +0.000 A 
ATOM      7 CL   UNL     1       1.215   2.534  21.895  0.00  0.00    +0.000 Cl
ATOM      8  C   UNL     1       1.680   4.930  20.766  0.00  0.00    +0.000 A 
ATOM      9  C   UNL     1       2.305   5.769  19.848  0.00  0.00    +0.000 A 
ATOM     10  C   UNL     1       3.233   5.254  18.918  0.00  0.00    +0.000 A 
ATOM     11  C   UNL     1       3.857   6.034  17.928  0.00  0.00    +0.000 A 
ENDROOT
BRANCH   1  12
ATOM     12  C   UNL     1       5.438   6.254  15.997  0.00  0.00    +0.000 C 
ATOM     13  O   UNL     1       5.414   5.962  14.802  0.00  0.00    +0.000 OA
BRANCH  12  14
ATOM     14  O   UNL     1       6.235   7.162  16.600  0.00  0.00    +0.000 OA
BRANCH  14  15
ATOM     15  C   UNL     1       7.544   6.730  16.957  0.00  0.00    +0.000 C 
BRANCH  15  17
ATOM     16  C   UNL     1       7.753   5.735  19.230  0.00  0.00    +0.000 C 
ATOM     17  C   UNL     1       7.861   7.016  18.415  0.00  0.00    +0.000 C 
ENDBRANCH  15  17
ENDBRANCH  14  15
ENDBRANCH  12  14
ENDBRANCH   1  12
BRANCH   2  18
ATOM     18  O   UNL     1       5.758   3.384  16.255  0.00  0.00    +0.000 OA
ATOM     19  H   UNL     1       6.524   3.942  16.017  0.00  0.00    +0.000 HD
ENDBRANCH   2  18
BRANCH  11  20
ATOM     20  O   UNL     1       3.565   7.370  17.798  0.00  0.00    +0.000 OA
ATOM     21  H   UNL     1       4.333   7.853  17.460  0.00  0.00    +0.000 HD
ENDBRANCH  11  20
TORSDOF 6
ENDMDL
MODEL 4
REMARK VINA RESULT:      -7.1      1.491      2.661
REMARK  Name = 
REMARK  7 active torsions:
REMARK  status: ('A' for Active; 'I' for Inactive)
REMARK    1  A    between atoms: C_1  and  C_2
REMARK    2  A    between atoms: C_2  and  C_3
REMARK    3  A    between atoms: C_3  and  O_4
REMARK    4  A    between atoms: O_4  and  C_5
REMARK    5  A    between atoms: C_5  and  C_7
REMARK    6  A    between atoms: C_8  and  O_9
REMARK    7  A    between atoms: C_18  and  O_19
REMARK                            x       y       z     vdW  Elec       q    Type
REMARK                         _______ _______ _______ _____ _____    ______ ____
ROOT
ATOM      1  C   UNL     1       5.402   5.653  17.568  0.00  0.00    +0.000 A 
ATOM      2  C   UNL     1       5.915   4.455  18.046  0.00  0.00    +0.000 A 
ATOM      3  N   UNL     1       5.300   3.706  18.985  0.00  0.00    +0.000 NA
ATOM      4  C   UNL     1       4.109   4.108  19.458  0.00  0.00    +0.000 A 
ATOM      5  C   UNL     1       3.455   3.305  20.380  0.00  0.00    +0.000 A 
ATOM      6  C   UNL     1       2.190   3.636  20.860  0.00  0.00    +0.000 A 
ATOM      7 CL   UNL     1       1.384   2.586  21.958  0.00  0.00    +0.000 Cl
ATOM      8  C   UNL     1       1.563   4.802  20.444  0.00  0.00    +0.000 A 
ATOM      9  C   UNL     1       2.212   5.639  19.541  0.00  0.00    +0.000 A 
ATOM     10  C   UNL     1       3.482   5.299  19.029  0.00  0.00    +0.000 A 
ATOM     11  C   UNL     1       4.167   6.069  18.073  0.00  0.00    +0.000 A 
ENDROOT
BRANCH   1  12
ATOM     12  C   UNL     1       6.164   6.465  16.613  0.00  0.00    +0.000 C 
ATOM     13  O   UNL     1       5.670   6.861  15.558  0.00  0.00    +0.000 OA
BRANCH  12  14
ATOM     14  O   UNL     1       7.465   6.503  16.969  0.00  0.00    +0.000 OA
BRANCH  14  15
ATOM     15  C   UNL     1       7.808   7.355  18.058  0.00  0.00    +0.000 C 
BRANCH  15  17
ATOM     16  C   UNL     1       8.779   9.594  18.547  0.00  0.00    +0.000 C 
ATOM     17  C   UNL     1       7.823   8.819  17.653  0.00  0.00    +0.000 C 
ENDBRANCH  15  17
ENDBRANCH  14  15
ENDBRANCH  12  14
ENDBRANCH   1  12
BRANCH   2  18
ATOM     18  O   UNL     1       7.096   3.911  17.623  0.00  0.00    +0.000 OA
ATOM     19  H   UNL     1       7.324   3.165  18.210  0.00  0.00    +0.000 HD
ENDBRANCH   2  18
BRANCH  11  20
ATOM     20  O   UNL     1       3.605   7.212  17.557  0.00  0.00    +0.000 OA
ATOM     21  H   UNL     1       3.562   7.161  16.591  0.00  0.00    +0.000 HD
ENDBRANCH  11  20
TORSDOF 6
ENDMDL
MODEL 5
REMARK VINA RESULT:      -7.0      1.594      1.829
REMARK  Name = 
REMARK  7 active torsions:
REMARK  status: ('A' for Active; 'I' for Inactive)
REMARK    1  A    between atoms: C_1  and  C_2
REMARK    2  A    between atoms: C_2  and  C_3
REMARK    3  A    between atoms: C_3  and  O_4
REMARK    4  A    between atoms: O_4  and  C_5
REMARK    5  A    between atoms: C_5  and  C_7
REMARK    6  A    between atoms: C_8  and  O_9
REMARK    7  A    between atoms: C_18  and  O_19
REMARK                            x       y       z     vdW  Elec       q    Type
REMARK                         _______ _______ _______ _____ _____    ______ ____
ROOT
ATOM      1  C   UNL     1       6.006   4.474  16.770  0.00  0.00    +0.000 A 
ATOM      2  C   UNL     1       6.469   4.411  18.076  0.00  0.00    +0.000 A 
ATOM      3  N   UNL     1       5.669   4.169  19.136  0.00  0.00    +0.000 NA
ATOM      4  C   UNL     1       4.364   3.934  18.924  0.00  0.00    +0.000 A 
ATOM      5  C   UNL     1       3.559   3.629  20.011  0.00  0.00    +0.000 A 
ATOM      6  C   UNL     1       2.212   3.314  19.849  0.00  0.00    +0.000 A 
ATOM      7 CL   UNL     1       1.258   2.884  21.213  0.00  0.00    +0.000 Cl
ATOM      8  C   UNL     1       1.634   3.324  18.587  0.00  0.00    +0.000 A 
ATOM      9  C   UNL     1       2.415   3.656  17.483  0.00  0.00    +0.000 A 
ATOM     10  C   UNL     1       3.787   3.951  17.635  0.00  0.00    +0.000 A 
ATOM     11  C   UNL     1       4.645   4.237  16.558  0.00  0.00    +0.000 A 
ENDROOT
BRANCH   1  12
ATOM     12  C   UNL     1       6.912   4.829  15.671  0.00  0.00    +0.000 C 
ATOM     13  O   UNL     1       7.513   5.902  15.646  0.00  0.00    +0.000 OA
BRANCH  12  14
ATOM     14  O   UNL     1       6.799   3.933  14.668  0.00  0.00    +0.000 OA
BRANCH  14  15
ATOM     15  C   UNL     1       6.767   4.454  13.343  0.00  0.00    +0.000 C 
BRANCH  15  17
ATOM     16  C   UNL     1       4.956   3.429  11.976  0.00  0.00    +0.000 C 
ATOM     17  C   UNL     1       6.438   3.382  12.317  0.00  0.00    +0.000 C 
ENDBRANCH  15  17
ENDBRANCH  14  15
ENDBRANCH  12  14
ENDBRANCH   1  12
BRANCH   2  18
ATOM     18  O   UNL     1       7.778   4.592  18.429  0.00  0.00    +0.000 OA
ATOM     19  H   UNL     1       8.196   3.716  18.536  0.00  0.00    +0.000 HD
ENDBRANCH   2  18
BRANCH  11  20
ATOM     20  O   UNL     1       4.181   4.217  15.266  0.00  0.00    +0.000 OA
ATOM     21  H   UNL     1       3.599   3.456  15.126  0.00  0.00    +0.000 HD
ENDBRANCH  11  20
TORSDOF 6
ENDMDL
MODEL 6
REMARK VINA RESULT:      -7.0      1.993      3.018
REMARK  Name = 
REMARK  7 active torsions:
REMARK  status: ('A' for Active; 'I' for Inactive)
REMARK    1  A    between atoms: C_1  and  C_2
REMARK    2  A    between atoms: C_2  and  C_3
REMARK    3  A    between atoms: C_3  and  O_4
REMARK    4  A    between atoms: O_4  and  C_5
REMARK    5  A    between atoms: C_5  and  C_7
REMARK    6  A    between atoms: C_8  and  O_9
REMARK    7  A    between atoms: C_18  and  O_19
REMARK                            x       y       z     vdW  Elec       q    Type
REMARK                         _______ _______ _______ _____ _____    ______ ____
ROOT
ATOM      1  C   UNL     1       5.519   4.810  15.693  0.00  0.00    +0.000 A 
ATOM      2  C   UNL     1       5.027   6.005  16.198  0.00  0.00    +0.000 A 
ATOM      3  N   UNL     1       4.095   6.071  17.172  0.00  0.00    +0.000 NA
ATOM      4  C   UNL     1       3.644   4.929  17.717  0.00  0.00    +0.000 A 
ATOM      5  C   UNL     1       2.730   5.006  18.757  0.00  0.00    +0.000 A 
ATOM      6  C   UNL     1       2.273   3.861  19.405  0.00  0.00    +0.000 A 
ATOM      7 CL   UNL     1       1.183   3.997  20.729  0.00  0.00    +0.000 Cl
ATOM      8  C   UNL     1       2.706   2.605  19.004  0.00  0.00    +0.000 A 
ATOM      9  C   UNL     1       3.601   2.501  17.943  0.00  0.00    +0.000 A 
ATOM     10  C   UNL     1       4.090   3.657  17.298  0.00  0.00    +0.000 A 
ATOM     11  C   UNL     1       5.038   3.626  16.260  0.00  0.00    +0.000 A 
ENDROOT
BRANCH   1  12
ATOM     12  C   UNL     1       6.466   4.805  14.572  0.00  0.00    +0.000 C 
ATOM     13  O   UNL     1       7.579   5.323  14.660  0.00  0.00    +0.000 OA
BRANCH  12  14
ATOM     14  O   UNL     1       5.857   4.364  13.451  0.00  0.00    +0.000 OA
BRANCH  14  15
ATOM     15  C   UNL     1       6.629   3.542  12.582  0.00  0.00    +0.000 C 
BRANCH  15  17
ATOM     16  C   UNL     1       4.375   3.245  11.567  0.00  0.00    +0.000 C 
ATOM     17  C   UNL     1       5.757   2.631  11.735  0.00  0.00    +0.000 C 
ENDBRANCH  15  17
ENDBRANCH  14  15
ENDBRANCH  12  14
ENDBRANCH   1  12
BRANCH   2  18
ATOM     18  O   UNL     1       5.427   7.237  15.761  0.00  0.00    +0.000 OA
ATOM     19  H   UNL     1       6.373   7.351  15.975  0.00  0.00    +0.000 HD
ENDBRANCH   2  18
BRANCH  11  20
ATOM     20  O   UNL     1       5.570   2.435  15.828  0.00  0.00    +0.000 OA
ATOM     21  H   UNL     1       6.355   2.208  16.346  0.00  0.00    +0.000 HD
ENDBRANCH  11  20
TORSDOF 6
ENDMDL
MODEL 7
REMARK VINA RESULT:      -6.9      1.041      2.289
REMARK  Name = 
REMARK  7 active torsions:
REMARK  status: ('A' for Active; 'I' for Inactive)
REMARK    1  A    between atoms: C_1  and  C_2
REMARK    2  A    between atoms: C_2  and  C_3
REMARK    3  A    between atoms: C_3  and  O_4
REMARK    4  A    between atoms: O_4  and  C_5
REMARK    5  A    between atoms: C_5  and  C_7
REMARK    6  A    between atoms: C_8  and  O_9
REMARK    7  A    between atoms: C_18  and  O_19
REMARK                            x       y       z     vdW  Elec       q    Type
REMARK                         _______ _______ _______ _____ _____    ______ ____
ROOT
ATOM      1  C   UNL     1       5.788   5.660  17.386  0.00  0.00    +0.000 A 
ATOM      2  C   UNL     1       4.576   6.320  17.241  0.00  0.00    +0.000 A 
ATOM      3  N   UNL     1       3.429   5.901  17.817  0.00  0.00    +0.000 NA
ATOM      4  C   UNL     1       3.459   4.815  18.605  0.00  0.00    +0.000 A 
ATOM      5  C   UNL     1       2.290   4.422  19.239  0.00  0.00    +0.000 A 
ATOM      6  C   UNL     1       2.269   3.342  20.118  0.00  0.00    +0.000 A 
ATOM      7 CL   UNL     1       0.814   2.921  20.932  0.00  0.00    +0.000 Cl
ATOM      8  C   UNL     1       3.424   2.611  20.361  0.00  0.00    +0.000 A 
ATOM      9  C   UNL     1       4.603   2.967  19.714  0.00  0.00    +0.000 A 
ATOM     10  C   UNL     1       4.639   4.077  18.842  0.00  0.00    +0.000 A 
ATOM     11  C   UNL     1       5.808   4.525  18.202  0.00  0.00    +0.000 A 
ENDROOT
BRANCH   1  12
ATOM     12  C   UNL     1       6.980   6.117  16.663  0.00  0.00    +0.000 C 
ATOM     13  O   UNL     1       7.321   7.300  16.653  0.00  0.00    +0.000 OA
BRANCH  12  14
ATOM     14  O   UNL     1       7.464   5.121  15.890  0.00  0.00    +0.000 OA
BRANCH  14  15
ATOM     15  C   UNL     1       7.003   5.071  14.544  0.00  0.00    +0.000 C 
BRANCH  15  17
ATOM     16  C   UNL     1       6.059   3.576  12.792  0.00  0.00    +0.000 C 
ATOM     17  C   UNL     1       6.132   3.853  14.286  0.00  0.00    +0.000 C 
ENDBRANCH  15  17
ENDBRANCH  14  15
ENDBRANCH  12  14
ENDBRANCH   1  12
BRANCH   2  18
ATOM     18  O   UNL     1       4.414   7.457  16.500  0.00  0.00    +0.000 OA
ATOM     19  H   UNL     1       3.625   7.932  16.826  0.00  0.00    +0.000 HD
ENDBRANCH   2  18
BRANCH  11  20
ATOM     20  O   UNL     1       7.013   3.902  18.421  0.00  0.00    +0.000 OA
ATOM     21  H   UNL     1       6.891   2.944  18.489  0.00  0.00    +0.000 HD
ENDBRANCH  11  20
TORSDOF 6
ENDMDL
MODEL 8
REMARK VINA RESULT:      -6.9      1.057      1.103
REMARK  Name = 
REMARK  7 active torsions:
REMARK  status: ('A' for Active; 'I' for Inactive)
REMARK    1  A    between atoms: C_1  and  C_2
REMARK    2  A    between atoms: C_2  and  C_3
REMARK    3  A    between atoms: C_3  and  O_4
REMARK    4  A    between atoms: O_4  and  C_5
REMARK    5  A    between atoms: C_5  and  C_7
REMARK    6  A    between atoms: C_8  and  O_9
REMARK    7  A    between atoms: C_18  and  O_19
REMARK                            x       y       z     vdW  Elec       q    Type
REMARK                         _______ _______ _______ _____ _____    ______ ____
ROOT
ATOM      1  C   UNL     1       6.262   6.048  17.987  0.00  0.00    +0.000 A 
ATOM      2  C   UNL     1       6.534   5.274  19.106  0.00  0.00    +0.000 A 
ATOM      3  N   UNL     1       5.582   4.626  19.811  0.00  0.00    +0.000 NA
ATOM      4  C   UNL     1       4.308   4.694  19.393  0.00  0.00    +0.000 A 
ATOM      5  C   UNL     1       3.343   3.981  20.087  0.00  0.00    +0.000 A 
ATOM      6  C   UNL     1       2.015   3.959  19.667  0.00  0.00    +0.000 A 
ATOM      7 CL   UNL     1       0.857   3.016  20.519  0.00  0.00    +0.000 Cl
ATOM      8  C   UNL     1       1.620   4.680  18.549  0.00  0.00    +0.000 A 
ATOM      9  C   UNL     1       2.565   5.428  17.852  0.00  0.00    +0.000 A 
ATOM     10  C   UNL     1       3.917   5.434  18.255  0.00  0.00    +0.000 A 
ATOM     11  C   UNL     1       4.932   6.120  17.564  0.00  0.00    +0.000 A 
ENDROOT
BRANCH   1  12
ATOM     12  C   UNL     1       7.331   6.798  17.318  0.00  0.00    +0.000 C 
ATOM     13  O   UNL     1       7.855   7.784  17.836  0.00  0.00    +0.000 OA
BRANCH  12  14
ATOM     14  O   UNL     1       7.465   6.377  16.042  0.00  0.00    +0.000 OA
BRANCH  14  15
ATOM     15  C   UNL     1       7.431   4.971  15.823  0.00  0.00    +0.000 C 
BRANCH  15  17
ATOM     16  C   UNL     1       5.543   4.178  14.407  0.00  0.00    +0.000 C 
ATOM     17  C   UNL     1       6.997   4.625  14.408  0.00  0.00    +0.000 C 
ENDBRANCH  15  17
ENDBRANCH  14  15
ENDBRANCH  12  14
ENDBRANCH   1  12
BRANCH   2  18
ATOM     18  O   UNL     1       7.790   5.089  19.615  0.00  0.00    +0.000 OA
ATOM     19  H   UNL     1       7.812   5.441  20.526  0.00  0.00    +0.000 HD
ENDBRANCH   2  18
BRANCH  11  20
ATOM     20  O   UNL     1       4.652   6.817  16.414  0.00  0.00    +0.000 OA
ATOM     21  H   UNL     1       4.418   6.209  15.698  0.00  0.00    +0.000 HD
ENDBRANCH  11  20
TORSDOF 6
ENDMDL
MODEL 9
REMARK VINA RESULT:      -6.8      1.692      3.672
REMARK  Name = 
REMARK  7 active torsions:
REMARK  status: ('A' for Active; 'I' for Inactive)
REMARK    1  A    between atoms: C_1  and  C_2
REMARK    2  A    between atoms: C_2  and  C_3
REMARK    3  A    between atoms: C_3  and  O_4
REMARK    4  A    between atoms: O_4  and  C_5
REMARK    5  A    between atoms: C_5  and  C_7
REMARK    6  A    between atoms: C_8  and  O_9
REMARK    7  A    between atoms: C_18  and  O_19
REMARK                            x       y       z     vdW  Elec       q    Type
REMARK                         _______ _______ _______ _____ _____    ______ ____
ROOT
ATOM      1  C   UNL     1       5.523   5.844  17.514  0.00  0.00    +0.000 A 
ATOM      2  C   UNL     1       4.294   6.481  17.624  0.00  0.00    +0.000 A 
ATOM      3  N   UNL     1       3.259   5.980  18.330  0.00  0.00    +0.000 NA
ATOM      4  C   UNL     1       3.427   4.828  18.999  0.00  0.00    +0.000 A 
ATOM      5  C   UNL     1       2.379   4.348  19.769  0.00  0.00    +0.000 A 
ATOM      6  C   UNL     1       2.512   3.193  20.536  0.00  0.00    +0.000 A 
ATOM      7 CL   UNL     1       1.210   2.660  21.525  0.00  0.00    +0.000 Cl
ATOM      8  C   UNL     1       3.700   2.475  20.525  0.00  0.00    +0.000 A 
ATOM      9  C   UNL     1       4.757   2.920  19.737  0.00  0.00    +0.000 A 
ATOM     10  C   UNL     1       4.640   4.104  18.978  0.00  0.00    +0.000 A 
ATOM     11  C   UNL     1       5.686   4.640  18.206  0.00  0.00    +0.000 A 
ENDROOT
BRANCH   1  12
ATOM     12  C   UNL     1       6.578   6.397  16.658  0.00  0.00    +0.000 C 
ATOM     13  O   UNL     1       7.257   5.683  15.920  0.00  0.00    +0.000 OA
BRANCH  12  14
ATOM     14  O   UNL     1       6.800   7.691  16.971  0.00  0.00    +0.000 OA
BRANCH  14  15
ATOM     15  C   UNL     1       7.881   7.961  17.857  0.00  0.00    +0.000 C 
BRANCH  15  17
ATOM     16  C   UNL     1       9.132   9.731  19.082  0.00  0.00    +0.000 C 
ATOM     17  C   UNL     1       8.237   9.438  17.888  0.00  0.00    +0.000 C 
ENDBRANCH  15  17
ENDBRANCH  14  15
ENDBRANCH  12  14
ENDBRANCH   1  12
BRANCH   2  18
ATOM     18  O   UNL     1       4.002   7.675  17.027  0.00  0.00    +0.000 OA
ATOM     19  H   UNL     1       4.776   8.265  17.114  0.00  0.00    +0.000 HD
ENDBRANCH   2  18
BRANCH  11  20
ATOM     20  O   UNL     1       6.918   4.034  18.174  0.00  0.00    +0.000 OA
ATOM     21  H   UNL     1       6.861   3.133  18.523  0.00  0.00    +0.000 HD
ENDBRANCH  11  20
TORSDOF 6
ENDMDL
