MODEL 1
REMARK VINA RESULT:      -8.9      0.000      0.000
REMARK  Name = 
REMARK  15 active torsions:
REMARK  status: ('A' for Active; 'I' for Inactive)
REMARK    1  A    between atoms: CG1_1  and  CB_2
REMARK    2  A    between atoms: CB_2  and  CG2_3
REMARK    3  A    between atoms: CB_2  and  CA_4
REMARK    4  A    between atoms: CA_4  and  N_5
REMARK    5  A    between atoms: CA_4  and  C_16
REMARK    6  A    between atoms: C_6  and  O_8
REMARK    7  A    between atoms: O_8  and  C_9
REMARK    8  A    between atoms: C_9  and  C_10
REMARK    9  A    between atoms: N_18  and  CA_19
REMARK   10  A    between atoms: CA_19  and  C_20
REMARK   11  A    between atoms: N_22  and  CA_23
REMARK   12  A    between atoms: CA_23  and  CB_24
REMARK   13  A    between atoms: CA_23  and  C_34
REMARK   14  A    between atoms: CB_24  and  CG_25
REMARK   15  A    between atoms: C_34  and  OXT_36
REMARK                            x       y       z     vdW  Elec       q    Type
REMARK                         _______ _______ _______ _____ _____    ______ ____
ROOT
ATOM      1  CA  GLY A   2       8.004   9.439  17.706  0.00  0.00    +0.000 C 
ENDROOT
BRANCH   1   4
ATOM      2  C   VAL A   1       9.513  11.344  18.238  0.00  0.00    +0.000 C 
ATOM      3  O   VAL A   1       8.844  12.109  17.542  0.00  0.00    +0.000 OA
ATOM      4  N   GLY A   2       9.148  10.018  18.406  0.00  0.00    +0.000 N 
ATOM      5  H   GLY A   2       9.618   9.494  19.139  0.00  0.00    +0.000 HD
BRANCH   2   6
ATOM      6  CA  VAL A   1      10.740  11.873  19.061  0.00  0.00    +0.000 C 
BRANCH   6   7
ATOM      7  N   VAL A   1      10.449  11.830  20.500  0.00  0.00    +0.000 N 
ATOM      8  C   UNK A   0       9.460  12.545  21.079  0.00  0.00    +0.000 C 
ATOM      9  O   UNK A   0       8.723  13.304  20.431  0.00  0.00    +0.000 OA
ATOM     10  H   VAL A   1      10.889  11.125  21.073  0.00  0.00    +0.000 HD
BRANCH   8  11
ATOM     11  O   UNK A   0       9.293  12.189  22.377  0.00  0.00    +0.000 OA
BRANCH  11  12
ATOM     12  C   UNK A   0       7.944  11.788  22.669  0.00  0.00    +0.000 C 
BRANCH  12  13
ATOM     13  C   UNK A   0       7.579  11.883  24.109  0.00  0.00    +0.000 A 
ATOM     14  C   UNK A   0       6.328  11.389  24.522  0.00  0.00    +0.000 A 
ATOM     15  C   UNK A   0       5.873  11.651  25.806  0.00  0.00    +0.000 A 
ATOM     16  C   UNK A   0       6.682  12.372  26.684  0.00  0.00    +0.000 A 
ATOM     17  C   UNK A   0       7.953  12.799  26.288  0.00  0.00    +0.000 A 
ATOM     18  C   UNK A   0       8.413  12.546  25.009  0.00  0.00    +0.000 A 
ENDBRANCH  12  13
ENDBRANCH  11  12
ENDBRANCH   8  11
ENDBRANCH   6   7
BRANCH   6  20
ATOM     19  CG1 VAL A   1      12.289  13.862  19.545  0.00  0.00    +0.000 C 
ATOM     20  CB  VAL A   1      11.275  13.247  18.568  0.00  0.00    +0.000 C 
ATOM     21  CG2 VAL A   1      11.946  13.128  17.194  0.00  0.00    +0.000 C 
ENDBRANCH   6  20
ENDBRANCH   2   6
ENDBRANCH   1   4
BRANCH   1  22
ATOM     22  C   GLY A   2       7.710   7.925  17.897  0.00  0.00    +0.000 C 
ATOM     23  O   GLY A   2       8.349   7.259  18.709  0.00  0.00    +0.000 OA
ATOM     24  N   TRP A   3       6.753   7.352  17.081  0.00  0.00    +0.000 N 
ATOM     25  H   TRP A   3       6.470   7.895  16.263  0.00  0.00    +0.000 HD
BRANCH  24  26
ATOM     26  CA  TRP A   3       6.236   5.919  17.102  0.00  0.00    +0.000 C 
BRANCH  26  27
ATOM     27  C   TRP A   3       7.335   5.075  16.455  0.00  0.00    +0.000 C 
ATOM     28  O   TRP A   3       7.991   4.192  16.974  0.00  0.00    +0.000 OA
BRANCH  27  29
ATOM     29  OXT TRP A   3       7.424   5.351  15.138  0.00  0.00    +0.000 OA
ATOM     30  HXT TRP A   3       7.689   6.290  15.019  0.00  0.00    +0.000 HD
ENDBRANCH  27  29
ENDBRANCH  26  27
BRANCH  26  31
ATOM     31  CB  TRP A   3       4.876   5.496  16.410  0.00  0.00    +0.000 C 
BRANCH  31  32
ATOM     32  CG  TRP A   3       3.912   4.692  17.269  0.00  0.00    +0.000 A 
ATOM     33  CD1 TRP A   3       3.937   3.301  17.321  0.00  0.00    +0.000 A 
ATOM     34  NE1 TRP A   3       2.593   3.020  17.408  0.00  0.00    +0.000 N 
ATOM     35  CE2 TRP A   3       2.261   3.758  18.526  0.00  0.00    +0.000 A 
ATOM     36  CZ2 TRP A   3       1.350   3.451  19.528  0.00  0.00    +0.000 A 
ATOM     37  CH2 TRP A   3       1.220   4.384  20.541  0.00  0.00    +0.000 A 
ATOM     38  CZ3 TRP A   3       1.907   5.601  20.471  0.00  0.00    +0.000 A 
ATOM     39  CE3 TRP A   3       2.782   5.917  19.396  0.00  0.00    +0.000 A 
ATOM     40  CD2 TRP A   3       3.032   4.934  18.413  0.00  0.00    +0.000 A 
ATOM     41  HE1 TRP A   3       2.011   3.155  16.595  0.00  0.00    +0.000 HD
ENDBRANCH  31  32
ENDBRANCH  26  31
ENDBRANCH  24  26
ENDBRANCH   1  22
TORSDOF 13
ENDMDL
MODEL 2
REMARK VINA RESULT:      -8.9      2.090      3.428
REMARK  Name = 
REMARK  15 active torsions:
REMARK  status: ('A' for Active; 'I' for Inactive)
REMARK    1  A    between atoms: CG1_1  and  CB_2
REMARK    2  A    between atoms: CB_2  and  CG2_3
REMARK    3  A    between atoms: CB_2  and  CA_4
REMARK    4  A    between atoms: CA_4  and  N_5
REMARK    5  A    between atoms: CA_4  and  C_16
REMARK    6  A    between atoms: C_6  and  O_8
REMARK    7  A    between atoms: O_8  and  C_9
REMARK    8  A    between atoms: C_9  and  C_10
REMARK    9  A    between atoms: N_18  and  CA_19
REMARK   10  A    between atoms: CA_19  and  C_20
REMARK   11  A    between atoms: N_22  and  CA_23
REMARK   12  A    between atoms: CA_23  and  CB_24
REMARK   13  A    between atoms: CA_23  and  C_34
REMARK   14  A    between atoms: CB_24  and  CG_25
REMARK   15  A    between atoms: C_34  and  OXT_36
REMARK                            x       y       z     vdW  Elec       q    Type
REMARK                         _______ _______ _______ _____ _____    ______ ____
ROOT
ATOM      1  CA  GLY A   2       8.107   8.948  17.728  0.00  0.00    +0.000 C 
ENDROOT
BRANCH   1   4
ATOM      2  C   VAL A   1       9.174  10.930  18.786  0.00  0.00    +0.000 C 
ATOM      3  O   VAL A   1       8.668  11.685  17.956  0.00  0.00    +0.000 OA
ATOM      4  N   GLY A   2       8.919   9.568  18.771  0.00  0.00    +0.000 N 
ATOM      5  H   GLY A   2       9.199   9.031  19.588  0.00  0.00    +0.000 HD
BRANCH   2   6
ATOM      6  CA  VAL A   1      10.033  11.498  19.971  0.00  0.00    +0.000 C 
BRANCH   6   7
ATOM      7  N   VAL A   1       9.334  12.613  20.622  0.00  0.00    +0.000 N 
ATOM      8  C   UNK A   0       8.564  12.465  21.722  0.00  0.00    +0.000 C 
ATOM      9  O   UNK A   0       8.383  11.363  22.263  0.00  0.00    +0.000 OA
ATOM     10  H   VAL A   1       9.551  13.560  20.349  0.00  0.00    +0.000 HD
BRANCH   8  11
ATOM     11  O   UNK A   0       8.184  13.668  22.220  0.00  0.00    +0.000 OA
BRANCH  11  12
ATOM     12  C   UNK A   0       7.087  14.244  21.492  0.00  0.00    +0.000 C 
BRANCH  12  13
ATOM     13  C   UNK A   0       7.500  15.110  20.354  0.00  0.00    +0.000 A 
ATOM     14  C   UNK A   0       7.010  14.814  19.068  0.00  0.00    +0.000 A 
ATOM     15  C   UNK A   0       7.537  15.465  17.963  0.00  0.00    +0.000 A 
ATOM     16  C   UNK A   0       8.524  16.434  18.146  0.00  0.00    +0.000 A 
ATOM     17  C   UNK A   0       8.955  16.772  19.432  0.00  0.00    +0.000 A 
ATOM     18  C   UNK A   0       8.438  16.125  20.540  0.00  0.00    +0.000 A 
ENDBRANCH  12  13
ENDBRANCH  11  12
ENDBRANCH   8  11
ENDBRANCH   6   7
BRANCH   6  20
ATOM     19  CG1 VAL A   1      11.822  11.403  18.131  0.00  0.00    +0.000 C 
ATOM     20  CB  VAL A   1      11.502  11.819  19.576  0.00  0.00    +0.000 C 
ATOM     21  CG2 VAL A   1      11.809  13.315  19.722  0.00  0.00    +0.000 C 
ENDBRANCH   6  20
ENDBRANCH   2   6
ENDBRANCH   1   4
BRANCH   1  22
ATOM     22  C   GLY A   2       7.747   7.443  17.868  0.00  0.00    +0.000 C 
ATOM     23  O   GLY A   2       8.212   6.769  18.785  0.00  0.00    +0.000 OA
ATOM     24  N   TRP A   3       6.941   6.885  16.893  0.00  0.00    +0.000 N 
ATOM     25  H   TRP A   3       6.825   7.427  16.035  0.00  0.00    +0.000 HD
BRANCH  24  26
ATOM     26  CA  TRP A   3       6.395   5.464  16.826  0.00  0.00    +0.000 C 
BRANCH  26  27
ATOM     27  C   TRP A   3       6.843   4.914  15.470  0.00  0.00    +0.000 C 
ATOM     28  O   TRP A   3       6.377   3.967  14.866  0.00  0.00    +0.000 OA
BRANCH  27  29
ATOM     29  OXT TRP A   3       7.788   5.711  14.932  0.00  0.00    +0.000 OA
ATOM     30  HXT TRP A   3       7.588   6.648  15.147  0.00  0.00    +0.000 HD
ENDBRANCH  27  29
ENDBRANCH  26  27
BRANCH  26  31
ATOM     31  CB  TRP A   3       4.850   5.141  16.956  0.00  0.00    +0.000 C 
BRANCH  31  32
ATOM     32  CG  TRP A   3       4.429   4.394  18.213  0.00  0.00    +0.000 A 
ATOM     33  CD1 TRP A   3       5.323   4.082  19.234  0.00  0.00    +0.000 A 
ATOM     34  NE1 TRP A   3       4.864   2.842  19.612  0.00  0.00    +0.000 N 
ATOM     35  CE2 TRP A   3       3.549   3.146  19.901  0.00  0.00    +0.000 A 
ATOM     36  CZ2 TRP A   3       2.738   2.626  20.900  0.00  0.00    +0.000 A 
ATOM     37  CH2 TRP A   3       1.447   3.121  20.957  0.00  0.00    +0.000 A 
ATOM     38  CZ3 TRP A   3       0.992   4.018  19.985  0.00  0.00    +0.000 A 
ATOM     39  CE3 TRP A   3       1.827   4.482  18.932  0.00  0.00    +0.000 A 
ATOM     40  CD2 TRP A   3       3.184   4.092  18.919  0.00  0.00    +0.000 A 
ATOM     41  HE1 TRP A   3       5.016   2.055  18.999  0.00  0.00    +0.000 HD
ENDBRANCH  31  32
ENDBRANCH  26  31
ENDBRANCH  24  26
ENDBRANCH   1  22
TORSDOF 13
ENDMDL
MODEL 3
REMARK VINA RESULT:      -8.7      6.412     11.307
REMARK  Name = 
REMARK  15 active torsions:
REMARK  status: ('A' for Active; 'I' for Inactive)
REMARK    1  A    between atoms: CG1_1  and  CB_2
REMARK    2  A    between atoms: CB_2  and  CG2_3
REMARK    3  A    between atoms: CB_2  and  CA_4
REMARK    4  A    between atoms: CA_4  and  N_5
REMARK    5  A    between atoms: CA_4  and  C_16
REMARK    6  A    between atoms: C_6  and  O_8
REMARK    7  A    between atoms: O_8  and  C_9
REMARK    8  A    between atoms: C_9  and  C_10
REMARK    9  A    between atoms: N_18  and  CA_19
REMARK   10  A    between atoms: CA_19  and  C_20
REMARK   11  A    between atoms: N_22  and  CA_23
REMARK   12  A    between atoms: CA_23  and  CB_24
REMARK   13  A    between atoms: CA_23  and  C_34
REMARK   14  A    between atoms: CB_24  and  CG_25
REMARK   15  A    between atoms: C_34  and  OXT_36
REMARK                            x       y       z     vdW  Elec       q    Type
REMARK                         _______ _______ _______ _____ _____    ______ ____
ROOT
ATOM      1  CA  GLY A   2       1.695   8.203  21.341  0.00  0.00    +0.000 C 
ENDROOT
BRANCH   1   4
ATOM      2  C   VAL A   1       2.351   6.442  19.712  0.00  0.00    +0.000 C 
ATOM      3  O   VAL A   1       2.595   7.287  18.850  0.00  0.00    +0.000 OA
ATOM      4  N   GLY A   2       1.939   6.809  20.983  0.00  0.00    +0.000 N 
ATOM      5  H   GLY A   2       1.945   6.090  21.701  0.00  0.00    +0.000 HD
BRANCH   2   6
ATOM      6  CA  VAL A   1       2.615   4.919  19.442  0.00  0.00    +0.000 C 
BRANCH   6   7
ATOM      7  N   VAL A   1       3.269   4.734  18.140  0.00  0.00    +0.000 N 
ATOM      8  C   UNK A   0       4.494   4.183  17.996  0.00  0.00    +0.000 C 
ATOM      9  O   UNK A   0       5.166   3.797  18.965  0.00  0.00    +0.000 OA
ATOM     10  H   VAL A   1       2.736   4.871  17.294  0.00  0.00    +0.000 HD
BRANCH   8  11
ATOM     11  O   UNK A   0       4.785   3.969  16.690  0.00  0.00    +0.000 OA
BRANCH  11  12
ATOM     12  C   UNK A   0       6.000   4.618  16.282  0.00  0.00    +0.000 C 
BRANCH  12  13
ATOM     13  C   UNK A   0       6.260   4.561  14.817  0.00  0.00    +0.000 A 
ATOM     14  C   UNK A   0       5.445   3.736  14.019  0.00  0.00    +0.000 A 
ATOM     15  C   UNK A   0       5.790   3.497  12.697  0.00  0.00    +0.000 A 
ATOM     16  C   UNK A   0       6.925   4.111  12.166  0.00  0.00    +0.000 A 
ATOM     17  C   UNK A   0       7.689   4.984  12.945  0.00  0.00    +0.000 A 
ATOM     18  C   UNK A   0       7.355   5.224  14.265  0.00  0.00    +0.000 A 
ENDBRANCH  12  13
ENDBRANCH  11  12
ENDBRANCH   8  11
ENDBRANCH   6   7
BRANCH   6  20
ATOM     19  CG1 VAL A   1       1.197   2.982  18.530  0.00  0.00    +0.000 C 
ATOM     20  CB  VAL A   1       1.360   4.024  19.648  0.00  0.00    +0.000 C 
ATOM     21  CG2 VAL A   1       1.414   3.281  20.989  0.00  0.00    +0.000 C 
ENDBRANCH   6  20
ENDBRANCH   2   6
ENDBRANCH   1   4
BRANCH   1  22
ATOM     22  C   GLY A   2       0.290   8.804  21.059  0.00  0.00    +0.000 C 
ATOM     23  O   GLY A   2      -0.679   8.486  21.745  0.00  0.00    +0.000 OA
ATOM     24  N   TRP A   3       0.164   9.655  19.976  0.00  0.00    +0.000 N 
ATOM     25  H   TRP A   3       0.935   9.652  19.306  0.00  0.00    +0.000 HD
BRANCH  24  26
ATOM     26  CA  TRP A   3      -1.073  10.418  19.519  0.00  0.00    +0.000 C 
BRANCH  26  27
ATOM     27  C   TRP A   3      -1.021  10.411  17.991  0.00  0.00    +0.000 C 
ATOM     28  O   TRP A   3      -1.881  10.791  17.220  0.00  0.00    +0.000 OA
BRANCH  27  29
ATOM     29  OXT TRP A   3       0.199  10.024  17.566  0.00  0.00    +0.000 OA
ATOM     30  HXT TRP A   3       0.729  10.816  17.328  0.00  0.00    +0.000 HD
ENDBRANCH  27  29
ENDBRANCH  26  27
BRANCH  26  31
ATOM     31  CB  TRP A   3      -1.356  11.914  19.955  0.00  0.00    +0.000 C 
BRANCH  31  32
ATOM     32  CG  TRP A   3      -1.938  12.103  21.349  0.00  0.00    +0.000 A 
ATOM     33  CD1 TRP A   3      -1.141  12.194  22.486  0.00  0.00    +0.000 A 
ATOM     34  NE1 TRP A   3      -1.916  11.518  23.401  0.00  0.00    +0.000 N 
ATOM     35  CE2 TRP A   3      -3.089  12.240  23.307  0.00  0.00    +0.000 A 
ATOM     36  CZ2 TRP A   3      -3.988  12.565  24.313  0.00  0.00    +0.000 A 
ATOM     37  CH2 TRP A   3      -5.091  13.308  23.927  0.00  0.00    +0.000 A 
ATOM     38  CZ3 TRP A   3      -5.303  13.606  22.577  0.00  0.00    +0.000 A 
ATOM     39  CE3 TRP A   3      -4.398  13.200  21.560  0.00  0.00    +0.000 A 
ATOM     40  CD2 TRP A   3      -3.201  12.550  21.935  0.00  0.00    +0.000 A 
ATOM     41  HE1 TRP A   3      -2.001  10.516  23.325  0.00  0.00    +0.000 HD
ENDBRANCH  31  32
ENDBRANCH  26  31
ENDBRANCH  24  26
ENDBRANCH   1  22
TORSDOF 13
ENDMDL
MODEL 4
REMARK VINA RESULT:      -8.6      6.151     10.534
REMARK  Name = 
REMARK  15 active torsions:
REMARK  status: ('A' for Active; 'I' for Inactive)
REMARK    1  A    between atoms: CG1_1  and  CB_2
REMARK    2  A    between atoms: CB_2  and  CG2_3
REMARK    3  A    between atoms: CB_2  and  CA_4
REMARK    4  A    between atoms: CA_4  and  N_5
REMARK    5  A    between atoms: CA_4  and  C_16
REMARK    6  A    between atoms: C_6  and  O_8
REMARK    7  A    between atoms: O_8  and  C_9
REMARK    8  A    between atoms: C_9  and  C_10
REMARK    9  A    between atoms: N_18  and  CA_19
REMARK   10  A    between atoms: CA_19  and  C_20
REMARK   11  A    between atoms: N_22  and  CA_23
REMARK   12  A    between atoms: CA_23  and  CB_24
REMARK   13  A    between atoms: CA_23  and  C_34
REMARK   14  A    between atoms: CB_24  and  CG_25
REMARK   15  A    between atoms: C_34  and  OXT_36
REMARK                            x       y       z     vdW  Elec       q    Type
REMARK                         _______ _______ _______ _____ _____    ______ ____
ROOT
ATOM      1  CA  GLY A   2       1.718   7.478  17.860  0.00  0.00    +0.000 C 
ENDROOT
BRANCH   1   4
ATOM      2  C   VAL A   1       2.771   5.708  19.255  0.00  0.00    +0.000 C 
ATOM      3  O   VAL A   1       1.915   5.844  20.130  0.00  0.00    +0.000 OA
ATOM      4  N   GLY A   2       2.728   6.447  18.084  0.00  0.00    +0.000 N 
ATOM      5  H   GLY A   2       3.336   6.154  17.324  0.00  0.00    +0.000 HD
BRANCH   2   6
ATOM      6  CA  VAL A   1       3.879   4.603  19.380  0.00  0.00    +0.000 C 
BRANCH   6   7
ATOM      7  N   VAL A   1       4.740   4.603  18.190  0.00  0.00    +0.000 N 
ATOM      8  C   UNK A   0       6.077   4.785  18.243  0.00  0.00    +0.000 C 
ATOM      9  O   UNK A   0       6.681   4.976  19.310  0.00  0.00    +0.000 OA
ATOM     10  H   VAL A   1       4.362   4.300  17.306  0.00  0.00    +0.000 HD
BRANCH   8  11
ATOM     11  O   UNK A   0       6.650   4.564  17.034  0.00  0.00    +0.000 OA
BRANCH  11  12
ATOM     12  C   UNK A   0       5.825   5.005  15.944  0.00  0.00    +0.000 C 
BRANCH  12  13
ATOM     13  C   UNK A   0       6.325   4.604  14.600  0.00  0.00    +0.000 A 
ATOM     14  C   UNK A   0       7.441   5.274  14.067  0.00  0.00    +0.000 A 
ATOM     15  C   UNK A   0       7.799   5.073  12.742  0.00  0.00    +0.000 A 
ATOM     16  C   UNK A   0       7.065   4.177  11.965  0.00  0.00    +0.000 A 
ATOM     17  C   UNK A   0       6.000   3.463  12.521  0.00  0.00    +0.000 A 
ATOM     18  C   UNK A   0       5.633   3.660  13.840  0.00  0.00    +0.000 A 
ENDBRANCH  12  13
ENDBRANCH  11  12
ENDBRANCH   8  11
ENDBRANCH   6   7
BRANCH   6  20
ATOM     19  CG1 VAL A   1       2.494   2.581  18.613  0.00  0.00    +0.000 C 
ATOM     20  CB  VAL A   1       3.320   3.201  19.752  0.00  0.00    +0.000 C 
ATOM     21  CG2 VAL A   1       4.446   2.224  20.111  0.00  0.00    +0.000 C 
ENDBRANCH   6  20
ENDBRANCH   2   6
ENDBRANCH   1   4
BRANCH   1  22
ATOM     22  C   GLY A   2       1.839   8.814  18.644  0.00  0.00    +0.000 C 
ATOM     23  O   GLY A   2       2.526   9.736  18.210  0.00  0.00    +0.000 OA
ATOM     24  N   TRP A   3       1.201   8.898  19.868  0.00  0.00    +0.000 N 
ATOM     25  H   TRP A   3       0.889   8.015  20.278  0.00  0.00    +0.000 HD
BRANCH  24  26
ATOM     26  CA  TRP A   3       1.111  10.099  20.800  0.00  0.00    +0.000 C 
BRANCH  26  27
ATOM     27  C   TRP A   3       0.070   9.725  21.856  0.00  0.00    +0.000 C 
ATOM     28  O   TRP A   3      -0.614   8.721  21.897  0.00  0.00    +0.000 OA
BRANCH  27  29
ATOM     29  OXT TRP A   3       0.074  10.628  22.858  0.00  0.00    +0.000 OA
ATOM     30  HXT TRP A   3      -0.438  11.421  22.586  0.00  0.00    +0.000 HD
ENDBRANCH  27  29
ENDBRANCH  26  27
BRANCH  26  31
ATOM     31  CB  TRP A   3       0.732  11.548  20.284  0.00  0.00    +0.000 C 
BRANCH  31  32
ATOM     32  CG  TRP A   3      -0.659  11.700  19.686  0.00  0.00    +0.000 A 
ATOM     33  CD1 TRP A   3      -1.407  12.866  19.819  0.00  0.00    +0.000 A 
ATOM     34  NE1 TRP A   3      -2.673  12.348  19.963  0.00  0.00    +0.000 N 
ATOM     35  CE2 TRP A   3      -2.757  11.587  18.814  0.00  0.00    +0.000 A 
ATOM     36  CZ2 TRP A   3      -3.861  11.363  18.003  0.00  0.00    +0.000 A 
ATOM     37  CH2 TRP A   3      -3.653  10.550  16.902  0.00  0.00    +0.000 A 
ATOM     38  CZ3 TRP A   3      -2.416   9.926  16.710  0.00  0.00    +0.000 A 
ATOM     39  CE3 TRP A   3      -1.322  10.121  17.597  0.00  0.00    +0.000 A 
ATOM     40  CD2 TRP A   3      -1.465  11.043  18.658  0.00  0.00    +0.000 A 
ATOM     41  HE1 TRP A   3      -2.917  11.884  20.825  0.00  0.00    +0.000 HD
ENDBRANCH  31  32
ENDBRANCH  26  31
ENDBRANCH  24  26
ENDBRANCH   1  22
TORSDOF 13
ENDMDL
MODEL 5
REMARK VINA RESULT:      -8.5      6.580     11.152
REMARK  Name = 
REMARK  15 active torsions:
REMARK  status: ('A' for Active; 'I' for Inactive)
REMARK    1  A    between atoms: CG1_1  and  CB_2
REMARK    2  A    between atoms: CB_2  and  CG2_3
REMARK    3  A    between atoms: CB_2  and  CA_4
REMARK    4  A    between atoms: CA_4  and  N_5
REMARK    5  A    between atoms: CA_4  and  C_16
REMARK    6  A    between atoms: C_6  and  O_8
REMARK    7  A    between atoms: O_8  and  C_9
REMARK    8  A    between atoms: C_9  and  C_10
REMARK    9  A    between atoms: N_18  and  CA_19
REMARK   10  A    between atoms: CA_19  and  C_20
REMARK   11  A    between atoms: N_22  and  CA_23
REMARK   12  A    between atoms: CA_23  and  CB_24
REMARK   13  A    between atoms: CA_23  and  C_34
REMARK   14  A    between atoms: CB_24  and  CG_25
REMARK   15  A    between atoms: C_34  and  OXT_36
REMARK                            x       y       z     vdW  Elec       q    Type
REMARK                         _______ _______ _______ _____ _____    ______ ____
ROOT
ATOM      1  CA  GLY A   2       1.653   9.009  17.868  0.00  0.00    +0.000 C 
ENDROOT
BRANCH   1   4
ATOM      2  C   VAL A   1       3.277   7.125  17.907  0.00  0.00    +0.000 C 
ATOM      3  O   VAL A   1       4.174   7.848  17.474  0.00  0.00    +0.000 OA
ATOM      4  N   GLY A   2       2.012   7.625  18.168  0.00  0.00    +0.000 N 
ATOM      5  H   GLY A   2       1.378   7.038  18.704  0.00  0.00    +0.000 HD
BRANCH   2   6
ATOM      6  CA  VAL A   1       3.565   5.632  18.297  0.00  0.00    +0.000 C 
BRANCH   6   7
ATOM      7  N   VAL A   1       4.605   5.067  17.428  0.00  0.00    +0.000 N 
ATOM      8  C   UNK A   0       5.755   4.534  17.896  0.00  0.00    +0.000 C 
ATOM      9  O   UNK A   0       6.022   4.491  19.107  0.00  0.00    +0.000 OA
ATOM     10  H   VAL A   1       4.405   4.915  16.451  0.00  0.00    +0.000 HD
BRANCH   8  11
ATOM     11  O   UNK A   0       6.454   3.928  16.905  0.00  0.00    +0.000 OA
BRANCH  11  12
ATOM     12  C   UNK A   0       7.156   4.866  16.073  0.00  0.00    +0.000 C 
BRANCH  12  13
ATOM     13  C   UNK A   0       6.926   4.677  14.614  0.00  0.00    +0.000 A 
ATOM     14  C   UNK A   0       5.920   3.784  14.200  0.00  0.00    +0.000 A 
ATOM     15  C   UNK A   0       5.823   3.427  12.863  0.00  0.00    +0.000 A 
ATOM     16  C   UNK A   0       6.704   3.990  11.940  0.00  0.00    +0.000 A 
ATOM     17  C   UNK A   0       7.655   4.929  12.349  0.00  0.00    +0.000 A 
ATOM     18  C   UNK A   0       7.762   5.287  13.680  0.00  0.00    +0.000 A 
ENDBRANCH  12  13
ENDBRANCH  11  12
ENDBRANCH   8  11
ENDBRANCH   6   7
BRANCH   6  20
ATOM     19  CG1 VAL A   1       2.305   3.577  17.412  0.00  0.00    +0.000 C 
ATOM     20  CB  VAL A   1       2.284   4.756  18.398  0.00  0.00    +0.000 C 
ATOM     21  CG2 VAL A   1       2.098   4.194  19.812  0.00  0.00    +0.000 C 
ENDBRANCH   6  20
ENDBRANCH   2   6
ENDBRANCH   1   4
BRANCH   1  22
ATOM     22  C   GLY A   2       0.714   9.759  18.852  0.00  0.00    +0.000 C 
ATOM     23  O   GLY A   2       0.988   9.834  20.048  0.00  0.00    +0.000 OA
ATOM     24  N   TRP A   3      -0.461  10.280  18.343  0.00  0.00    +0.000 N 
ATOM     25  H   TRP A   3      -0.743   9.945  17.420  0.00  0.00    +0.000 HD
BRANCH  24  26
ATOM     26  CA  TRP A   3      -1.517  11.103  19.070  0.00  0.00    +0.000 C 
BRANCH  26  27
ATOM     27  C   TRP A   3      -2.456  11.624  17.981  0.00  0.00    +0.000 C 
ATOM     28  O   TRP A   3      -3.672  11.612  17.986  0.00  0.00    +0.000 OA
BRANCH  27  29
ATOM     29  OXT TRP A   3      -1.751  12.238  17.010  0.00  0.00    +0.000 OA
ATOM     30  HXT TRP A   3      -2.346  12.830  16.498  0.00  0.00    +0.000 HD
ENDBRANCH  27  29
ENDBRANCH  26  27
BRANCH  26  31
ATOM     31  CB  TRP A   3      -1.147  12.346  19.979  0.00  0.00    +0.000 C 
BRANCH  31  32
ATOM     32  CG  TRP A   3      -1.776  12.369  21.365  0.00  0.00    +0.000 A 
ATOM     33  CD1 TRP A   3      -1.021  12.509  22.527  0.00  0.00    +0.000 A 
ATOM     34  NE1 TRP A   3      -1.705  11.677  23.382  0.00  0.00    +0.000 N 
ATOM     35  CE2 TRP A   3      -2.970  12.225  23.297  0.00  0.00    +0.000 A 
ATOM     36  CZ2 TRP A   3      -3.926  12.358  24.294  0.00  0.00    +0.000 A 
ATOM     37  CH2 TRP A   3      -5.118  12.954  23.920  0.00  0.00    +0.000 A 
ATOM     38  CZ3 TRP A   3      -5.347  13.294  22.583  0.00  0.00    +0.000 A 
ATOM     39  CE3 TRP A   3      -4.373  13.083  21.569  0.00  0.00    +0.000 A 
ATOM     40  CD2 TRP A   3      -3.101  12.594  21.941  0.00  0.00    +0.000 A 
ATOM     41  HE1 TRP A   3      -1.642  10.679  23.251  0.00  0.00    +0.000 HD
ENDBRANCH  31  32
ENDBRANCH  26  31
ENDBRANCH  24  26
ENDBRANCH   1  22
TORSDOF 13
ENDMDL
MODEL 6
REMARK VINA RESULT:      -8.4      6.646     11.128
REMARK  Name = 
REMARK  15 active torsions:
REMARK  status: ('A' for Active; 'I' for Inactive)
REMARK    1  A    between atoms: CG1_1  and  CB_2
REMARK    2  A    between atoms: CB_2  and  CG2_3
REMARK    3  A    between atoms: CB_2  and  CA_4
REMARK    4  A    between atoms: CA_4  and  N_5
REMARK    5  A    between atoms: CA_4  and  C_16
REMARK    6  A    between atoms: C_6  and  O_8
REMARK    7  A    between atoms: O_8  and  C_9
REMARK    8  A    between atoms: C_9  and  C_10
REMARK    9  A    between atoms: N_18  and  CA_19
REMARK   10  A    between atoms: CA_19  and  C_20
REMARK   11  A    between atoms: N_22  and  CA_23
REMARK   12  A    between atoms: CA_23  and  CB_24
REMARK   13  A    between atoms: CA_23  and  C_34
REMARK   14  A    between atoms: CB_24  and  CG_25
REMARK   15  A    between atoms: C_34  and  OXT_36
REMARK                            x       y       z     vdW  Elec       q    Type
REMARK                         _______ _______ _______ _____ _____    ______ ____
ROOT
ATOM      1  CA  GLY A   2       2.263   8.939  17.998  0.00  0.00    +0.000 C 
ENDROOT
BRANCH   1   4
ATOM      2  C   VAL A   1       2.761   6.718  19.003  0.00  0.00    +0.000 C 
ATOM      3  O   VAL A   1       2.731   7.190  20.139  0.00  0.00    +0.000 OA
ATOM      4  N   GLY A   2       2.504   7.502  17.890  0.00  0.00    +0.000 N 
ATOM      5  H   GLY A   2       2.348   7.023  17.007  0.00  0.00    +0.000 HD
BRANCH   2   6
ATOM      6  CA  VAL A   1       2.975   5.180  18.778  0.00  0.00    +0.000 C 
BRANCH   6   7
ATOM      7  N   VAL A   1       4.010   4.948  17.762  0.00  0.00    +0.000 N 
ATOM      8  C   UNK A   0       5.304   4.702  18.064  0.00  0.00    +0.000 C 
ATOM      9  O   UNK A   0       5.717   4.662  19.234  0.00  0.00    +0.000 OA
ATOM     10  H   VAL A   1       3.738   4.805  16.802  0.00  0.00    +0.000 HD
BRANCH   8  11
ATOM     11  O   UNK A   0       6.007   4.351  16.960  0.00  0.00    +0.000 OA
BRANCH  11  12
ATOM     12  C   UNK A   0       5.188   4.290  15.781  0.00  0.00    +0.000 C 
BRANCH  12  13
ATOM     13  C   UNK A   0       5.956   4.196  14.509  0.00  0.00    +0.000 A 
ATOM     14  C   UNK A   0       7.133   4.957  14.374  0.00  0.00    +0.000 A 
ATOM     15  C   UNK A   0       7.751   5.056  13.137  0.00  0.00    +0.000 A 
ATOM     16  C   UNK A   0       7.216   4.368  12.048  0.00  0.00    +0.000 A 
ATOM     17  C   UNK A   0       6.087   3.559  12.206  0.00  0.00    +0.000 A 
ATOM     18  C   UNK A   0       5.461   3.458  13.435  0.00  0.00    +0.000 A 
ENDBRANCH  12  13
ENDBRANCH  11  12
ENDBRANCH   8  11
ENDBRANCH   6   7
BRANCH   6  20
ATOM     19  CG1 VAL A   1       1.867   3.179  17.610  0.00  0.00    +0.000 C 
ATOM     20  CB  VAL A   1       1.655   4.400  18.520  0.00  0.00    +0.000 C 
ATOM     21  CG2 VAL A   1       1.024   3.914  19.831  0.00  0.00    +0.000 C 
ENDBRANCH   6  20
ENDBRANCH   2   6
ENDBRANCH   1   4
BRANCH   1  22
ATOM     22  C   GLY A   2       0.928   9.419  18.630  0.00  0.00    +0.000 C 
ATOM     23  O   GLY A   2       0.746   9.348  19.844  0.00  0.00    +0.000 OA
ATOM     24  N   TRP A   3      -0.061   9.867  17.774  0.00  0.00    +0.000 N 
ATOM     25  H   TRP A   3       0.060   9.640  16.785  0.00  0.00    +0.000 HD
BRANCH  24  26
ATOM     26  CA  TRP A   3      -1.425  10.442  18.132  0.00  0.00    +0.000 C 
BRANCH  26  27
ATOM     27  C   TRP A   3      -2.344  10.084  16.964  0.00  0.00    +0.000 C 
ATOM     28  O   TRP A   3      -3.291   9.322  16.974  0.00  0.00    +0.000 OA
BRANCH  27  29
ATOM     29  OXT TRP A   3      -2.046  10.839  15.886  0.00  0.00    +0.000 OA
ATOM     30  HXT TRP A   3      -2.734  10.710  15.197  0.00  0.00    +0.000 HD
ENDBRANCH  27  29
ENDBRANCH  26  27
BRANCH  26  31
ATOM     31  CB  TRP A   3      -1.645  11.983  18.425  0.00  0.00    +0.000 C 
BRANCH  31  32
ATOM     32  CG  TRP A   3      -2.641  12.317  19.526  0.00  0.00    +0.000 A 
ATOM     33  CD1 TRP A   3      -4.017  12.328  19.312  0.00  0.00    +0.000 A 
ATOM     34  NE1 TRP A   3      -4.394  13.392  20.099  0.00  0.00    +0.000 N 
ATOM     35  CE2 TRP A   3      -3.876  12.992  21.315  0.00  0.00    +0.000 A 
ATOM     36  CZ2 TRP A   3      -4.403  13.179  22.585  0.00  0.00    +0.000 A 
ATOM     37  CH2 TRP A   3      -3.662  12.665  23.634  0.00  0.00    +0.000 A 
ATOM     38  CZ3 TRP A   3      -2.410  12.089  23.397  0.00  0.00    +0.000 A 
ATOM     39  CE3 TRP A   3      -1.864  11.972  22.090  0.00  0.00    +0.000 A 
ATOM     40  CD2 TRP A   3      -2.651  12.373  20.987  0.00  0.00    +0.000 A 
ATOM     41  HE1 TRP A   3      -4.162  14.328  19.801  0.00  0.00    +0.000 HD
ENDBRANCH  31  32
ENDBRANCH  26  31
ENDBRANCH  24  26
ENDBRANCH   1  22
TORSDOF 13
ENDMDL
MODEL 7
REMARK VINA RESULT:      -8.4      5.375      9.362
REMARK  Name = 
REMARK  15 active torsions:
REMARK  status: ('A' for Active; 'I' for Inactive)
REMARK    1  A    between atoms: CG1_1  and  CB_2
REMARK    2  A    between atoms: CB_2  and  CG2_3
REMARK    3  A    between atoms: CB_2  and  CA_4
REMARK    4  A    between atoms: CA_4  and  N_5
REMARK    5  A    between atoms: CA_4  and  C_16
REMARK    6  A    between atoms: C_6  and  O_8
REMARK    7  A    between atoms: O_8  and  C_9
REMARK    8  A    between atoms: C_9  and  C_10
REMARK    9  A    between atoms: N_18  and  CA_19
REMARK   10  A    between atoms: CA_19  and  C_20
REMARK   11  A    between atoms: N_22  and  CA_23
REMARK   12  A    between atoms: CA_23  and  CB_24
REMARK   13  A    between atoms: CA_23  and  C_34
REMARK   14  A    between atoms: CB_24  and  CG_25
REMARK   15  A    between atoms: C_34  and  OXT_36
REMARK                            x       y       z     vdW  Elec       q    Type
REMARK                         _______ _______ _______ _____ _____    ______ ____
ROOT
ATOM      1  CA  GLY A   2       2.875   7.730  17.071  0.00  0.00    +0.000 C 
ENDROOT
BRANCH   1   4
ATOM      2  C   VAL A   1       5.091   6.665  16.690  0.00  0.00    +0.000 C 
ATOM      3  O   VAL A   1       5.042   6.920  15.486  0.00  0.00    +0.000 OA
ATOM      4  N   GLY A   2       4.082   7.063  17.552  0.00  0.00    +0.000 N 
ATOM      5  H   GLY A   2       4.269   7.001  18.549  0.00  0.00    +0.000 HD
BRANCH   2   6
ATOM      6  CA  VAL A   1       6.359   5.984  17.315  0.00  0.00    +0.000 C 
BRANCH   6   7
ATOM      7  N   VAL A   1       5.989   5.200  18.500  0.00  0.00    +0.000 N 
ATOM      8  C   UNK A   0       5.360   4.006  18.432  0.00  0.00    +0.000 C 
ATOM      9  O   UNK A   0       5.039   3.484  17.353  0.00  0.00    +0.000 OA
ATOM     10  H   VAL A   1       6.349   5.467  19.403  0.00  0.00    +0.000 HD
BRANCH   8  11
ATOM     11  O   UNK A   0       5.295   3.416  19.651  0.00  0.00    +0.000 OA
BRANCH  11  12
ATOM     12  C   UNK A   0       4.501   2.219  19.643  0.00  0.00    +0.000 C 
BRANCH  12  13
ATOM     13  C   UNK A   0       3.043   2.454  19.831  0.00  0.00    +0.000 A 
ATOM     14  C   UNK A   0       2.162   2.102  18.791  0.00  0.00    +0.000 A 
ATOM     15  C   UNK A   0       0.835   2.500  18.848  0.00  0.00    +0.000 A 
ATOM     16  C   UNK A   0       0.382   3.214  19.958  0.00  0.00    +0.000 A 
ATOM     17  C   UNK A   0       1.246   3.498  21.019  0.00  0.00    +0.000 A 
ATOM     18  C   UNK A   0       2.573   3.110  20.969  0.00  0.00    +0.000 A 
ENDBRANCH  12  13
ENDBRANCH  11  12
ENDBRANCH   8  11
ENDBRANCH   6   7
BRANCH   6  20
ATOM     19  CG1 VAL A   1       7.092   8.438  17.501  0.00  0.00    +0.000 C 
ATOM     20  CB  VAL A   1       7.539   6.968  17.555  0.00  0.00    +0.000 C 
ATOM     21  CG2 VAL A   1       8.209   6.722  18.913  0.00  0.00    +0.000 C 
ENDBRANCH   6  20
ENDBRANCH   2   6
ENDBRANCH   1   4
BRANCH   1  22
ATOM     22  C   GLY A   2       2.287   8.894  17.916  0.00  0.00    +0.000 C 
ATOM     23  O   GLY A   2       2.461  10.063  17.580  0.00  0.00    +0.000 OA
ATOM     24  N   TRP A   3       1.622   8.564  19.082  0.00  0.00    +0.000 N 
ATOM     25  H   TRP A   3       1.756   7.613  19.427  0.00  0.00    +0.000 HD
BRANCH  24  26
ATOM     26  CA  TRP A   3       0.907   9.498  20.051  0.00  0.00    +0.000 C 
BRANCH  26  27
ATOM     27  C   TRP A   3       0.759   8.707  21.352  0.00  0.00    +0.000 C 
ATOM     28  O   TRP A   3      -0.200   8.684  22.098  0.00  0.00    +0.000 OA
BRANCH  27  29
ATOM     29  OXT TRP A   3       1.824   7.900  21.532  0.00  0.00    +0.000 OA
ATOM     30  HXT TRP A   3       1.696   7.070  21.023  0.00  0.00    +0.000 HD
ENDBRANCH  27  29
ENDBRANCH  26  27
BRANCH  26  31
ATOM     31  CB  TRP A   3      -0.515  10.120  19.737  0.00  0.00    +0.000 C 
BRANCH  31  32
ATOM     32  CG  TRP A   3      -0.567  11.636  19.614  0.00  0.00    +0.000 A 
ATOM     33  CD1 TRP A   3      -1.573  12.400  20.199  0.00  0.00    +0.000 A 
ATOM     34  NE1 TRP A   3      -1.754  13.369  19.239  0.00  0.00    +0.000 N 
ATOM     35  CE2 TRP A   3      -0.467  13.860  19.142  0.00  0.00    +0.000 A 
ATOM     36  CZ2 TRP A   3      -0.052  15.167  18.929  0.00  0.00    +0.000 A 
ATOM     37  CH2 TRP A   3       1.316  15.372  18.878  0.00  0.00    +0.000 A 
ATOM     38  CZ3 TRP A   3       2.194  14.285  18.939  0.00  0.00    +0.000 A 
ATOM     39  CE3 TRP A   3       1.736  12.948  19.090  0.00  0.00    +0.000 A 
ATOM     40  CD2 TRP A   3       0.353  12.720  19.271  0.00  0.00    +0.000 A 
ATOM     41  HE1 TRP A   3      -2.204  13.122  18.371  0.00  0.00    +0.000 HD
ENDBRANCH  31  32
ENDBRANCH  26  31
ENDBRANCH  24  26
ENDBRANCH   1  22
TORSDOF 13
ENDMDL
MODEL 8
REMARK VINA RESULT:      -8.4      6.307      7.924
REMARK  Name = 
REMARK  15 active torsions:
REMARK  status: ('A' for Active; 'I' for Inactive)
REMARK    1  A    between atoms: CG1_1  and  CB_2
REMARK    2  A    between atoms: CB_2  and  CG2_3
REMARK    3  A    between atoms: CB_2  and  CA_4
REMARK    4  A    between atoms: CA_4  and  N_5
REMARK    5  A    between atoms: CA_4  and  C_16
REMARK    6  A    between atoms: C_6  and  O_8
REMARK    7  A    between atoms: O_8  and  C_9
REMARK    8  A    between atoms: C_9  and  C_10
REMARK    9  A    between atoms: N_18  and  CA_19
REMARK   10  A    between atoms: CA_19  and  C_20
REMARK   11  A    between atoms: N_22  and  CA_23
REMARK   12  A    between atoms: CA_23  and  CB_24
REMARK   13  A    between atoms: CA_23  and  C_34
REMARK   14  A    between atoms: CB_24  and  CG_25
REMARK   15  A    between atoms: C_34  and  OXT_36
REMARK                            x       y       z     vdW  Elec       q    Type
REMARK                         _______ _______ _______ _____ _____    ______ ____
ROOT
ATOM      1  CA  GLY A   2       1.962   8.598  17.725  0.00  0.00    +0.000 C 
ENDROOT
BRANCH   1   4
ATOM      2  C   VAL A   1       0.477  10.375  18.633  0.00  0.00    +0.000 C 
ATOM      3  O   VAL A   1      -0.503   9.889  18.068  0.00  0.00    +0.000 OA
ATOM      4  N   GLY A   2       1.726   9.781  18.549  0.00  0.00    +0.000 N 
ATOM      5  H   GLY A   2       2.444  10.109  19.189  0.00  0.00    +0.000 HD
BRANCH   2   6
ATOM      6  CA  VAL A   1       0.325  11.623  19.572  0.00  0.00    +0.000 C 
BRANCH   6   7
ATOM      7  N   VAL A   1      -0.619  11.336  20.659  0.00  0.00    +0.000 N 
ATOM      8  C   UNK A   0      -0.242  10.833  21.855  0.00  0.00    +0.000 C 
ATOM      9  O   UNK A   0       0.940  10.568  22.122  0.00  0.00    +0.000 OA
ATOM     10  H   VAL A   1      -1.569  11.666  20.590  0.00  0.00    +0.000 HD
BRANCH   8  11
ATOM     11  O   UNK A   0      -1.276  10.829  22.733  0.00  0.00    +0.000 OA
BRANCH  11  12
ATOM     12  C   UNK A   0      -1.673  12.154  23.123  0.00  0.00    +0.000 C 
BRANCH  12  13
ATOM     13  C   UNK A   0      -3.143  12.388  23.078  0.00  0.00    +0.000 A 
ATOM     14  C   UNK A   0      -3.739  12.701  21.842  0.00  0.00    +0.000 A 
ATOM     15  C   UNK A   0      -5.057  13.129  21.802  0.00  0.00    +0.000 A 
ATOM     16  C   UNK A   0      -5.787  13.208  22.989  0.00  0.00    +0.000 A 
ATOM     17  C   UNK A   0      -5.209  12.828  24.203  0.00  0.00    +0.000 A 
ATOM     18  C   UNK A   0      -3.893  12.404  24.253  0.00  0.00    +0.000 A 
ENDBRANCH  12  13
ENDBRANCH  11  12
ENDBRANCH   8  11
ENDBRANCH   6   7
BRANCH   6  20
ATOM     19  CG1 VAL A   1      -0.918  13.870  19.596  0.00  0.00    +0.000 C 
ATOM     20  CB  VAL A   1       0.023  12.944  18.809  0.00  0.00    +0.000 C 
ATOM     21  CG2 VAL A   1       1.309  13.721  18.499  0.00  0.00    +0.000 C 
ENDBRANCH   6  20
ENDBRANCH   2   6
ENDBRANCH   1   4
BRANCH   1  22
ATOM     22  C   GLY A   2       2.874   7.474  18.289  0.00  0.00    +0.000 C 
ATOM     23  O   GLY A   2       2.744   7.082  19.447  0.00  0.00    +0.000 OA
ATOM     24  N   TRP A   3       3.868   6.982  17.464  0.00  0.00    +0.000 N 
ATOM     25  H   TRP A   3       4.085   7.538  16.635  0.00  0.00    +0.000 HD
BRANCH  24  26
ATOM     26  CA  TRP A   3       4.849   5.851  17.746  0.00  0.00    +0.000 C 
BRANCH  26  27
ATOM     27  C   TRP A   3       6.197   6.329  17.205  0.00  0.00    +0.000 C 
ATOM     28  O   TRP A   3       7.304   6.013  17.595  0.00  0.00    +0.000 OA
BRANCH  27  29
ATOM     29  OXT TRP A   3       6.016   7.094  16.109  0.00  0.00    +0.000 OA
ATOM     30  HXT TRP A   3       6.492   7.946  16.223  0.00  0.00    +0.000 HD
ENDBRANCH  27  29
ENDBRANCH  26  27
BRANCH  26  31
ATOM     31  CB  TRP A   3       4.634   4.383  17.190  0.00  0.00    +0.000 C 
BRANCH  31  32
ATOM     32  CG  TRP A   3       3.651   3.515  17.961  0.00  0.00    +0.000 A 
ATOM     33  CD1 TRP A   3       3.456   2.167  17.672  0.00  0.00    +0.000 A 
ATOM     34  NE1 TRP A   3       2.101   2.050  17.882  0.00  0.00    +0.000 N 
ATOM     35  CE2 TRP A   3       2.016   2.508  19.182  0.00  0.00    +0.000 A 
ATOM     36  CZ2 TRP A   3       1.182   2.071  20.202  0.00  0.00    +0.000 A 
ATOM     37  CH2 TRP A   3       1.315   2.718  21.418  0.00  0.00    +0.000 A 
ATOM     38  CZ3 TRP A   3       2.178   3.811  21.544  0.00  0.00    +0.000 A 
ATOM     39  CE3 TRP A   3       2.972   4.279  20.462  0.00  0.00    +0.000 A 
ATOM     40  CD2 TRP A   3       2.951   3.562  19.245  0.00  0.00    +0.000 A 
ATOM     41  HE1 TRP A   3       1.464   2.467  17.220  0.00  0.00    +0.000 HD
ENDBRANCH  31  32
ENDBRANCH  26  31
ENDBRANCH  24  26
ENDBRANCH   1  22
TORSDOF 13
ENDMDL
MODEL 9
REMARK VINA RESULT:      -8.3      6.380      7.816
REMARK  Name = 
REMARK  15 active torsions:
REMARK  status: ('A' for Active; 'I' for Inactive)
REMARK    1  A    between atoms: CG1_1  and  CB_2
REMARK    2  A    between atoms: CB_2  and  CG2_3
REMARK    3  A    between atoms: CB_2  and  CA_4
REMARK    4  A    between atoms: CA_4  and  N_5
REMARK    5  A    between atoms: CA_4  and  C_16
REMARK    6  A    between atoms: C_6  and  O_8
REMARK    7  A    between atoms: O_8  and  C_9
REMARK    8  A    between atoms: C_9  and  C_10
REMARK    9  A    between atoms: N_18  and  CA_19
REMARK   10  A    between atoms: CA_19  and  C_20
REMARK   11  A    between atoms: N_22  and  CA_23
REMARK   12  A    between atoms: CA_23  and  CB_24
REMARK   13  A    between atoms: CA_23  and  C_34
REMARK   14  A    between atoms: CB_24  and  CG_25
REMARK   15  A    between atoms: C_34  and  OXT_36
REMARK                            x       y       z     vdW  Elec       q    Type
REMARK                         _______ _______ _______ _____ _____    ______ ____
ROOT
ATOM      1  CA  GLY A   2       1.524   9.090  17.863  0.00  0.00    +0.000 C 
ENDROOT
BRANCH   1   4
ATOM      2  C   VAL A   1       0.459  10.274  19.774  0.00  0.00    +0.000 C 
ATOM      3  O   VAL A   1      -0.262   9.305  20.013  0.00  0.00    +0.000 OA
ATOM      4  N   GLY A   2       1.397  10.240  18.755  0.00  0.00    +0.000 N 
ATOM      5  H   GLY A   2       2.090  10.983  18.733  0.00  0.00    +0.000 HD
BRANCH   2   6
ATOM      6  CA  VAL A   1       0.428  11.545  20.695  0.00  0.00    +0.000 C 
BRANCH   6   7
ATOM      7  N   VAL A   1      -0.881  11.675  21.346  0.00  0.00    +0.000 N 
ATOM      8  C   UNK A   0      -1.122  11.274  22.613  0.00  0.00    +0.000 C 
ATOM      9  O   UNK A   0      -0.248  10.753  23.324  0.00  0.00    +0.000 OA
ATOM     10  H   VAL A   1      -1.601  12.226  20.905  0.00  0.00    +0.000 HD
BRANCH   8  11
ATOM     11  O   UNK A   0      -2.352  11.667  23.027  0.00  0.00    +0.000 OA
BRANCH  11  12
ATOM     12  C   UNK A   0      -2.839  12.807  22.300  0.00  0.00    +0.000 C 
BRANCH  12  13
ATOM     13  C   UNK A   0      -2.891  14.062  23.100  0.00  0.00    +0.000 A 
ATOM     14  C   UNK A   0      -2.530  15.273  22.479  0.00  0.00    +0.000 A 
ATOM     15  C   UNK A   0      -2.364  16.417  23.245  0.00  0.00    +0.000 A 
ATOM     16  C   UNK A   0      -2.594  16.358  24.620  0.00  0.00    +0.000 A 
ATOM     17  C   UNK A   0      -3.020  15.169  25.217  0.00  0.00    +0.000 A 
ATOM     18  C   UNK A   0      -3.184  14.022  24.463  0.00  0.00    +0.000 A 
ENDBRANCH  12  13
ENDBRANCH  11  12
ENDBRANCH   8  11
ENDBRANCH   6   7
BRANCH   6  20
ATOM     19  CG1 VAL A   1      -0.263  13.731  19.539  0.00  0.00    +0.000 C 
ATOM     20  CB  VAL A   1       0.909  12.841  19.983  0.00  0.00    +0.000 C 
ATOM     21  CG2 VAL A   1       1.825  13.673  20.888  0.00  0.00    +0.000 C 
ENDBRANCH   6  20
ENDBRANCH   2   6
ENDBRANCH   1   4
BRANCH   1  22
ATOM     22  C   GLY A   2       2.517   7.960  18.250  0.00  0.00    +0.000 C 
ATOM     23  O   GLY A   2       2.452   7.417  19.350  0.00  0.00    +0.000 OA
ATOM     24  N   TRP A   3       3.506   7.638  17.339  0.00  0.00    +0.000 N 
ATOM     25  H   TRP A   3       3.661   8.307  16.583  0.00  0.00    +0.000 HD
BRANCH  24  26
ATOM     26  CA  TRP A   3       4.558   6.541  17.443  0.00  0.00    +0.000 C 
BRANCH  26  27
ATOM     27  C   TRP A   3       5.634   6.903  16.418  0.00  0.00    +0.000 C 
ATOM     28  O   TRP A   3       6.813   7.116  16.628  0.00  0.00    +0.000 OA
BRANCH  27  29
ATOM     29  OXT TRP A   3       5.130   6.844  15.169  0.00  0.00    +0.000 OA
ATOM     30  HXT TRP A   3       5.862   6.912  14.518  0.00  0.00    +0.000 HD
ENDBRANCH  27  29
ENDBRANCH  26  27
BRANCH  26  31
ATOM     31  CB  TRP A   3       4.215   5.012  17.215  0.00  0.00    +0.000 C 
BRANCH  31  32
ATOM     32  CG  TRP A   3       4.044   4.172  18.473  0.00  0.00    +0.000 A 
ATOM     33  CD1 TRP A   3       5.115   3.823  19.290  0.00  0.00    +0.000 A 
ATOM     34  NE1 TRP A   3       4.754   2.547  19.659  0.00  0.00    +0.000 N 
ATOM     35  CE2 TRP A   3       3.509   2.793  20.202  0.00  0.00    +0.000 A 
ATOM     36  CZ2 TRP A   3       2.903   2.185  21.293  0.00  0.00    +0.000 A 
ATOM     37  CH2 TRP A   3       1.636   2.638  21.618  0.00  0.00    +0.000 A 
ATOM     38  CZ3 TRP A   3       0.996   3.581  20.808  0.00  0.00    +0.000 A 
ATOM     39  CE3 TRP A   3       1.615   4.137  19.656  0.00  0.00    +0.000 A 
ATOM     40  CD2 TRP A   3       2.954   3.789  19.370  0.00  0.00    +0.000 A 
ATOM     41  HE1 TRP A   3       4.805   1.806  18.977  0.00  0.00    +0.000 HD
ENDBRANCH  31  32
ENDBRANCH  26  31
ENDBRANCH  24  26
ENDBRANCH   1  22
TORSDOF 13
ENDMDL
