MODEL 1
REMARK VINA RESULT:      -7.6      0.000      0.000
REMARK  Name = 
REMARK  7 active torsions:
REMARK  status: ('A' for Active; 'I' for Inactive)
REMARK    1  A    between atoms: C_2  and  O_3
REMARK    2  A    between atoms: C_2  and  C_4
REMARK    3  A    between atoms: C_4  and  C_5
REMARK    4  A    between atoms: C_5  and  N_6
REMARK    5  A    between atoms: C_5  and  C_28
REMARK    6  A    between atoms: N_10  and  C_11
REMARK    7  A    between atoms: C_17  and  C_18
REMARK                            x       y       z     vdW  Elec       q    Type
REMARK                         _______ _______ _______ _____ _____    ______ ____
ROOT
ATOM      1  N   UNL     1      -1.946  12.679  20.141  0.00  0.00    +0.000 N 
ATOM      2  C   UNL     1      -3.174  12.353  19.637  0.00  0.00    +0.000 A 
ATOM      3  N   UNL     1      -3.208  11.985  18.299  0.00  0.00    +0.000 NA
ATOM      4  C   UNL     1      -4.354  11.689  17.748  0.00  0.00    +0.000 A 
ATOM      5  N   UNL     1      -4.591  11.283  16.448  0.00  0.00    +0.000 N 
ATOM      6  N   UNL     1      -5.499  11.778  18.546  0.00  0.00    +0.000 N 
ATOM      7  N   UNL     1      -6.753  11.510  18.099  0.00  0.00    +0.000 NA
ATOM      8  C   UNL     1      -7.494  11.726  19.191  0.00  0.00    +0.000 A 
ATOM      9  C   UNL     1      -6.717  12.069  20.323  0.00  0.00    +0.000 A 
ATOM     10  C   UNL     1      -5.426  12.112  19.861  0.00  0.00    +0.000 A 
ATOM     11  N   UNL     1      -4.224  12.387  20.414  0.00  0.00    +0.000 NA
ATOM     12  H   UNL     1      -1.200  12.439  19.491  0.00  0.00    +0.000 HD
ATOM     13  H   UNL     1      -5.565  11.062  16.238  0.00  0.00    +0.000 HD
ENDROOT
BRANCH   9  14
ATOM     14  C   UNL     1      -7.103  12.336  21.666  0.00  0.00    +0.000 C 
ATOM     15  C   UNL     1      -6.758  13.419  22.372  0.00  0.00    +0.000 C 
ATOM     16  N   UNL     1      -6.022  14.495  21.963  0.00  0.00    +0.000 N 
ATOM     17  C   UNL     1      -5.931  15.419  22.986  0.00  0.00    +0.000 C 
ATOM     18  O   UNL     1      -5.362  16.493  22.920  0.00  0.00    +0.000 OA
ATOM     19  N   UNL     1      -6.601  14.914  24.063  0.00  0.00    +0.000 N 
ATOM     20  C   UNL     1      -7.168  13.701  23.782  0.00  0.00    +0.000 C 
ATOM     21  O   UNL     1      -7.860  13.011  24.505  0.00  0.00    +0.000 OA
ATOM     22  H   UNL     1      -5.650  14.662  21.041  0.00  0.00    +0.000 HD
ATOM     23  H   UNL     1      -6.704  15.401  24.937  0.00  0.00    +0.000 HD
ENDBRANCH   9  14
BRANCH   5  24
ATOM     24  C   UNL     1      -3.549  11.040  15.473  0.00  0.00    +0.000 C 
ATOM     25  C   UNL     1      -2.786   9.750  15.422  0.00  0.00    +0.000 C 
ATOM     26  C   UNL     1      -3.802  10.051  14.362  0.00  0.00    +0.000 C 
ENDBRANCH   5  24
BRANCH   1  27
ATOM     27  C   UNL     1      -1.549  12.551  21.550  0.00  0.00    +0.000 C 
BRANCH  27  28
ATOM     28  C   UNL     1      -0.729  11.283  21.863  0.00  0.00    +0.000 A 
ATOM     29  C   UNL     1       0.242  10.786  20.967  0.00  0.00    +0.000 A 
ATOM     30  C   UNL     1       1.036   9.679  21.276  0.00  0.00    +0.000 A 
ATOM     31  C   UNL     1       0.881   9.035  22.495  0.00  0.00    +0.000 A 
ATOM     32  C   UNL     1      -0.073   9.496  23.399  0.00  0.00    +0.000 A 
ATOM     33  C   UNL     1      -0.862  10.613  23.092  0.00  0.00    +0.000 A 
ENDBRANCH  27  28
BRANCH  27  34
ATOM     34  C   UNL     1      -0.860  13.837  22.037  0.00  0.00    +0.000 C 
BRANCH  34  36
ATOM     35  O   UNL     1      -1.613  15.604  23.506  0.00  0.00    +0.000 OA
ATOM     36  C   UNL     1      -1.822  14.863  22.559  0.00  0.00    +0.000 C 
BRANCH  36  37
ATOM     37  O   UNL     1      -2.947  14.941  21.807  0.00  0.00    +0.000 OA
ATOM     38  H   UNL     1      -3.599  14.237  21.988  0.00  0.00    +0.000 HD
ENDBRANCH  36  37
ENDBRANCH  34  36
ENDBRANCH  27  34
ENDBRANCH   1  27
TORSDOF 7
ENDMDL
MODEL 2
REMARK VINA RESULT:      -7.3      3.247      5.846
REMARK  Name = 
REMARK  7 active torsions:
REMARK  status: ('A' for Active; 'I' for Inactive)
REMARK    1  A    between atoms: C_2  and  O_3
REMARK    2  A    between atoms: C_2  and  C_4
REMARK    3  A    between atoms: C_4  and  C_5
REMARK    4  A    between atoms: C_5  and  N_6
REMARK    5  A    between atoms: C_5  and  C_28
REMARK    6  A    between atoms: N_10  and  C_11
REMARK    7  A    between atoms: C_17  and  C_18
REMARK                            x       y       z     vdW  Elec       q    Type
REMARK                         _______ _______ _______ _____ _____    ______ ____
ROOT
ATOM      1  N   UNL     1       0.699  11.032  21.116  0.00  0.00    +0.000 N 
ATOM      2  C   UNL     1       0.050  12.230  21.017  0.00  0.00    +0.000 A 
ATOM      3  N   UNL     1       0.855  13.360  20.958  0.00  0.00    +0.000 NA
ATOM      4  C   UNL     1       0.299  14.538  20.892  0.00  0.00    +0.000 A 
ATOM      5  N   UNL     1       0.923  15.768  20.805  0.00  0.00    +0.000 N 
ATOM      6  N   UNL     1      -1.099  14.595  20.901  0.00  0.00    +0.000 N 
ATOM      7  N   UNL     1      -1.807  15.752  20.848  0.00  0.00    +0.000 NA
ATOM      8  C   UNL     1      -3.070  15.313  20.881  0.00  0.00    +0.000 A 
ATOM      9  C   UNL     1      -3.159  13.900  20.897  0.00  0.00    +0.000 A 
ATOM     10  C   UNL     1      -1.857  13.468  20.929  0.00  0.00    +0.000 A 
ATOM     11  N   UNL     1      -1.255  12.259  20.970  0.00  0.00    +0.000 NA
ATOM     12  H   UNL     1       1.701  11.135  20.961  0.00  0.00    +0.000 HD
ATOM     13  H   UNL     1       0.290  16.565  20.721  0.00  0.00    +0.000 HD
ENDROOT
BRANCH   9  14
ATOM     14  C   UNL     1      -4.295  13.044  20.894  0.00  0.00    +0.000 C 
ATOM     15  C   UNL     1      -4.785  12.407  19.823  0.00  0.00    +0.000 C 
ATOM     16  N   UNL     1      -4.295  12.400  18.548  0.00  0.00    +0.000 N 
ATOM     17  C   UNL     1      -5.072  11.581  17.751  0.00  0.00    +0.000 C 
ATOM     18  O   UNL     1      -4.874  11.348  16.573  0.00  0.00    +0.000 OA
ATOM     19  N   UNL     1      -6.076  11.078  18.526  0.00  0.00    +0.000 N 
ATOM     20  C   UNL     1      -5.975  11.504  19.822  0.00  0.00    +0.000 C 
ATOM     21  O   UNL     1      -6.683  11.208  20.765  0.00  0.00    +0.000 OA
ATOM     22  H   UNL     1      -3.455  12.848  18.217  0.00  0.00    +0.000 HD
ATOM     23  H   UNL     1      -6.773  10.434  18.191  0.00  0.00    +0.000 HD
ENDBRANCH   9  14
BRANCH   5  24
ATOM     24  C   UNL     1       2.355  15.943  20.694  0.00  0.00    +0.000 C 
ATOM     25  C   UNL     1       3.042  16.098  19.369  0.00  0.00    +0.000 C 
ATOM     26  C   UNL     1       2.898  17.286  20.271  0.00  0.00    +0.000 C 
ENDBRANCH   5  24
BRANCH   1  27
ATOM     27  C   UNL     1       0.173   9.743  20.646  0.00  0.00    +0.000 C 
BRANCH  27  28
ATOM     28  C   UNL     1       1.159   8.935  19.780  0.00  0.00    +0.000 A 
ATOM     29  C   UNL     1       1.740   7.733  20.239  0.00  0.00    +0.000 A 
ATOM     30  C   UNL     1       2.579   6.962  19.432  0.00  0.00    +0.000 A 
ATOM     31  C   UNL     1       2.863   7.371  18.137  0.00  0.00    +0.000 A 
ATOM     32  C   UNL     1       2.311   8.555  17.655  0.00  0.00    +0.000 A 
ATOM     33  C   UNL     1       1.461   9.323  18.462  0.00  0.00    +0.000 A 
ENDBRANCH  27  28
BRANCH  27  34
ATOM     34  C   UNL     1      -0.389   8.927  21.822  0.00  0.00    +0.000 C 
BRANCH  34  36
ATOM     35  O   UNL     1       0.768   9.605  23.834  0.00  0.00    +0.000 OA
ATOM     36  C   UNL     1      -0.240   9.616  23.147  0.00  0.00    +0.000 C 
BRANCH  36  37
ATOM     37  O   UNL     1      -1.339  10.337  23.476  0.00  0.00    +0.000 OA
ATOM     38  H   UNL     1      -1.201  10.960  24.216  0.00  0.00    +0.000 HD
ENDBRANCH  36  37
ENDBRANCH  34  36
ENDBRANCH  27  34
ENDBRANCH   1  27
TORSDOF 7
ENDMDL
MODEL 3
REMARK VINA RESULT:      -7.1      3.260      5.477
REMARK  Name = 
REMARK  7 active torsions:
REMARK  status: ('A' for Active; 'I' for Inactive)
REMARK    1  A    between atoms: C_2  and  O_3
REMARK    2  A    between atoms: C_2  and  C_4
REMARK    3  A    between atoms: C_4  and  C_5
REMARK    4  A    between atoms: C_5  and  N_6
REMARK    5  A    between atoms: C_5  and  C_28
REMARK    6  A    between atoms: N_10  and  C_11
REMARK    7  A    between atoms: C_17  and  C_18
REMARK                            x       y       z     vdW  Elec       q    Type
REMARK                         _______ _______ _______ _____ _____    ______ ____
ROOT
ATOM      1  N   UNL     1       0.686  11.046  20.833  0.00  0.00    +0.000 N 
ATOM      2  C   UNL     1      -0.004  12.222  20.738  0.00  0.00    +0.000 A 
ATOM      3  N   UNL     1       0.759  13.364  20.533  0.00  0.00    +0.000 NA
ATOM      4  C   UNL     1       0.165  14.524  20.461  0.00  0.00    +0.000 A 
ATOM      5  N   UNL     1       0.741  15.761  20.243  0.00  0.00    +0.000 N 
ATOM      6  N   UNL     1      -1.226  14.550  20.614  0.00  0.00    +0.000 N 
ATOM      7  N   UNL     1      -1.968  15.686  20.572  0.00  0.00    +0.000 NA
ATOM      8  C   UNL     1      -3.208  15.220  20.761  0.00  0.00    +0.000 A 
ATOM      9  C   UNL     1      -3.255  13.809  20.863  0.00  0.00    +0.000 A 
ATOM     10  C   UNL     1      -1.944  13.409  20.782  0.00  0.00    +0.000 A 
ATOM     11  N   UNL     1      -1.307  12.219  20.825  0.00  0.00    +0.000 NA
ATOM     12  H   UNL     1       1.663  11.163  20.569  0.00  0.00    +0.000 HD
ATOM     13  H   UNL     1       0.080  16.537  20.182  0.00  0.00    +0.000 HD
ENDROOT
BRANCH   9  14
ATOM     14  C   UNL     1      -4.359  12.929  21.025  0.00  0.00    +0.000 C 
ATOM     15  C   UNL     1      -5.274  12.648  20.088  0.00  0.00    +0.000 C 
ATOM     16  N   UNL     1      -5.323  13.092  18.798  0.00  0.00    +0.000 N 
ATOM     17  C   UNL     1      -6.407  12.532  18.149  0.00  0.00    +0.000 C 
ATOM     18  O   UNL     1      -6.703  12.713  16.982  0.00  0.00    +0.000 OA
ATOM     19  N   UNL     1      -7.062  11.737  19.044  0.00  0.00    +0.000 N 
ATOM     20  C   UNL     1      -6.432  11.719  20.258  0.00  0.00    +0.000 C 
ATOM     21  O   UNL     1      -6.733  11.084  21.250  0.00  0.00    +0.000 OA
ATOM     22  H   UNL     1      -4.650  13.679  18.330  0.00  0.00    +0.000 HD
ATOM     23  H   UNL     1      -7.878  11.194  18.819  0.00  0.00    +0.000 HD
ENDBRANCH   9  14
BRANCH   5  24
ATOM     24  C   UNL     1       2.149  15.962  19.973  0.00  0.00    +0.000 C 
ATOM     25  C   UNL     1       2.794  15.497  18.702  0.00  0.00    +0.000 C 
ATOM     26  C   UNL     1       2.557  16.961  18.919  0.00  0.00    +0.000 C 
ENDBRANCH   5  24
BRANCH   1  27
ATOM     27  C   UNL     1       0.151   9.721  20.491  0.00  0.00    +0.000 C 
BRANCH  27  28
ATOM     28  C   UNL     1       1.109   8.847  19.658  0.00  0.00    +0.000 A 
ATOM     29  C   UNL     1       1.501   9.211  18.352  0.00  0.00    +0.000 A 
ATOM     30  C   UNL     1       2.424   8.460  17.620  0.00  0.00    +0.000 A 
ATOM     31  C   UNL     1       2.983   7.318  18.176  0.00  0.00    +0.000 A 
ATOM     32  C   UNL     1       2.614   6.928  19.460  0.00  0.00    +0.000 A 
ATOM     33  C   UNL     1       1.695   7.688  20.198  0.00  0.00    +0.000 A 
ENDBRANCH  27  28
BRANCH  27  34
ATOM     34  C   UNL     1      -0.362   9.003  21.751  0.00  0.00    +0.000 C 
BRANCH  34  36
ATOM     35  O   UNL     1       1.151   9.566  23.552  0.00  0.00    +0.000 OA
ATOM     36  C   UNL     1       0.055   9.675  23.027  0.00  0.00    +0.000 C 
BRANCH  36  37
ATOM     37  O   UNL     1      -0.906  10.500  23.509  0.00  0.00    +0.000 OA
ATOM     38  H   UNL     1      -0.824  11.426  23.211  0.00  0.00    +0.000 HD
ENDBRANCH  36  37
ENDBRANCH  34  36
ENDBRANCH  27  34
ENDBRANCH   1  27
TORSDOF 7
ENDMDL
MODEL 4
REMARK VINA RESULT:      -7.1      7.347     10.278
REMARK  Name = 
REMARK  7 active torsions:
REMARK  status: ('A' for Active; 'I' for Inactive)
REMARK    1  A    between atoms: C_2  and  O_3
REMARK    2  A    between atoms: C_2  and  C_4
REMARK    3  A    between atoms: C_4  and  C_5
REMARK    4  A    between atoms: C_5  and  N_6
REMARK    5  A    between atoms: C_5  and  C_28
REMARK    6  A    between atoms: N_10  and  C_11
REMARK    7  A    between atoms: C_17  and  C_18
REMARK                            x       y       z     vdW  Elec       q    Type
REMARK                         _______ _______ _______ _____ _____    ______ ____
ROOT
ATOM      1  N   UNL     1       3.986   5.678  17.047  0.00  0.00    +0.000 N 
ATOM      2  C   UNL     1       3.198   6.055  18.098  0.00  0.00    +0.000 A 
ATOM      3  N   UNL     1       2.707   5.029  18.894  0.00  0.00    +0.000 NA
ATOM      4  C   UNL     1       1.925   5.318  19.898  0.00  0.00    +0.000 A 
ATOM      5  N   UNL     1       1.358   4.448  20.810  0.00  0.00    +0.000 N 
ATOM      6  N   UNL     1       1.608   6.665  20.106  0.00  0.00    +0.000 N 
ATOM      7  N   UNL     1       0.799   7.105  21.103  0.00  0.00    +0.000 NA
ATOM      8  C   UNL     1       0.796   8.427  20.902  0.00  0.00    +0.000 A 
ATOM      9  C   UNL     1       1.635   8.822  19.833  0.00  0.00    +0.000 A 
ATOM     10  C   UNL     1       2.131   7.647  19.325  0.00  0.00    +0.000 A 
ATOM     11  N   UNL     1       2.961   7.322  18.310  0.00  0.00    +0.000 NA
ATOM     12  H   UNL     1       4.237   4.693  17.103  0.00  0.00    +0.000 HD
ATOM     13  H   UNL     1       0.808   4.896  21.545  0.00  0.00    +0.000 HD
ENDROOT
BRANCH   9  14
ATOM     14  C   UNL     1       1.941  10.114  19.324  0.00  0.00    +0.000 C 
ATOM     15  C   UNL     1       1.046  11.014  18.900  0.00  0.00    +0.000 C 
ATOM     16  N   UNL     1      -0.316  10.916  18.905  0.00  0.00    +0.000 N 
ATOM     17  C   UNL     1      -0.874  12.085  18.422  0.00  0.00    +0.000 C 
ATOM     18  O   UNL     1      -2.065  12.314  18.328  0.00  0.00    +0.000 OA
ATOM     19  N   UNL     1       0.149  12.927  18.090  0.00  0.00    +0.000 N 
ATOM     20  C   UNL     1       1.368  12.374  18.370  0.00  0.00    +0.000 C 
ATOM     21  O   UNL     1       2.468  12.874  18.232  0.00  0.00    +0.000 OA
ATOM     22  H   UNL     1      -0.870  10.156  19.267  0.00  0.00    +0.000 HD
ATOM     23  H   UNL     1       0.015  13.857  17.732  0.00  0.00    +0.000 HD
ENDBRANCH   9  14
BRANCH   5  24
ATOM     24  C   UNL     1       1.616   3.024  20.839  0.00  0.00    +0.000 C 
ATOM     25  C   UNL     1       2.827   2.444  21.507  0.00  0.00    +0.000 C 
ATOM     26  C   UNL     1       1.481   2.283  22.147  0.00  0.00    +0.000 C 
ENDBRANCH   5  24
BRANCH   1  27
ATOM     27  C   UNL     1       5.034   6.507  16.436  0.00  0.00    +0.000 C 
BRANCH  27  28
ATOM     28  C   UNL     1       6.282   6.703  17.320  0.00  0.00    +0.000 A 
ATOM     29  C   UNL     1       7.063   7.877  17.254  0.00  0.00    +0.000 A 
ATOM     30  C   UNL     1       8.153   8.089  18.101  0.00  0.00    +0.000 A 
ATOM     31  C   UNL     1       8.494   7.129  19.044  0.00  0.00    +0.000 A 
ATOM     32  C   UNL     1       7.747   5.958  19.132  0.00  0.00    +0.000 A 
ATOM     33  C   UNL     1       6.648   5.750  18.287  0.00  0.00    +0.000 A 
ENDBRANCH  27  28
BRANCH  27  34
ATOM     34  C   UNL     1       5.380   5.991  15.029  0.00  0.00    +0.000 C 
BRANCH  34  36
ATOM     35  O   UNL     1       6.123   3.721  15.407  0.00  0.00    +0.000 OA
ATOM     36  C   UNL     1       6.365   4.859  15.039  0.00  0.00    +0.000 C 
BRANCH  36  37
ATOM     37  O   UNL     1       7.561   5.216  14.511  0.00  0.00    +0.000 OA
ATOM     38  H   UNL     1       8.241   4.516  14.552  0.00  0.00    +0.000 HD
ENDBRANCH  36  37
ENDBRANCH  34  36
ENDBRANCH  27  34
ENDBRANCH   1  27
TORSDOF 7
ENDMDL
MODEL 5
REMARK VINA RESULT:      -7.0      2.692      3.618
REMARK  Name = 
REMARK  7 active torsions:
REMARK  status: ('A' for Active; 'I' for Inactive)
REMARK    1  A    between atoms: C_2  and  O_3
REMARK    2  A    between atoms: C_2  and  C_4
REMARK    3  A    between atoms: C_4  and  C_5
REMARK    4  A    between atoms: C_5  and  N_6
REMARK    5  A    between atoms: C_5  and  C_28
REMARK    6  A    between atoms: N_10  and  C_11
REMARK    7  A    between atoms: C_17  and  C_18
REMARK                            x       y       z     vdW  Elec       q    Type
REMARK                         _______ _______ _______ _____ _____    ______ ____
ROOT
ATOM      1  N   UNL     1      -0.202  10.467  18.073  0.00  0.00    +0.000 N 
ATOM      2  C   UNL     1      -1.523  10.813  18.034  0.00  0.00    +0.000 A 
ATOM      3  N   UNL     1      -2.223  10.432  16.897  0.00  0.00    +0.000 NA
ATOM      4  C   UNL     1      -3.481  10.756  16.783  0.00  0.00    +0.000 A 
ATOM      5  N   UNL     1      -4.346  10.454  15.748  0.00  0.00    +0.000 N 
ATOM      6  N   UNL     1      -4.056  11.495  17.822  0.00  0.00    +0.000 N 
ATOM      7  N   UNL     1      -5.350  11.908  17.830  0.00  0.00    +0.000 NA
ATOM      8  C   UNL     1      -5.433  12.559  18.995  0.00  0.00    +0.000 A 
ATOM      9  C   UNL     1      -4.229  12.508  19.739  0.00  0.00    +0.000 A 
ATOM     10  C   UNL     1      -3.350  11.826  18.936  0.00  0.00    +0.000 A 
ATOM     11  N   UNL     1      -2.056  11.453  19.040  0.00  0.00    +0.000 NA
ATOM     12  H   UNL     1       0.038   9.823  17.321  0.00  0.00    +0.000 HD
ATOM     13  H   UNL     1      -5.307  10.773  15.884  0.00  0.00    +0.000 HD
ENDROOT
BRANCH   9  14
ATOM     14  C   UNL     1      -3.912  13.029  21.023  0.00  0.00    +0.000 C 
ATOM     15  C   UNL     1      -4.686  12.937  22.112  0.00  0.00    +0.000 C 
ATOM     16  N   UNL     1      -5.889  12.305  22.241  0.00  0.00    +0.000 N 
ATOM     17  C   UNL     1      -6.337  12.408  23.544  0.00  0.00    +0.000 C 
ATOM     18  O   UNL     1      -7.366  11.924  23.978  0.00  0.00    +0.000 OA
ATOM     19  N   UNL     1      -5.415  13.130  24.245  0.00  0.00    +0.000 N 
ATOM     20  C   UNL     1      -4.349  13.481  23.463  0.00  0.00    +0.000 C 
ATOM     21  O   UNL     1      -3.347  14.087  23.789  0.00  0.00    +0.000 OA
ATOM     22  H   UNL     1      -6.373  11.769  21.537  0.00  0.00    +0.000 HD
ATOM     23  H   UNL     1      -5.491  13.333  25.227  0.00  0.00    +0.000 HD
ENDBRANCH   9  14
BRANCH   5  24
ATOM     24  C   UNL     1      -3.992   9.628  14.613  0.00  0.00    +0.000 C 
ATOM     25  C   UNL     1      -4.377   9.991  13.209  0.00  0.00    +0.000 C 
ATOM     26  C   UNL     1      -2.949  10.126  13.643  0.00  0.00    +0.000 C 
ENDBRANCH   5  24
BRANCH   1  27
ATOM     27  C   UNL     1       0.578  10.240  19.298  0.00  0.00    +0.000 C 
BRANCH  27  28
ATOM     28  C   UNL     1       1.326   8.893  19.331  0.00  0.00    +0.000 A 
ATOM     29  C   UNL     1       2.052   8.418  18.218  0.00  0.00    +0.000 A 
ATOM     30  C   UNL     1       2.789   7.232  18.266  0.00  0.00    +0.000 A 
ATOM     31  C   UNL     1       2.821   6.484  19.434  0.00  0.00    +0.000 A 
ATOM     32  C   UNL     1       2.111   6.921  20.549  0.00  0.00    +0.000 A 
ATOM     33  C   UNL     1       1.380   8.117  20.502  0.00  0.00    +0.000 A 
ENDBRANCH  27  28
BRANCH  27  34
ATOM     34  C   UNL     1       1.501  11.438  19.581  0.00  0.00    +0.000 C 
BRANCH  34  36
ATOM     35  O   UNL     1       1.006  13.438  18.316  0.00  0.00    +0.000 OA
ATOM     36  C   UNL     1       1.613  12.385  18.423  0.00  0.00    +0.000 C 
BRANCH  36  37
ATOM     37  O   UNL     1       2.540  11.984  17.520  0.00  0.00    +0.000 OA
ATOM     38  H   UNL     1       3.418  11.795  17.905  0.00  0.00    +0.000 HD
ENDBRANCH  36  37
ENDBRANCH  34  36
ENDBRANCH  27  34
ENDBRANCH   1  27
TORSDOF 7
ENDMDL
MODEL 6
REMARK VINA RESULT:      -6.9      3.470      5.926
REMARK  Name = 
REMARK  7 active torsions:
REMARK  status: ('A' for Active; 'I' for Inactive)
REMARK    1  A    between atoms: C_2  and  O_3
REMARK    2  A    between atoms: C_2  and  C_4
REMARK    3  A    between atoms: C_4  and  C_5
REMARK    4  A    between atoms: C_5  and  N_6
REMARK    5  A    between atoms: C_5  and  C_28
REMARK    6  A    between atoms: N_10  and  C_11
REMARK    7  A    between atoms: C_17  and  C_18
REMARK                            x       y       z     vdW  Elec       q    Type
REMARK                         _______ _______ _______ _____ _____    ______ ____
ROOT
ATOM      1  N   UNL     1       1.101  10.972  21.232  0.00  0.00    +0.000 N 
ATOM      2  C   UNL     1       0.739  12.286  21.138  0.00  0.00    +0.000 A 
ATOM      3  N   UNL     1       1.775  13.210  21.161  0.00  0.00    +0.000 NA
ATOM      4  C   UNL     1       1.496  14.483  21.104  0.00  0.00    +0.000 A 
ATOM      5  N   UNL     1       2.380  15.547  21.093  0.00  0.00    +0.000 N 
ATOM      6  N   UNL     1       0.148  14.849  21.039  0.00  0.00    +0.000 N 
ATOM      7  N   UNL     1      -0.284  16.135  20.985  0.00  0.00    +0.000 NA
ATOM      8  C   UNL     1      -1.612  15.986  20.934  0.00  0.00    +0.000 A 
ATOM      9  C   UNL     1      -2.011  14.628  20.897  0.00  0.00    +0.000 A 
ATOM     10  C   UNL     1      -0.840  13.917  20.987  0.00  0.00    +0.000 A 
ATOM     11  N   UNL     1      -0.523  12.605  21.019  0.00  0.00    +0.000 NA
ATOM     12  H   UNL     1       2.108  10.854  21.136  0.00  0.00    +0.000 HD
ATOM     13  H   UNL     1       1.944  16.466  21.001  0.00  0.00    +0.000 HD
ENDROOT
BRANCH   9  14
ATOM     14  C   UNL     1      -3.304  14.045  20.802  0.00  0.00    +0.000 C 
ATOM     15  C   UNL     1      -3.948  13.417  21.794  0.00  0.00    +0.000 C 
ATOM     16  N   UNL     1      -3.542  13.242  23.086  0.00  0.00    +0.000 N 
ATOM     17  C   UNL     1      -4.519  12.576  23.801  0.00  0.00    +0.000 C 
ATOM     18  O   UNL     1      -4.463  12.297  24.984  0.00  0.00    +0.000 OA
ATOM     19  N   UNL     1      -5.550  12.310  22.946  0.00  0.00    +0.000 N 
ATOM     20  C   UNL     1      -5.309  12.808  21.695  0.00  0.00    +0.000 C 
ATOM     21  O   UNL     1      -6.038  12.776  20.723  0.00  0.00    +0.000 OA
ATOM     22  H   UNL     1      -2.699  13.595  23.512  0.00  0.00    +0.000 HD
ATOM     23  H   UNL     1      -6.400  11.849  23.221  0.00  0.00    +0.000 HD
ENDBRANCH   9  14
BRANCH   5  24
ATOM     24  C   UNL     1       3.820  15.402  21.067  0.00  0.00    +0.000 C 
ATOM     25  C   UNL     1       4.595  15.340  19.784  0.00  0.00    +0.000 C 
ATOM     26  C   UNL     1       4.665  16.574  20.632  0.00  0.00    +0.000 C 
ENDBRANCH   5  24
BRANCH   1  27
ATOM     27  C   UNL     1       0.334   9.842  20.690  0.00  0.00    +0.000 C 
BRANCH  27  28
ATOM     28  C   UNL     1       1.153   8.893  19.794  0.00  0.00    +0.000 A 
ATOM     29  C   UNL     1       1.429   9.199  18.444  0.00  0.00    +0.000 A 
ATOM     30  C   UNL     1       2.230   8.377  17.648  0.00  0.00    +0.000 A 
ATOM     31  C   UNL     1       2.780   7.220  18.181  0.00  0.00    +0.000 A 
ATOM     32  C   UNL     1       2.522   6.885  19.507  0.00  0.00    +0.000 A 
ATOM     33  C   UNL     1       1.727   7.717  20.308  0.00  0.00    +0.000 A 
ENDBRANCH  27  28
BRANCH  27  34
ATOM     34  C   UNL     1      -0.406   9.101  21.817  0.00  0.00    +0.000 C 
BRANCH  34  36
ATOM     35  O   UNL     1       0.496   9.684  23.983  0.00  0.00    +0.000 OA
ATOM     36  C   UNL     1      -0.365   9.826  23.130  0.00  0.00    +0.000 C 
BRANCH  36  37
ATOM     37  O   UNL     1      -1.362  10.737  23.244  0.00  0.00    +0.000 OA
ATOM     38  H   UNL     1      -1.881  10.660  24.068  0.00  0.00    +0.000 HD
ENDBRANCH  36  37
ENDBRANCH  34  36
ENDBRANCH  27  34
ENDBRANCH   1  27
TORSDOF 7
ENDMDL
MODEL 7
REMARK VINA RESULT:      -6.9      7.331     10.288
REMARK  Name = 
REMARK  7 active torsions:
REMARK  status: ('A' for Active; 'I' for Inactive)
REMARK    1  A    between atoms: C_2  and  O_3
REMARK    2  A    between atoms: C_2  and  C_4
REMARK    3  A    between atoms: C_4  and  C_5
REMARK    4  A    between atoms: C_5  and  N_6
REMARK    5  A    between atoms: C_5  and  C_28
REMARK    6  A    between atoms: N_10  and  C_11
REMARK    7  A    between atoms: C_17  and  C_18
REMARK                            x       y       z     vdW  Elec       q    Type
REMARK                         _______ _______ _______ _____ _____    ______ ____
ROOT
ATOM      1  N   UNL     1       4.173   5.676  17.202  0.00  0.00    +0.000 N 
ATOM      2  C   UNL     1       3.381   6.128  18.219  0.00  0.00    +0.000 A 
ATOM      3  N   UNL     1       3.022   5.191  19.179  0.00  0.00    +0.000 NA
ATOM      4  C   UNL     1       2.243   5.550  20.163  0.00  0.00    +0.000 A 
ATOM      5  N   UNL     1       1.796   4.777  21.217  0.00  0.00    +0.000 N 
ATOM      6  N   UNL     1       1.796   6.876  20.184  0.00  0.00    +0.000 N 
ATOM      7  N   UNL     1       0.975   7.380  21.140  0.00  0.00    +0.000 NA
ATOM      8  C   UNL     1       0.830   8.650  20.747  0.00  0.00    +0.000 A 
ATOM      9  C   UNL     1       1.592   8.959  19.595  0.00  0.00    +0.000 A 
ATOM     10  C   UNL     1       2.191   7.775  19.245  0.00  0.00    +0.000 A 
ATOM     11  N   UNL     1       3.020   7.384  18.253  0.00  0.00    +0.000 NA
ATOM     12  H   UNL     1       4.526   4.739  17.391  0.00  0.00    +0.000 HD
ATOM     13  H   UNL     1       1.224   5.275  21.902  0.00  0.00    +0.000 HD
ENDROOT
BRANCH   9  14
ATOM     14  C   UNL     1       1.748  10.183  18.888  0.00  0.00    +0.000 C 
ATOM     15  C   UNL     1       1.555  11.405  19.399  0.00  0.00    +0.000 C 
ATOM     16  N   UNL     1       1.223  11.741  20.680  0.00  0.00    +0.000 N 
ATOM     17  C   UNL     1       1.164  13.116  20.806  0.00  0.00    +0.000 C 
ATOM     18  O   UNL     1       0.918  13.723  21.832  0.00  0.00    +0.000 OA
ATOM     19  N   UNL     1       1.444  13.657  19.584  0.00  0.00    +0.000 N 
ATOM     20  C   UNL     1       1.724  12.691  18.657  0.00  0.00    +0.000 C 
ATOM     21  O   UNL     1       2.050  12.839  17.495  0.00  0.00    +0.000 OA
ATOM     22  H   UNL     1       1.106  11.116  21.462  0.00  0.00    +0.000 HD
ATOM     23  H   UNL     1       1.487  14.646  19.406  0.00  0.00    +0.000 HD
ENDBRANCH   9  14
BRANCH   5  24
ATOM     24  C   UNL     1       2.200   3.406  21.445  0.00  0.00    +0.000 C 
ATOM     25  C   UNL     1       1.272   2.386  22.035  0.00  0.00    +0.000 C 
ATOM     26  C   UNL     1       1.616   2.317  20.578  0.00  0.00    +0.000 C 
ENDBRANCH   5  24
BRANCH   1  27
ATOM     27  C   UNL     1       5.112   6.501  16.429  0.00  0.00    +0.000 C 
BRANCH  27  28
ATOM     28  C   UNL     1       6.360   6.945  17.218  0.00  0.00    +0.000 A 
ATOM     29  C   UNL     1       6.904   8.240  17.080  0.00  0.00    +0.000 A 
ATOM     30  C   UNL     1       7.991   8.670  17.844  0.00  0.00    +0.000 A 
ATOM     31  C   UNL     1       8.569   7.814  18.770  0.00  0.00    +0.000 A 
ATOM     32  C   UNL     1       8.060   6.527  18.926  0.00  0.00    +0.000 A 
ATOM     33  C   UNL     1       6.962   6.101  18.167  0.00  0.00    +0.000 A 
ENDBRANCH  27  28
BRANCH  27  34
ATOM     34  C   UNL     1       5.464   5.817  15.098  0.00  0.00    +0.000 C 
BRANCH  34  36
ATOM     35  O   UNL     1       7.638   4.775  14.906  0.00  0.00    +0.000 OA
ATOM     36  C   UNL     1       6.468   4.712  15.247  0.00  0.00    +0.000 C 
BRANCH  36  37
ATOM     37  O   UNL     1       5.952   3.634  15.886  0.00  0.00    +0.000 OA
ATOM     38  H   UNL     1       4.978   3.579  15.856  0.00  0.00    +0.000 HD
ENDBRANCH  36  37
ENDBRANCH  34  36
ENDBRANCH  27  34
ENDBRANCH   1  27
TORSDOF 7
ENDMDL
MODEL 8
REMARK VINA RESULT:      -6.9      0.848      1.211
REMARK  Name = 
REMARK  7 active torsions:
REMARK  status: ('A' for Active; 'I' for Inactive)
REMARK    1  A    between atoms: C_2  and  O_3
REMARK    2  A    between atoms: C_2  and  C_4
REMARK    3  A    between atoms: C_4  and  C_5
REMARK    4  A    between atoms: C_5  and  N_6
REMARK    5  A    between atoms: C_5  and  C_28
REMARK    6  A    between atoms: N_10  and  C_11
REMARK    7  A    between atoms: C_17  and  C_18
REMARK                            x       y       z     vdW  Elec       q    Type
REMARK                         _______ _______ _______ _____ _____    ______ ____
ROOT
ATOM      1  N   UNL     1      -1.766  12.814  19.927  0.00  0.00    +0.000 N 
ATOM      2  C   UNL     1      -2.997  12.422  19.481  0.00  0.00    +0.000 A 
ATOM      3  N   UNL     1      -3.066  12.013  18.156  0.00  0.00    +0.000 NA
ATOM      4  C   UNL     1      -4.218  11.654  17.659  0.00  0.00    +0.000 A 
ATOM      5  N   UNL     1      -4.487  11.200  16.381  0.00  0.00    +0.000 N 
ATOM      6  N   UNL     1      -5.335  11.718  18.498  0.00  0.00    +0.000 N 
ATOM      7  N   UNL     1      -6.592  11.384  18.109  0.00  0.00    +0.000 NA
ATOM      8  C   UNL     1      -7.300  11.601  19.223  0.00  0.00    +0.000 A 
ATOM      9  C   UNL     1      -6.496  12.009  20.314  0.00  0.00    +0.000 A 
ATOM     10  C   UNL     1      -5.226  12.093  19.800  0.00  0.00    +0.000 A 
ATOM     11  N   UNL     1      -4.017  12.434  20.297  0.00  0.00    +0.000 NA
ATOM     12  H   UNL     1      -1.035  12.586  19.255  0.00  0.00    +0.000 HD
ATOM     13  H   UNL     1      -5.458  10.932  16.216  0.00  0.00    +0.000 HD
ENDROOT
BRANCH   9  14
ATOM     14  C   UNL     1      -6.842  12.299  21.662  0.00  0.00    +0.000 C 
ATOM     15  C   UNL     1      -7.163  13.508  22.139  0.00  0.00    +0.000 C 
ATOM     16  N   UNL     1      -7.274  14.684  21.453  0.00  0.00    +0.000 N 
ATOM     17  C   UNL     1      -7.670  15.693  22.309  0.00  0.00    +0.000 C 
ATOM     18  O   UNL     1      -7.881  16.849  21.991  0.00  0.00    +0.000 OA
ATOM     19  N   UNL     1      -7.795  15.154  23.557  0.00  0.00    +0.000 N 
ATOM     20  C   UNL     1      -7.531  13.811  23.555  0.00  0.00    +0.000 C 
ATOM     21  O   UNL     1      -7.592  13.034  24.488  0.00  0.00    +0.000 OA
ATOM     22  H   UNL     1      -7.165  14.821  20.460  0.00  0.00    +0.000 HD
ATOM     23  H   UNL     1      -8.094  15.674  24.365  0.00  0.00    +0.000 HD
ENDBRANCH   9  14
BRANCH   5  24
ATOM     24  C   UNL     1      -3.473  10.972  15.373  0.00  0.00    +0.000 C 
ATOM     25  C   UNL     1      -2.698   9.691  15.293  0.00  0.00    +0.000 C 
ATOM     26  C   UNL     1      -3.750   9.984  14.267  0.00  0.00    +0.000 C 
ENDBRANCH   5  24
BRANCH   1  27
ATOM     27  C   UNL     1      -1.310  12.743  21.322  0.00  0.00    +0.000 C 
BRANCH  27  28
ATOM     28  C   UNL     1      -0.606  11.423  21.692  0.00  0.00    +0.000 A 
ATOM     29  C   UNL     1      -0.785  10.812  22.952  0.00  0.00    +0.000 A 
ATOM     30  C   UNL     1      -0.205   9.581  23.266  0.00  0.00    +0.000 A 
ATOM     31  C   UNL     1       0.573   8.922  22.325  0.00  0.00    +0.000 A 
ATOM     32  C   UNL     1       0.774   9.500  21.074  0.00  0.00    +0.000 A 
ATOM     33  C   UNL     1       0.184  10.731  20.757  0.00  0.00    +0.000 A 
ENDBRANCH  27  28
BRANCH  27  34
ATOM     34  C   UNL     1      -0.471  13.982  21.680  0.00  0.00    +0.000 C 
BRANCH  34  36
ATOM     35  O   UNL     1      -1.049  14.142  24.023  0.00  0.00    +0.000 OA
ATOM     36  C   UNL     1      -0.936  14.672  22.929  0.00  0.00    +0.000 C 
BRANCH  36  37
ATOM     37  O   UNL     1      -1.150  15.996  22.734  0.00  0.00    +0.000 OA
ATOM     38  H   UNL     1      -2.059  16.216  22.452  0.00  0.00    +0.000 HD
ENDBRANCH  36  37
ENDBRANCH  34  36
ENDBRANCH  27  34
ENDBRANCH   1  27
TORSDOF 7
ENDMDL
MODEL 9
REMARK VINA RESULT:      -6.9      3.010      5.328
REMARK  Name = 
REMARK  7 active torsions:
REMARK  status: ('A' for Active; 'I' for Inactive)
REMARK    1  A    between atoms: C_2  and  O_3
REMARK    2  A    between atoms: C_2  and  C_4
REMARK    3  A    between atoms: C_4  and  C_5
REMARK    4  A    between atoms: C_5  and  N_6
REMARK    5  A    between atoms: C_5  and  C_28
REMARK    6  A    between atoms: N_10  and  C_11
REMARK    7  A    between atoms: C_17  and  C_18
REMARK                            x       y       z     vdW  Elec       q    Type
REMARK                         _______ _______ _______ _____ _____    ______ ____
ROOT
ATOM      1  N   UNL     1      -0.221  11.876  21.484  0.00  0.00    +0.000 N 
ATOM      2  C   UNL     1      -0.636  11.389  20.277  0.00  0.00    +0.000 A 
ATOM      3  N   UNL     1       0.297  10.650  19.561  0.00  0.00    +0.000 NA
ATOM      4  C   UNL     1      -0.025  10.180  18.388  0.00  0.00    +0.000 A 
ATOM      5  N   UNL     1       0.749   9.411  17.539  0.00  0.00    +0.000 N 
ATOM      6  N   UNL     1      -1.307  10.467  17.904  0.00  0.00    +0.000 N 
ATOM      7  N   UNL     1      -1.769  10.051  16.697  0.00  0.00    +0.000 NA
ATOM      8  C   UNL     1      -3.008  10.555  16.680  0.00  0.00    +0.000 A 
ATOM      9  C   UNL     1      -3.343  11.228  17.879  0.00  0.00    +0.000 A 
ATOM     10  C   UNL     1      -2.205  11.168  18.644  0.00  0.00    +0.000 A 
ATOM     11  N   UNL     1      -1.856  11.619  19.868  0.00  0.00    +0.000 NA
ATOM     12  H   UNL     1       0.674  11.477  21.761  0.00  0.00    +0.000 HD
ATOM     13  H   UNL     1       0.280   9.115  16.681  0.00  0.00    +0.000 HD
ENDROOT
BRANCH   9  14
ATOM     14  C   UNL     1      -4.552  11.861  18.278  0.00  0.00    +0.000 C 
ATOM     15  C   UNL     1      -5.627  11.239  18.778  0.00  0.00    +0.000 C 
ATOM     16  N   UNL     1      -5.782   9.910  19.051  0.00  0.00    +0.000 N 
ATOM     17  C   UNL     1      -7.029   9.685  19.601  0.00  0.00    +0.000 C 
ATOM     18  O   UNL     1      -7.453   8.607  19.974  0.00  0.00    +0.000 OA
ATOM     19  N   UNL     1      -7.680  10.884  19.659  0.00  0.00    +0.000 N 
ATOM     20  C   UNL     1      -6.895  11.906  19.202  0.00  0.00    +0.000 C 
ATOM     21  O   UNL     1      -7.160  13.092  19.159  0.00  0.00    +0.000 OA
ATOM     22  H   UNL     1      -5.089   9.184  18.953  0.00  0.00    +0.000 HD
ATOM     23  H   UNL     1      -8.604  11.001  20.039  0.00  0.00    +0.000 HD
ENDBRANCH   9  14
BRANCH   5  24
ATOM     24  C   UNL     1       2.071   8.923  17.869  0.00  0.00    +0.000 C 
ATOM     25  C   UNL     1       2.299   7.879  18.922  0.00  0.00    +0.000 C 
ATOM     26  C   UNL     1       2.451   7.517  17.476  0.00  0.00    +0.000 C 
ENDBRANCH   5  24
BRANCH   1  27
ATOM     27  C   UNL     1      -1.099  12.169  22.625  0.00  0.00    +0.000 C 
BRANCH  27  28
ATOM     28  C   UNL     1      -2.298  13.076  22.284  0.00  0.00    +0.000 A 
ATOM     29  C   UNL     1      -3.630  12.622  22.397  0.00  0.00    +0.000 A 
ATOM     30  C   UNL     1      -4.721  13.460  22.157  0.00  0.00    +0.000 A 
ATOM     31  C   UNL     1      -4.510  14.783  21.795  0.00  0.00    +0.000 A 
ATOM     32  C   UNL     1      -3.209  15.262  21.669  0.00  0.00    +0.000 A 
ATOM     33  C   UNL     1      -2.115  14.422  21.920  0.00  0.00    +0.000 A 
ENDBRANCH  27  28
BRANCH  27  34
ATOM     34  C   UNL     1      -1.521  10.869  23.331  0.00  0.00    +0.000 C 
BRANCH  34  36
ATOM     35  O   UNL     1       0.621   9.820  23.729  0.00  0.00    +0.000 OA
ATOM     36  C   UNL     1      -0.493   9.781  23.231  0.00  0.00    +0.000 C 
BRANCH  36  37
ATOM     37  O   UNL     1      -0.964   8.688  22.583  0.00  0.00    +0.000 OA
ATOM     38  H   UNL     1      -1.553   8.892  21.832  0.00  0.00    +0.000 HD
ENDBRANCH  36  37
ENDBRANCH  34  36
ENDBRANCH  27  34
ENDBRANCH   1  27
TORSDOF 7
ENDMDL
