MODEL 1
REMARK VINA RESULT:      -8.4      0.000      0.000
REMARK  Name = 
REMARK  12 active torsions:
REMARK  status: ('A' for Active; 'I' for Inactive)
REMARK    1  A    between atoms: C_1  and  N_2
REMARK    2  A    between atoms: C_5  and  C_6
REMARK    3  A    between atoms: C_12  and  C_13
REMARK    4  A    between atoms: C_16  and  O_17
REMARK    5  A    between atoms: O_17  and  C_18
REMARK    6  A    between atoms: C_18  and  C_19
REMARK    7  A    between atoms: C_21  and  O_22
REMARK    8  A    between atoms: O_22  and  C_23
REMARK    9  A    between atoms: C_23  and  C_24
REMARK   10  A    between atoms: C_24  and  O_25
REMARK   11  A    between atoms: O_25  and  C_26
REMARK   12  A    between atoms: C_26  and  C_27
REMARK                            x       y       z     vdW  Elec       q    Type
REMARK                         _______ _______ _______ _____ _____    ______ ____
ROOT
ATOM      1  O   UNL     1       1.406   9.545  19.671  0.00  0.00    +0.000 OA
ENDROOT
BRANCH   1   5
ATOM      2  C   UNL     1       2.614   5.609  18.849  0.00  0.00    +0.000 A 
ATOM      3  C   UNL     1       2.285   5.978  20.160  0.00  0.00    +0.000 A 
ATOM      4  C   UNL     1       1.869   7.274  20.474  0.00  0.00    +0.000 A 
ATOM      5  C   UNL     1       1.841   8.260  19.491  0.00  0.00    +0.000 A 
ATOM      6  C   UNL     1       2.199   7.920  18.185  0.00  0.00    +0.000 A 
ATOM      7  C   UNL     1       2.567   6.606  17.860  0.00  0.00    +0.000 A 
BRANCH   2  13
ATOM      8  C   UNL     1       0.867   3.139  19.662  0.00  0.00    +0.000 C 
ATOM      9  N   UNL     1       2.091   3.125  18.892  0.00  0.00    +0.000 N 
ATOM     10  N   UNL     1       2.509   1.938  18.421  0.00  0.00    +0.000 NA
ATOM     11  C   UNL     1       3.631   2.230  17.773  0.00  0.00    +0.000 A 
ATOM     12  C   UNL     1       3.977   3.600  17.834  0.00  0.00    +0.000 A 
ATOM     13  C   UNL     1       2.909   4.190  18.539  0.00  0.00    +0.000 A 
BRANCH  12  14
ATOM     14  C   UNL     1       5.118   4.252  17.253  0.00  0.00    +0.000 A 
ATOM     15  C   UNL     1       5.179   4.478  15.872  0.00  0.00    +0.000 A 
ATOM     16  C   UNL     1       6.259   5.156  15.330  0.00  0.00    +0.000 A 
ATOM     17  N   UNL     1       7.274   5.649  16.065  0.00  0.00    +0.000 NA
ATOM     18  C   UNL     1       7.220   5.414  17.398  0.00  0.00    +0.000 A 
ATOM     19  C   UNL     1       6.190   4.719  18.017  0.00  0.00    +0.000 A 
ENDBRANCH  12  14
ENDBRANCH   2  13
ENDBRANCH   1   5
BRANCH   1  20
ATOM     20  C   UNL     1       0.419  10.002  18.744  0.00  0.00    +0.000 C 
BRANCH  20  21
ATOM     21  C   UNL     1      -0.495  11.014  19.396  0.00  0.00    +0.000 A 
ATOM     22  C   UNL     1      -1.740  11.263  18.829  0.00  0.00    +0.000 A 
ATOM     23  C   UNL     1      -2.673  11.952  19.586  0.00  0.00    +0.000 A 
ATOM     24  C   UNL     1      -2.325  12.428  20.861  0.00  0.00    +0.000 A 
ATOM     25  C   UNL     1      -3.242  13.087  21.684  0.00  0.00    +0.000 A 
ATOM     26  C   UNL     1      -2.789  14.064  22.551  0.00  0.00    +0.000 A 
ATOM     27  C   UNL     1      -1.433  14.121  22.839  0.00  0.00    +0.000 A 
ATOM     28  C   UNL     1      -0.565  13.175  22.282  0.00  0.00    +0.000 A 
ATOM     29  C   UNL     1      -0.975  12.351  21.236  0.00  0.00    +0.000 A 
ATOM     30  N   UNL     1      -0.091  11.573  20.572  0.00  0.00    +0.000 NA
BRANCH  23  31
ATOM     31  O   UNL     1      -3.933  12.267  19.141  0.00  0.00    +0.000 OA
BRANCH  31  32
ATOM     32  C   UNL     1      -4.586  11.285  18.331  0.00  0.00    +0.000 C 
BRANCH  32  33
ATOM     33  C   UNL     1      -4.620  11.810  16.896  0.00  0.00    +0.000 C 
BRANCH  33  34
ATOM     34  O   UNL     1      -4.544  10.716  15.982  0.00  0.00    +0.000 OA
BRANCH  34  35
ATOM     35  C   UNL     1      -3.320  10.729  15.247  0.00  0.00    +0.000 C 
BRANCH  35  36
ATOM     36  C   UNL     1      -3.535  10.043  13.910  0.00  0.00    +0.000 C 
ATOM     37  F   UNL     1      -2.332   9.699  13.379  0.00  0.00    +0.000 F 
ENDBRANCH  35  36
ENDBRANCH  34  35
ENDBRANCH  33  34
ENDBRANCH  32  33
ENDBRANCH  31  32
ENDBRANCH  23  31
ENDBRANCH  20  21
ENDBRANCH   1  20
TORSDOF 11
ENDMDL
MODEL 2
REMARK VINA RESULT:      -8.4      2.089      4.183
REMARK  Name = 
REMARK  12 active torsions:
REMARK  status: ('A' for Active; 'I' for Inactive)
REMARK    1  A    between atoms: C_1  and  N_2
REMARK    2  A    between atoms: C_5  and  C_6
REMARK    3  A    between atoms: C_12  and  C_13
REMARK    4  A    between atoms: C_16  and  O_17
REMARK    5  A    between atoms: O_17  and  C_18
REMARK    6  A    between atoms: C_18  and  C_19
REMARK    7  A    between atoms: C_21  and  O_22
REMARK    8  A    between atoms: O_22  and  C_23
REMARK    9  A    between atoms: C_23  and  C_24
REMARK   10  A    between atoms: C_24  and  O_25
REMARK   11  A    between atoms: O_25  and  C_26
REMARK   12  A    between atoms: C_26  and  C_27
REMARK                            x       y       z     vdW  Elec       q    Type
REMARK                         _______ _______ _______ _____ _____    ______ ____
ROOT
ATOM      1  O   UNL     1       1.755   9.879  18.760  0.00  0.00    +0.000 OA
ENDROOT
BRANCH   1   5
ATOM      2  C   UNL     1       2.739   5.798  18.806  0.00  0.00    +0.000 A 
ATOM      3  C   UNL     1       2.262   6.413  19.970  0.00  0.00    +0.000 A 
ATOM      4  C   UNL     1       1.914   7.766  19.995  0.00  0.00    +0.000 A 
ATOM      5  C   UNL     1       2.104   8.560  18.867  0.00  0.00    +0.000 A 
ATOM      6  C   UNL     1       2.611   7.973  17.706  0.00  0.00    +0.000 A 
ATOM      7  C   UNL     1       2.911   6.604  17.668  0.00  0.00    +0.000 A 
BRANCH   2  13
ATOM      8  C   UNL     1       0.861   3.635  20.074  0.00  0.00    +0.000 C 
ATOM      9  N   UNL     1       2.082   3.404  19.336  0.00  0.00    +0.000 N 
ATOM     10  N   UNL     1       2.436   2.126  19.116  0.00  0.00    +0.000 NA
ATOM     11  C   UNL     1       3.573   2.224  18.434  0.00  0.00    +0.000 A 
ATOM     12  C   UNL     1       3.992   3.558  18.226  0.00  0.00    +0.000 A 
ATOM     13  C   UNL     1       2.957   4.332  18.787  0.00  0.00    +0.000 A 
BRANCH  12  14
ATOM     14  C   UNL     1       5.167   4.020  17.540  0.00  0.00    +0.000 A 
ATOM     15  C   UNL     1       6.239   4.564  18.257  0.00  0.00    +0.000 A 
ATOM     16  C   UNL     1       7.389   4.957  17.591  0.00  0.00    +0.000 A 
ATOM     17  N   UNL     1       7.560   4.824  16.261  0.00  0.00    +0.000 NA
ATOM     18  C   UNL     1       6.515   4.312  15.569  0.00  0.00    +0.000 A 
ATOM     19  C   UNL     1       5.318   3.922  16.155  0.00  0.00    +0.000 A 
ENDBRANCH  12  14
ENDBRANCH   2  13
ENDBRANCH   1   5
BRANCH   1  20
ATOM     20  C   UNL     1       0.848  10.364  19.753  0.00  0.00    +0.000 C 
BRANCH  20  21
ATOM     21  C   UNL     1      -0.530  10.557  19.165  0.00  0.00    +0.000 A 
ATOM     22  C   UNL     1      -1.485  11.254  19.897  0.00  0.00    +0.000 A 
ATOM     23  C   UNL     1      -2.627  11.680  19.237  0.00  0.00    +0.000 A 
ATOM     24  C   UNL     1      -2.818  11.351  17.886  0.00  0.00    +0.000 A 
ATOM     25  C   UNL     1      -3.927  11.795  17.162  0.00  0.00    +0.000 A 
ATOM     26  C   UNL     1      -4.432  11.002  16.149  0.00  0.00    +0.000 A 
ATOM     27  C   UNL     1      -3.640   9.980  15.645  0.00  0.00    +0.000 A 
ATOM     28  C   UNL     1      -2.345   9.799  16.140  0.00  0.00    +0.000 A 
ATOM     29  C   UNL     1      -1.926  10.432  17.310  0.00  0.00    +0.000 A 
ATOM     30  N   UNL     1      -0.749  10.115  17.893  0.00  0.00    +0.000 NA
BRANCH  23  31
ATOM     31  O   UNL     1      -3.645  12.371  19.846  0.00  0.00    +0.000 OA
BRANCH  31  32
ATOM     32  C   UNL     1      -3.275  13.551  20.563  0.00  0.00    +0.000 C 
BRANCH  32  33
ATOM     33  C   UNL     1      -3.559  13.307  22.046  0.00  0.00    +0.000 C 
BRANCH  33  34
ATOM     34  O   UNL     1      -2.573  13.968  22.838  0.00  0.00    +0.000 OA
BRANCH  34  35
ATOM     35  C   UNL     1      -1.511  13.084  23.201  0.00  0.00    +0.000 C 
BRANCH  35  36
ATOM     36  C   UNL     1      -2.067  11.684  23.382  0.00  0.00    +0.000 C 
ATOM     37  F   UNL     1      -1.044  10.790  23.405  0.00  0.00    +0.000 F 
ENDBRANCH  35  36
ENDBRANCH  34  35
ENDBRANCH  33  34
ENDBRANCH  32  33
ENDBRANCH  31  32
ENDBRANCH  23  31
ENDBRANCH  20  21
ENDBRANCH   1  20
TORSDOF 11
ENDMDL
MODEL 3
REMARK VINA RESULT:      -8.3      0.877      1.273
REMARK  Name = 
REMARK  12 active torsions:
REMARK  status: ('A' for Active; 'I' for Inactive)
REMARK    1  A    between atoms: C_1  and  N_2
REMARK    2  A    between atoms: C_5  and  C_6
REMARK    3  A    between atoms: C_12  and  C_13
REMARK    4  A    between atoms: C_16  and  O_17
REMARK    5  A    between atoms: O_17  and  C_18
REMARK    6  A    between atoms: C_18  and  C_19
REMARK    7  A    between atoms: C_21  and  O_22
REMARK    8  A    between atoms: O_22  and  C_23
REMARK    9  A    between atoms: C_23  and  C_24
REMARK   10  A    between atoms: C_24  and  O_25
REMARK   11  A    between atoms: O_25  and  C_26
REMARK   12  A    between atoms: C_26  and  C_27
REMARK                            x       y       z     vdW  Elec       q    Type
REMARK                         _______ _______ _______ _____ _____    ______ ____
ROOT
ATOM      1  O   UNL     1       1.307   9.520  19.866  0.00  0.00    +0.000 OA
ENDROOT
BRANCH   1   5
ATOM      2  C   UNL     1       2.564   5.614  18.981  0.00  0.00    +0.000 A 
ATOM      3  C   UNL     1       2.169   5.940  20.284  0.00  0.00    +0.000 A 
ATOM      4  C   UNL     1       1.735   7.225  20.618  0.00  0.00    +0.000 A 
ATOM      5  C   UNL     1       1.753   8.242  19.667  0.00  0.00    +0.000 A 
ATOM      6  C   UNL     1       2.177   7.944  18.370  0.00  0.00    +0.000 A 
ATOM      7  C   UNL     1       2.564   6.642  18.023  0.00  0.00    +0.000 A 
BRANCH   2  13
ATOM      8  C   UNL     1       0.892   3.097  19.808  0.00  0.00    +0.000 C 
ATOM      9  N   UNL     1       2.092   3.119  19.001  0.00  0.00    +0.000 N 
ATOM     10  N   UNL     1       2.519   1.948  18.501  0.00  0.00    +0.000 NA
ATOM     11  C   UNL     1       3.615   2.273  17.824  0.00  0.00    +0.000 A 
ATOM     12  C   UNL     1       3.935   3.648  17.895  0.00  0.00    +0.000 A 
ATOM     13  C   UNL     1       2.878   4.205  18.640  0.00  0.00    +0.000 A 
BRANCH  12  14
ATOM     14  C   UNL     1       5.045   4.331  17.291  0.00  0.00    +0.000 A 
ATOM     15  C   UNL     1       6.143   4.726  18.065  0.00  0.00    +0.000 A 
ATOM     16  C   UNL     1       7.231   5.336  17.463  0.00  0.00    +0.000 A 
ATOM     17  N   UNL     1       7.319   5.561  16.138  0.00  0.00    +0.000 NA
ATOM     18  C   UNL     1       6.249   5.192  15.394  0.00  0.00    +0.000 A 
ATOM     19  C   UNL     1       5.108   4.603  15.922  0.00  0.00    +0.000 A 
ENDBRANCH  12  14
ENDBRANCH   2  13
ENDBRANCH   1   5
BRANCH   1  20
ATOM     20  C   UNL     1       1.008   9.870  21.219  0.00  0.00    +0.000 C 
BRANCH  20  21
ATOM     21  C   UNL     1      -0.060  10.938  21.270  0.00  0.00    +0.000 A 
ATOM     22  C   UNL     1      -0.854  11.153  20.149  0.00  0.00    +0.000 A 
ATOM     23  C   UNL     1      -2.005  11.908  20.303  0.00  0.00    +0.000 A 
ATOM     24  C   UNL     1      -2.306  12.479  21.550  0.00  0.00    +0.000 A 
ATOM     25  C   UNL     1      -3.477  13.209  21.770  0.00  0.00    +0.000 A 
ATOM     26  C   UNL     1      -3.461  14.247  22.684  0.00  0.00    +0.000 A 
ATOM     27  C   UNL     1      -2.420  14.315  23.598  0.00  0.00    +0.000 A 
ATOM     28  C   UNL     1      -1.436  13.320  23.603  0.00  0.00    +0.000 A 
ATOM     29  C   UNL     1      -1.318  12.419  22.545  0.00  0.00    +0.000 A 
ATOM     30  N   UNL     1      -0.259  11.584  22.454  0.00  0.00    +0.000 NA
BRANCH  23  31
ATOM     31  O   UNL     1      -2.869  12.198  19.275  0.00  0.00    +0.000 OA
BRANCH  31  32
ATOM     32  C   UNL     1      -2.445  11.824  17.962  0.00  0.00    +0.000 C 
BRANCH  32  33
ATOM     33  C   UNL     1      -3.216  10.566  17.561  0.00  0.00    +0.000 C 
BRANCH  33  34
ATOM     34  O   UNL     1      -4.335  10.927  16.752  0.00  0.00    +0.000 OA
BRANCH  34  35
ATOM     35  C   UNL     1      -4.011  10.896  15.361  0.00  0.00    +0.000 C 
BRANCH  35  36
ATOM     36  C   UNL     1      -2.983   9.808  15.114  0.00  0.00    +0.000 C 
ATOM     37  F   UNL     1      -2.492   9.927  13.852  0.00  0.00    +0.000 F 
ENDBRANCH  35  36
ENDBRANCH  34  35
ENDBRANCH  33  34
ENDBRANCH  32  33
ENDBRANCH  31  32
ENDBRANCH  23  31
ENDBRANCH  20  21
ENDBRANCH   1  20
TORSDOF 11
ENDMDL
MODEL 4
REMARK VINA RESULT:      -8.2      2.466      4.233
REMARK  Name = 
REMARK  12 active torsions:
REMARK  status: ('A' for Active; 'I' for Inactive)
REMARK    1  A    between atoms: C_1  and  N_2
REMARK    2  A    between atoms: C_5  and  C_6
REMARK    3  A    between atoms: C_12  and  C_13
REMARK    4  A    between atoms: C_16  and  O_17
REMARK    5  A    between atoms: O_17  and  C_18
REMARK    6  A    between atoms: C_18  and  C_19
REMARK    7  A    between atoms: C_21  and  O_22
REMARK    8  A    between atoms: O_22  and  C_23
REMARK    9  A    between atoms: C_23  and  C_24
REMARK   10  A    between atoms: C_24  and  O_25
REMARK   11  A    between atoms: O_25  and  C_26
REMARK   12  A    between atoms: C_26  and  C_27
REMARK                            x       y       z     vdW  Elec       q    Type
REMARK                         _______ _______ _______ _____ _____    ______ ____
ROOT
ATOM      1  O   UNL     1       1.539   9.556  19.419  0.00  0.00    +0.000 OA
ENDROOT
BRANCH   1   5
ATOM      2  C   UNL     1       2.620   5.539  18.857  0.00  0.00    +0.000 A 
ATOM      3  C   UNL     1       2.309   6.004  20.141  0.00  0.00    +0.000 A 
ATOM      4  C   UNL     1       1.935   7.330  20.370  0.00  0.00    +0.000 A 
ATOM      5  C   UNL     1       1.933   8.249  19.323  0.00  0.00    +0.000 A 
ATOM      6  C   UNL     1       2.273   7.812  18.042  0.00  0.00    +0.000 A 
ATOM      7  C   UNL     1       2.598   6.469  17.804  0.00  0.00    +0.000 A 
BRANCH   2  13
ATOM      8  C   UNL     1       0.767   3.186  19.779  0.00  0.00    +0.000 C 
ATOM      9  N   UNL     1       2.005   3.082  19.039  0.00  0.00    +0.000 N 
ATOM     10  N   UNL     1       2.389   1.854  18.652  0.00  0.00    +0.000 NA
ATOM     11  C   UNL     1       3.535   2.066  18.013  0.00  0.00    +0.000 A 
ATOM     12  C   UNL     1       3.929   3.423  17.998  0.00  0.00    +0.000 A 
ATOM     13  C   UNL     1       2.869   4.093  18.641  0.00  0.00    +0.000 A 
BRANCH  12  14
ATOM     14  C   UNL     1       5.105   3.998  17.405  0.00  0.00    +0.000 A 
ATOM     15  C   UNL     1       6.130   4.508  18.211  0.00  0.00    +0.000 A 
ATOM     16  C   UNL     1       7.283   5.010  17.630  0.00  0.00    +0.000 A 
ATOM     17  N   UNL     1       7.502   5.020  16.300  0.00  0.00    +0.000 NA
ATOM     18  C   UNL     1       6.502   4.540  15.523  0.00  0.00    +0.000 A 
ATOM     19  C   UNL     1       5.305   4.047  16.023  0.00  0.00    +0.000 A 
ENDBRANCH  12  14
ENDBRANCH   2  13
ENDBRANCH   1   5
BRANCH   1  20
ATOM     20  C   UNL     1       0.735  10.043  18.342  0.00  0.00    +0.000 C 
BRANCH  20  21
ATOM     21  C   UNL     1      -0.578  10.583  18.860  0.00  0.00    +0.000 A 
ATOM     22  C   UNL     1      -0.650  11.040  20.171  0.00  0.00    +0.000 A 
ATOM     23  C   UNL     1      -1.751  11.798  20.536  0.00  0.00    +0.000 A 
ATOM     24  C   UNL     1      -2.778  12.031  19.607  0.00  0.00    +0.000 A 
ATOM     25  C   UNL     1      -3.886  12.827  19.909  0.00  0.00    +0.000 A 
ATOM     26  C   UNL     1      -5.104  12.536  19.323  0.00  0.00    +0.000 A 
ATOM     27  C   UNL     1      -5.127  11.710  18.208  0.00  0.00    +0.000 A 
ATOM     28  C   UNL     1      -3.926  11.225  17.681  0.00  0.00    +0.000 A 
ATOM     29  C   UNL     1      -2.734  11.317  18.399  0.00  0.00    +0.000 A 
ATOM     30  N   UNL     1      -1.616  10.685  17.982  0.00  0.00    +0.000 NA
BRANCH  23  31
ATOM     31  O   UNL     1      -1.944  12.301  21.798  0.00  0.00    +0.000 OA
BRANCH  31  32
ATOM     32  C   UNL     1      -0.889  13.105  22.332  0.00  0.00    +0.000 C 
BRANCH  32  33
ATOM     33  C   UNL     1      -1.437  13.848  23.551  0.00  0.00    +0.000 C 
BRANCH  33  34
ATOM     34  O   UNL     1      -2.283  14.916  23.122  0.00  0.00    +0.000 OA
BRANCH  34  35
ATOM     35  C   UNL     1      -3.602  14.787  23.654  0.00  0.00    +0.000 C 
BRANCH  35  36
ATOM     36  C   UNL     1      -3.690  13.509  24.468  0.00  0.00    +0.000 C 
ATOM     37  F   UNL     1      -4.559  12.652  23.872  0.00  0.00    +0.000 F 
ENDBRANCH  35  36
ENDBRANCH  34  35
ENDBRANCH  33  34
ENDBRANCH  32  33
ENDBRANCH  31  32
ENDBRANCH  23  31
ENDBRANCH  20  21
ENDBRANCH   1  20
TORSDOF 11
ENDMDL
MODEL 5
REMARK VINA RESULT:      -8.2      1.695      2.350
REMARK  Name = 
REMARK  12 active torsions:
REMARK  status: ('A' for Active; 'I' for Inactive)
REMARK    1  A    between atoms: C_1  and  N_2
REMARK    2  A    between atoms: C_5  and  C_6
REMARK    3  A    between atoms: C_12  and  C_13
REMARK    4  A    between atoms: C_16  and  O_17
REMARK    5  A    between atoms: O_17  and  C_18
REMARK    6  A    between atoms: C_18  and  C_19
REMARK    7  A    between atoms: C_21  and  O_22
REMARK    8  A    between atoms: O_22  and  C_23
REMARK    9  A    between atoms: C_23  and  C_24
REMARK   10  A    between atoms: C_24  and  O_25
REMARK   11  A    between atoms: O_25  and  C_26
REMARK   12  A    between atoms: C_26  and  C_27
REMARK                            x       y       z     vdW  Elec       q    Type
REMARK                         _______ _______ _______ _____ _____    ______ ____
ROOT
ATOM      1  O   UNL     1       1.495   9.375  20.214  0.00  0.00    +0.000 OA
ENDROOT
BRANCH   1   5
ATOM      2  C   UNL     1       2.385   5.432  19.081  0.00  0.00    +0.000 A 
ATOM      3  C   UNL     1       2.494   6.468  18.144  0.00  0.00    +0.000 A 
ATOM      4  C   UNL     1       2.217   7.794  18.483  0.00  0.00    +0.000 A 
ATOM      5  C   UNL     1       1.751   8.111  19.757  0.00  0.00    +0.000 A 
ATOM      6  C   UNL     1       1.603   7.087  20.694  0.00  0.00    +0.000 A 
ATOM      7  C   UNL     1       1.930   5.764  20.369  0.00  0.00    +0.000 A 
BRANCH   2  13
ATOM      8  C   UNL     1       0.706   2.804  19.382  0.00  0.00    +0.000 C 
ATOM      9  N   UNL     1       2.040   2.928  18.838  0.00  0.00    +0.000 N 
ATOM     10  N   UNL     1       2.616   1.814  18.357  0.00  0.00    +0.000 NA
ATOM     11  C   UNL     1       3.808   2.226  17.939  0.00  0.00    +0.000 A 
ATOM     12  C   UNL     1       4.040   3.602  18.166  0.00  0.00    +0.000 A 
ATOM     13  C   UNL     1       2.828   4.065  18.718  0.00  0.00    +0.000 A 
BRANCH  12  14
ATOM     14  C   UNL     1       5.213   4.366  17.846  0.00  0.00    +0.000 A 
ATOM     15  C   UNL     1       5.965   4.971  18.862  0.00  0.00    +0.000 A 
ATOM     16  C   UNL     1       7.125   5.660  18.547  0.00  0.00    +0.000 A 
ATOM     17  N   UNL     1       7.606   5.773  17.293  0.00  0.00    +0.000 NA
ATOM     18  C   UNL     1       6.869   5.201  16.313  0.00  0.00    +0.000 A 
ATOM     19  C   UNL     1       5.681   4.518  16.539  0.00  0.00    +0.000 A 
ENDBRANCH  12  14
ENDBRANCH   2  13
ENDBRANCH   1   5
BRANCH   1  20
ATOM     20  C   UNL     1       1.095  10.325  19.223  0.00  0.00    +0.000 C 
BRANCH  20  21
ATOM     21  C   UNL     1      -0.039  11.182  19.734  0.00  0.00    +0.000 A 
ATOM     22  C   UNL     1      -1.186  11.317  18.960  0.00  0.00    +0.000 A 
ATOM     23  C   UNL     1      -2.318  11.845  19.559  0.00  0.00    +0.000 A 
ATOM     24  C   UNL     1      -2.264  12.282  20.893  0.00  0.00    +0.000 A 
ATOM     25  C   UNL     1      -3.387  12.778  21.558  0.00  0.00    +0.000 A 
ATOM     26  C   UNL     1      -3.221  13.748  22.530  0.00  0.00    +0.000 A 
ATOM     27  C   UNL     1      -1.955  13.947  23.063  0.00  0.00    +0.000 A 
ATOM     28  C   UNL     1      -0.891  13.144  22.639  0.00  0.00    +0.000 A 
ATOM     29  C   UNL     1      -1.002  12.341  21.505  0.00  0.00    +0.000 A 
ATOM     30  N   UNL     1       0.076  11.714  20.985  0.00  0.00    +0.000 NA
BRANCH  23  31
ATOM     31  O   UNL     1      -3.509  12.035  18.903  0.00  0.00    +0.000 OA
BRANCH  31  32
ATOM     32  C   UNL     1      -3.617  11.459  17.599  0.00  0.00    +0.000 C 
BRANCH  32  33
ATOM     33  C   UNL     1      -5.038  11.708  17.094  0.00  0.00    +0.000 C 
BRANCH  33  34
ATOM     34  O   UNL     1      -5.972  11.027  17.931  0.00  0.00    +0.000 OA
BRANCH  34  35
ATOM     35  C   UNL     1      -7.102  11.846  18.233  0.00  0.00    +0.000 C 
BRANCH  35  36
ATOM     36  C   UNL     1      -7.188  12.043  19.736  0.00  0.00    +0.000 C 
ATOM     37  F   UNL     1      -6.213  11.319  20.344  0.00  0.00    +0.000 F 
ENDBRANCH  35  36
ENDBRANCH  34  35
ENDBRANCH  33  34
ENDBRANCH  32  33
ENDBRANCH  31  32
ENDBRANCH  23  31
ENDBRANCH  20  21
ENDBRANCH   1  20
TORSDOF 11
ENDMDL
MODEL 6
REMARK VINA RESULT:      -8.2      6.131     11.208
REMARK  Name = 
REMARK  12 active torsions:
REMARK  status: ('A' for Active; 'I' for Inactive)
REMARK    1  A    between atoms: C_1  and  N_2
REMARK    2  A    between atoms: C_5  and  C_6
REMARK    3  A    between atoms: C_12  and  C_13
REMARK    4  A    between atoms: C_16  and  O_17
REMARK    5  A    between atoms: O_17  and  C_18
REMARK    6  A    between atoms: C_18  and  C_19
REMARK    7  A    between atoms: C_21  and  O_22
REMARK    8  A    between atoms: O_22  and  C_23
REMARK    9  A    between atoms: C_23  and  C_24
REMARK   10  A    between atoms: C_24  and  O_25
REMARK   11  A    between atoms: O_25  and  C_26
REMARK   12  A    between atoms: C_26  and  C_27
REMARK                            x       y       z     vdW  Elec       q    Type
REMARK                         _______ _______ _______ _____ _____    ______ ____
ROOT
ATOM      1  O   UNL     1       8.206   8.925  17.705  0.00  0.00    +0.000 OA
ENDROOT
BRANCH   1   5
ATOM      2  C   UNL     1       9.513  12.382  19.695  0.00  0.00    +0.000 A 
ATOM      3  C   UNL     1       8.943  12.485  18.419  0.00  0.00    +0.000 A 
ATOM      4  C   UNL     1       8.486  11.361  17.728  0.00  0.00    +0.000 A 
ATOM      5  C   UNL     1       8.656  10.088  18.267  0.00  0.00    +0.000 A 
ATOM      6  C   UNL     1       9.254   9.962  19.522  0.00  0.00    +0.000 A 
ATOM      7  C   UNL     1       9.665  11.096  20.238  0.00  0.00    +0.000 A 
BRANCH   2  13
ATOM      8  C   UNL     1      12.179  14.014  19.477  0.00  0.00    +0.000 C 
ATOM      9  N   UNL     1      11.031  14.325  20.301  0.00  0.00    +0.000 N 
ATOM     10  N   UNL     1      11.077  15.461  21.016  0.00  0.00    +0.000 NA
ATOM     11  C   UNL     1       9.915  15.478  21.661  0.00  0.00    +0.000 A 
ATOM     12  C   UNL     1       9.111  14.345  21.401  0.00  0.00    +0.000 A 
ATOM     13  C   UNL     1       9.849  13.613  20.450  0.00  0.00    +0.000 A 
BRANCH  12  14
ATOM     14  C   UNL     1       7.810  14.042  21.932  0.00  0.00    +0.000 A 
ATOM     15  C   UNL     1       6.690  14.781  21.530  0.00  0.00    +0.000 A 
ATOM     16  C   UNL     1       5.433  14.446  22.007  0.00  0.00    +0.000 A 
ATOM     17  N   UNL     1       5.204  13.410  22.837  0.00  0.00    +0.000 NA
ATOM     18  C   UNL     1       6.291  12.708  23.236  0.00  0.00    +0.000 A 
ATOM     19  C   UNL     1       7.587  12.995  22.830  0.00  0.00    +0.000 A 
ENDBRANCH  12  14
ENDBRANCH   2  13
ENDBRANCH   1   5
BRANCH   1  20
ATOM     20  C   UNL     1       8.247   7.772  18.548  0.00  0.00    +0.000 C 
BRANCH  20  21
ATOM     21  C   UNL     1       7.532   6.610  17.898  0.00  0.00    +0.000 A 
ATOM     22  C   UNL     1       6.760   5.765  18.687  0.00  0.00    +0.000 A 
ATOM     23  C   UNL     1       5.882   4.903  18.050  0.00  0.00    +0.000 A 
ATOM     24  C   UNL     1       5.838   4.859  16.647  0.00  0.00    +0.000 A 
ATOM     25  C   UNL     1       4.939   4.043  15.957  0.00  0.00    +0.000 A 
ATOM     26  C   UNL     1       5.307   3.523  14.730  0.00  0.00    +0.000 A 
ATOM     27  C   UNL     1       6.382   4.090  14.061  0.00  0.00    +0.000 A 
ATOM     28  C   UNL     1       7.042   5.191  14.618  0.00  0.00    +0.000 A 
ATOM     29  C   UNL     1       6.831   5.561  15.946  0.00  0.00    +0.000 A 
ATOM     30  N   UNL     1       7.601   6.498  16.540  0.00  0.00    +0.000 NA
BRANCH  23  31
ATOM     31  O   UNL     1       5.071   4.015  18.713  0.00  0.00    +0.000 OA
BRANCH  31  32
ATOM     32  C   UNL     1       4.038   4.580  19.525  0.00  0.00    +0.000 C 
BRANCH  32  33
ATOM     33  C   UNL     1       2.707   4.368  18.803  0.00  0.00    +0.000 C 
BRANCH  33  34
ATOM     34  O   UNL     1       2.395   5.520  18.021  0.00  0.00    +0.000 OA
BRANCH  34  35
ATOM     35  C   UNL     1       2.706   6.728  18.718  0.00  0.00    +0.000 C 
BRANCH  35  36
ATOM     36  C   UNL     1       3.014   7.820  17.710  0.00  0.00    +0.000 C 
ATOM     37  F   UNL     1       2.464   8.990  18.128  0.00  0.00    +0.000 F 
ENDBRANCH  35  36
ENDBRANCH  34  35
ENDBRANCH  33  34
ENDBRANCH  32  33
ENDBRANCH  31  32
ENDBRANCH  23  31
ENDBRANCH  20  21
ENDBRANCH   1  20
TORSDOF 11
ENDMDL
MODEL 7
REMARK VINA RESULT:      -8.2      1.129      1.431
REMARK  Name = 
REMARK  12 active torsions:
REMARK  status: ('A' for Active; 'I' for Inactive)
REMARK    1  A    between atoms: C_1  and  N_2
REMARK    2  A    between atoms: C_5  and  C_6
REMARK    3  A    between atoms: C_12  and  C_13
REMARK    4  A    between atoms: C_16  and  O_17
REMARK    5  A    between atoms: O_17  and  C_18
REMARK    6  A    between atoms: C_18  and  C_19
REMARK    7  A    between atoms: C_21  and  O_22
REMARK    8  A    between atoms: O_22  and  C_23
REMARK    9  A    between atoms: C_23  and  C_24
REMARK   10  A    between atoms: C_24  and  O_25
REMARK   11  A    between atoms: O_25  and  C_26
REMARK   12  A    between atoms: C_26  and  C_27
REMARK                            x       y       z     vdW  Elec       q    Type
REMARK                         _______ _______ _______ _____ _____    ______ ____
ROOT
ATOM      1  O   UNL     1       1.223   9.576  20.487  0.00  0.00    +0.000 OA
ENDROOT
BRANCH   1   5
ATOM      2  C   UNL     1       2.505   5.888  18.946  0.00  0.00    +0.000 A 
ATOM      3  C   UNL     1       2.453   7.012  18.112  0.00  0.00    +0.000 A 
ATOM      4  C   UNL     1       2.042   8.259  18.587  0.00  0.00    +0.000 A 
ATOM      5  C   UNL     1       1.600   8.399  19.901  0.00  0.00    +0.000 A 
ATOM      6  C   UNL     1       1.612   7.282  20.738  0.00  0.00    +0.000 A 
ATOM      7  C   UNL     1       2.074   6.042  20.275  0.00  0.00    +0.000 A 
BRANCH   2  13
ATOM      8  C   UNL     1       0.963   3.197  18.501  0.00  0.00    +0.000 C 
ATOM      9  N   UNL     1       2.359   3.458  18.224  0.00  0.00    +0.000 N 
ATOM     10  N   UNL     1       3.072   2.466  17.666  0.00  0.00    +0.000 NA
ATOM     11  C   UNL     1       4.289   2.983  17.536  0.00  0.00    +0.000 A 
ATOM     12  C   UNL     1       4.396   4.303  18.031  0.00  0.00    +0.000 A 
ATOM     13  C   UNL     1       3.085   4.622  18.437  0.00  0.00    +0.000 A 
BRANCH  12  14
ATOM     14  C   UNL     1       5.557   5.149  18.053  0.00  0.00    +0.000 A 
ATOM     15  C   UNL     1       5.767   6.092  17.039  0.00  0.00    +0.000 A 
ATOM     16  C   UNL     1       6.861   6.939  17.099  0.00  0.00    +0.000 A 
ATOM     17  N   UNL     1       7.753   6.934  18.109  0.00  0.00    +0.000 NA
ATOM     18  C   UNL     1       7.555   6.011  19.080  0.00  0.00    +0.000 A 
ATOM     19  C   UNL     1       6.502   5.106  19.081  0.00  0.00    +0.000 A 
ENDBRANCH  12  14
ENDBRANCH   2  13
ENDBRANCH   1   5
BRANCH   1  20
ATOM     20  C   UNL     1       0.903  10.642  19.590  0.00  0.00    +0.000 C 
BRANCH  20  21
ATOM     21  C   UNL     1      -0.243  11.466  20.130  0.00  0.00    +0.000 A 
ATOM     22  C   UNL     1      -1.364  11.668  19.332  0.00  0.00    +0.000 A 
ATOM     23  C   UNL     1      -2.511  12.158  19.935  0.00  0.00    +0.000 A 
ATOM     24  C   UNL     1      -2.497  12.491  21.299  0.00  0.00    +0.000 A 
ATOM     25  C   UNL     1      -3.638  12.944  21.966  0.00  0.00    +0.000 A 
ATOM     26  C   UNL     1      -3.498  13.836  23.013  0.00  0.00    +0.000 A 
ATOM     27  C   UNL     1      -2.249  13.984  23.599  0.00  0.00    +0.000 A 
ATOM     28  C   UNL     1      -1.176  13.208  23.148  0.00  0.00    +0.000 A 
ATOM     29  C   UNL     1      -1.255  12.494  21.953  0.00  0.00    +0.000 A 
ATOM     30  N   UNL     1      -0.164  11.900  21.420  0.00  0.00    +0.000 NA
BRANCH  23  31
ATOM     31  O   UNL     1      -3.680  12.407  19.259  0.00  0.00    +0.000 OA
BRANCH  31  32
ATOM     32  C   UNL     1      -4.220  11.322  18.500  0.00  0.00    +0.000 C 
BRANCH  32  33
ATOM     33  C   UNL     1      -4.607  11.862  17.123  0.00  0.00    +0.000 C 
BRANCH  33  34
ATOM     34  O   UNL     1      -4.529  10.813  16.157  0.00  0.00    +0.000 OA
BRANCH  34  35
ATOM     35  C   UNL     1      -3.366  10.939  15.337  0.00  0.00    +0.000 C 
BRANCH  35  36
ATOM     36  C   UNL     1      -2.531   9.677  15.458  0.00  0.00    +0.000 C 
ATOM     37  F   UNL     1      -1.832   9.707  16.623  0.00  0.00    +0.000 F 
ENDBRANCH  35  36
ENDBRANCH  34  35
ENDBRANCH  33  34
ENDBRANCH  32  33
ENDBRANCH  31  32
ENDBRANCH  23  31
ENDBRANCH  20  21
ENDBRANCH   1  20
TORSDOF 11
ENDMDL
MODEL 8
REMARK VINA RESULT:      -8.2      2.140      2.676
REMARK  Name = 
REMARK  12 active torsions:
REMARK  status: ('A' for Active; 'I' for Inactive)
REMARK    1  A    between atoms: C_1  and  N_2
REMARK    2  A    between atoms: C_5  and  C_6
REMARK    3  A    between atoms: C_12  and  C_13
REMARK    4  A    between atoms: C_16  and  O_17
REMARK    5  A    between atoms: O_17  and  C_18
REMARK    6  A    between atoms: C_18  and  C_19
REMARK    7  A    between atoms: C_21  and  O_22
REMARK    8  A    between atoms: O_22  and  C_23
REMARK    9  A    between atoms: C_23  and  C_24
REMARK   10  A    between atoms: C_24  and  O_25
REMARK   11  A    between atoms: O_25  and  C_26
REMARK   12  A    between atoms: C_26  and  C_27
REMARK                            x       y       z     vdW  Elec       q    Type
REMARK                         _______ _______ _______ _____ _____    ______ ____
ROOT
ATOM      1  O   UNL     1       1.403   9.911  19.024  0.00  0.00    +0.000 OA
ENDROOT
BRANCH   1   5
ATOM      2  C   UNL     1       2.568   5.878  18.949  0.00  0.00    +0.000 A 
ATOM      3  C   UNL     1       2.256   6.491  20.170  0.00  0.00    +0.000 A 
ATOM      4  C   UNL     1       1.855   7.827  20.237  0.00  0.00    +0.000 A 
ATOM      5  C   UNL     1       1.825   8.610  19.086  0.00  0.00    +0.000 A 
ATOM      6  C   UNL     1       2.166   8.026  17.864  0.00  0.00    +0.000 A 
ATOM      7  C   UNL     1       2.519   6.671  17.791  0.00  0.00    +0.000 A 
BRANCH   2  13
ATOM      8  C   UNL     1       0.772   3.619  20.169  0.00  0.00    +0.000 C 
ATOM      9  N   UNL     1       2.008   3.450  19.437  0.00  0.00    +0.000 N 
ATOM     10  N   UNL     1       2.417   2.192  19.200  0.00  0.00    +0.000 NA
ATOM     11  C   UNL     1       3.554   2.348  18.530  0.00  0.00    +0.000 A 
ATOM     12  C   UNL     1       3.918   3.701  18.346  0.00  0.00    +0.000 A 
ATOM     13  C   UNL     1       2.847   4.423  18.910  0.00  0.00    +0.000 A 
BRANCH  12  14
ATOM     14  C   UNL     1       5.078   4.223  17.677  0.00  0.00    +0.000 A 
ATOM     15  C   UNL     1       6.128   4.786  18.412  0.00  0.00    +0.000 A 
ATOM     16  C   UNL     1       7.265   5.237  17.761  0.00  0.00    +0.000 A 
ATOM     17  N   UNL     1       7.445   5.146  16.429  0.00  0.00    +0.000 NA
ATOM     18  C   UNL     1       6.421   4.615  15.719  0.00  0.00    +0.000 A 
ATOM     19  C   UNL     1       5.237   4.167  16.290  0.00  0.00    +0.000 A 
ENDBRANCH  12  14
ENDBRANCH   2  13
ENDBRANCH   1   5
BRANCH   1  20
ATOM     20  C   UNL     1       0.139  10.124  18.392  0.00  0.00    +0.000 C 
BRANCH  20  21
ATOM     21  C   UNL     1      -0.730  11.032  19.231  0.00  0.00    +0.000 A 
ATOM     22  C   UNL     1      -1.936  11.484  18.709  0.00  0.00    +0.000 A 
ATOM     23  C   UNL     1      -2.849  12.056  19.581  0.00  0.00    +0.000 A 
ATOM     24  C   UNL     1      -2.514  12.219  20.935  0.00  0.00    +0.000 A 
ATOM     25  C   UNL     1      -3.415  12.746  21.865  0.00  0.00    +0.000 A 
ATOM     26  C   UNL     1      -2.929  13.477  22.933  0.00  0.00    +0.000 A 
ATOM     27  C   UNL     1      -1.582  13.376  23.252  0.00  0.00    +0.000 A 
ATOM     28  C   UNL     1      -0.759  12.515  22.519  0.00  0.00    +0.000 A 
ATOM     29  C   UNL     1      -1.185  11.968  21.309  0.00  0.00    +0.000 A 
ATOM     30  N   UNL     1      -0.331  11.293  20.509  0.00  0.00    +0.000 NA
BRANCH  23  31
ATOM     31  O   UNL     1      -4.070  12.547  19.191  0.00  0.00    +0.000 OA
BRANCH  31  32
ATOM     32  C   UNL     1      -4.996  11.598  18.654  0.00  0.00    +0.000 C 
BRANCH  32  33
ATOM     33  C   UNL     1      -6.243  12.362  18.209  0.00  0.00    +0.000 C 
BRANCH  33  34
ATOM     34  O   UNL     1      -7.397  11.803  18.835  0.00  0.00    +0.000 OA
BRANCH  34  35
ATOM     35  C   UNL     1      -7.055  11.079  20.018  0.00  0.00    +0.000 C 
BRANCH  35  36
ATOM     36  C   UNL     1      -7.710  11.741  21.216  0.00  0.00    +0.000 C 
ATOM     37  F   UNL     1      -6.751  12.151  22.087  0.00  0.00    +0.000 F 
ENDBRANCH  35  36
ENDBRANCH  34  35
ENDBRANCH  33  34
ENDBRANCH  32  33
ENDBRANCH  31  32
ENDBRANCH  23  31
ENDBRANCH  20  21
ENDBRANCH   1  20
TORSDOF 11
ENDMDL
MODEL 9
REMARK VINA RESULT:      -8.1      2.745      4.455
REMARK  Name = 
REMARK  12 active torsions:
REMARK  status: ('A' for Active; 'I' for Inactive)
REMARK    1  A    between atoms: C_1  and  N_2
REMARK    2  A    between atoms: C_5  and  C_6
REMARK    3  A    between atoms: C_12  and  C_13
REMARK    4  A    between atoms: C_16  and  O_17
REMARK    5  A    between atoms: O_17  and  C_18
REMARK    6  A    between atoms: C_18  and  C_19
REMARK    7  A    between atoms: C_21  and  O_22
REMARK    8  A    between atoms: O_22  and  C_23
REMARK    9  A    between atoms: C_23  and  C_24
REMARK   10  A    between atoms: C_24  and  O_25
REMARK   11  A    between atoms: O_25  and  C_26
REMARK   12  A    between atoms: C_26  and  C_27
REMARK                            x       y       z     vdW  Elec       q    Type
REMARK                         _______ _______ _______ _____ _____    ______ ____
ROOT
ATOM      1  O   UNL     1       0.715  10.124  20.061  0.00  0.00    +0.000 OA
ENDROOT
BRANCH   1   5
ATOM      2  C   UNL     1       2.685   6.738  18.552  0.00  0.00    +0.000 A 
ATOM      3  C   UNL     1       2.390   6.821  19.919  0.00  0.00    +0.000 A 
ATOM      4  C   UNL     1       1.727   7.926  20.460  0.00  0.00    +0.000 A 
ATOM      5  C   UNL     1       1.405   9.015  19.654  0.00  0.00    +0.000 A 
ATOM      6  C   UNL     1       1.722   8.965  18.295  0.00  0.00    +0.000 A 
ATOM      7  C   UNL     1       2.341   7.834  17.744  0.00  0.00    +0.000 A 
BRANCH   2  13
ATOM      8  C   UNL     1       1.076   4.187  17.704  0.00  0.00    +0.000 C 
ATOM      9  N   UNL     1       2.505   4.388  17.608  0.00  0.00    +0.000 N 
ATOM     10  N   UNL     1       3.229   3.405  17.047  0.00  0.00    +0.000 NA
ATOM     11  C   UNL     1       4.477   3.859  17.099  0.00  0.00    +0.000 A 
ATOM     12  C   UNL     1       4.590   5.126  17.717  0.00  0.00    +0.000 A 
ATOM     13  C   UNL     1       3.258   5.487  18.001  0.00  0.00    +0.000 A 
BRANCH  12  14
ATOM     14  C   UNL     1       5.781   5.898  17.942  0.00  0.00    +0.000 A 
ATOM     15  C   UNL     1       6.703   5.511  18.922  0.00  0.00    +0.000 A 
ATOM     16  C   UNL     1       7.873   6.232  19.094  0.00  0.00    +0.000 A 
ATOM     17  N   UNL     1       8.207   7.300  18.343  0.00  0.00    +0.000 NA
ATOM     18  C   UNL     1       7.306   7.681  17.406  0.00  0.00    +0.000 A 
ATOM     19  C   UNL     1       6.097   7.032  17.190  0.00  0.00    +0.000 A 
ENDBRANCH  12  14
ENDBRANCH   2  13
ENDBRANCH   1   5
BRANCH   1  20
ATOM     20  C   UNL     1       0.174  10.936  19.018  0.00  0.00    +0.000 C 
BRANCH  20  21
ATOM     21  C   UNL     1      -1.263  11.298  19.316  0.00  0.00    +0.000 A 
ATOM     22  C   UNL     1      -1.573  11.880  20.540  0.00  0.00    +0.000 A 
ATOM     23  C   UNL     1      -2.816  12.474  20.681  0.00  0.00    +0.000 A 
ATOM     24  C   UNL     1      -3.741  12.421  19.626  0.00  0.00    +0.000 A 
ATOM     25  C   UNL     1      -4.990  13.044  19.699  0.00  0.00    +0.000 A 
ATOM     26  C   UNL     1      -6.062  12.484  19.030  0.00  0.00    +0.000 A 
ATOM     27  C   UNL     1      -5.813  11.546  18.038  0.00  0.00    +0.000 A 
ATOM     28  C   UNL     1      -4.493  11.218  17.712  0.00  0.00    +0.000 A 
ATOM     29  C   UNL     1      -3.432  11.594  18.534  0.00  0.00    +0.000 A 
ATOM     30  N   UNL     1      -2.184  11.121  18.326  0.00  0.00    +0.000 NA
BRANCH  23  31
ATOM     31  O   UNL     1      -3.246  13.076  21.838  0.00  0.00    +0.000 OA
BRANCH  31  32
ATOM     32  C   UNL     1      -3.024  12.354  23.052  0.00  0.00    +0.000 C 
BRANCH  32  33
ATOM     33  C   UNL     1      -3.784  13.071  24.169  0.00  0.00    +0.000 C 
BRANCH  33  34
ATOM     34  O   UNL     1      -5.048  13.517  23.679  0.00  0.00    +0.000 OA
BRANCH  34  35
ATOM     35  C   UNL     1      -6.113  12.680  24.132  0.00  0.00    +0.000 C 
BRANCH  35  36
ATOM     36  C   UNL     1      -7.440  13.337  23.801  0.00  0.00    +0.000 C 
ATOM     37  F   UNL     1      -7.474  13.649  22.479  0.00  0.00    +0.000 F 
ENDBRANCH  35  36
ENDBRANCH  34  35
ENDBRANCH  33  34
ENDBRANCH  32  33
ENDBRANCH  31  32
ENDBRANCH  23  31
ENDBRANCH  20  21
ENDBRANCH   1  20
TORSDOF 11
ENDMDL
