MODEL 1
REMARK VINA RESULT:      -7.4      0.000      0.000
REMARK  Name = 
REMARK  11 active torsions:
REMARK  status: ('A' for Active; 'I' for Inactive)
REMARK    1  A    between atoms: C_1  and  C_2
REMARK    2  A    between atoms: C_2  and  O_3
REMARK    3  A    between atoms: O_3  and  C_4
REMARK    4  A    between atoms: C_7  and  N_8
REMARK    5  A    between atoms: C_9  and  C_11
REMARK    6  A    between atoms: C_11  and  S_12
REMARK    7  A    between atoms: S_12  and  C_13
REMARK    8  A    between atoms: N_17  and  C_18
REMARK    9  A    between atoms: C_18  and  C_19
REMARK   10  A    between atoms: C_19  and  C_20
REMARK   11  A    between atoms: C_20  and  N_21
REMARK                            x       y       z     vdW  Elec       q    Type
REMARK                         _______ _______ _______ _____ _____    ______ ____
ROOT
ATOM      1  C   UNL     1       5.181   4.016  18.441  0.00  0.00    +0.000 A 
ATOM      2  N   UNL     1       5.887   4.333  19.473  0.00  0.00    +0.000 NA
ATOM      3  C   UNL     1       6.807   5.357  19.345  0.00  0.00    +0.000 A 
ATOM      4  O   UNL     1       7.458   5.685  20.338  0.00  0.00    +0.000 OA
ATOM      5  N   UNL     1       6.935   6.034  18.123  0.00  0.00    +0.000 N 
ATOM      6  C   UNL     1       6.187   5.625  17.046  0.00  0.00    +0.000 A 
ATOM      7  C   UNL     1       5.284   4.661  17.143  0.00  0.00    +0.000 A 
ATOM      8  C   UNL     1       4.521   4.423  15.883  0.00  0.00    +0.000 C 
ATOM      9  C   UNL     1       5.403   5.155  14.867  0.00  0.00    +0.000 C 
ATOM     10  C   UNL     1       6.212   6.172  15.656  0.00  0.00    +0.000 C 
ENDROOT
BRANCH   1  11
ATOM     11  S   UNL     1       4.020   2.714  18.542  0.00  0.00    +0.000 S 
BRANCH  11  12
ATOM     12  C   UNL     1       2.992   3.269  19.928  0.00  0.00    +0.000 C 
BRANCH  12  14
ATOM     13  N   UNL     1       2.609   5.664  20.297  0.00  0.00    +0.000 N 
ATOM     14  C   UNL     1       2.240   4.539  19.567  0.00  0.00    +0.000 C 
ATOM     15  O   UNL     1       1.418   4.514  18.652  0.00  0.00    +0.000 OA
ATOM     16  H   UNL     1       3.440   5.585  20.881  0.00  0.00    +0.000 HD
BRANCH  13  20
ATOM     17  C   UNL     1       1.041   9.531  19.583  0.00  0.00    +0.000 A 
ATOM     18  C   UNL     1       0.777   8.880  20.784  0.00  0.00    +0.000 A 
ATOM     19  C   UNL     1       1.309   7.613  21.028  0.00  0.00    +0.000 A 
ATOM     20  C   UNL     1       2.092   6.963  20.079  0.00  0.00    +0.000 A 
ATOM     21  C   UNL     1       2.364   7.622  18.869  0.00  0.00    +0.000 A 
ATOM     22  C   UNL     1       1.817   8.892  18.618  0.00  0.00    +0.000 A 
BRANCH  17  23
ATOM     23  O   UNL     1       0.485  10.775  19.461  0.00  0.00    +0.000 OA
BRANCH  23  25
ATOM     24  C   UNL     1       1.903  12.617  18.914  0.00  0.00    +0.000 C 
ATOM     25  C   UNL     1       0.962  11.558  18.368  0.00  0.00    +0.000 C 
ENDBRANCH  23  25
ENDBRANCH  17  23
ENDBRANCH  13  20
ENDBRANCH  12  14
ENDBRANCH  11  12
ENDBRANCH   1  11
BRANCH   5  26
ATOM     26  C   UNL     1       8.012   7.040  18.019  0.00  0.00    +0.000 C 
BRANCH  26  27
ATOM     27  C   UNL     1       7.676   8.531  17.873  0.00  0.00    +0.000 C 
BRANCH  27  28
ATOM     28  C   UNL     1       8.912   9.388  18.241  0.00  0.00    +0.000 C 
BRANCH  28  29
ATOM     29  N   UNL     1       8.616  10.681  18.881  0.00  0.00    +0.000 NA
ATOM     30  C   UNL     1       8.678  11.837  17.940  0.00  0.00    +0.000 C 
ATOM     31  C   UNL     1      10.061  12.507  17.696  0.00  0.00    +0.000 C 
ATOM     32  O   UNL     1      10.889  12.583  18.864  0.00  0.00    +0.000 OA
ATOM     33  C   UNL     1      10.919  11.326  19.543  0.00  0.00    +0.000 C 
ATOM     34  C   UNL     1       9.503  10.988  20.016  0.00  0.00    +0.000 C 
ENDBRANCH  28  29
ENDBRANCH  27  28
ENDBRANCH  26  27
ENDBRANCH   5  26
TORSDOF 10
ENDMDL
MODEL 2
REMARK VINA RESULT:      -7.3      0.693      1.064
REMARK  Name = 
REMARK  11 active torsions:
REMARK  status: ('A' for Active; 'I' for Inactive)
REMARK    1  A    between atoms: C_1  and  C_2
REMARK    2  A    between atoms: C_2  and  O_3
REMARK    3  A    between atoms: O_3  and  C_4
REMARK    4  A    between atoms: C_7  and  N_8
REMARK    5  A    between atoms: C_9  and  C_11
REMARK    6  A    between atoms: C_11  and  S_12
REMARK    7  A    between atoms: S_12  and  C_13
REMARK    8  A    between atoms: N_17  and  C_18
REMARK    9  A    between atoms: C_18  and  C_19
REMARK   10  A    between atoms: C_19  and  C_20
REMARK   11  A    between atoms: C_20  and  N_21
REMARK                            x       y       z     vdW  Elec       q    Type
REMARK                         _______ _______ _______ _____ _____    ______ ____
ROOT
ATOM      1  C   UNL     1       5.318   4.079  18.776  0.00  0.00    +0.000 A 
ATOM      2  N   UNL     1       6.038   4.479  19.769  0.00  0.00    +0.000 NA
ATOM      3  C   UNL     1       6.920   5.522  19.559  0.00  0.00    +0.000 A 
ATOM      4  O   UNL     1       7.583   5.929  20.514  0.00  0.00    +0.000 OA
ATOM      5  N   UNL     1       6.996   6.130  18.296  0.00  0.00    +0.000 N 
ATOM      6  C   UNL     1       6.238   5.635  17.265  0.00  0.00    +0.000 A 
ATOM      7  C   UNL     1       5.370   4.650  17.440  0.00  0.00    +0.000 A 
ATOM      8  C   UNL     1       4.585   4.313  16.216  0.00  0.00    +0.000 C 
ATOM      9  C   UNL     1       5.418   5.012  15.137  0.00  0.00    +0.000 C 
ATOM     10  C   UNL     1       6.212   6.099  15.845  0.00  0.00    +0.000 C 
ENDROOT
BRANCH   1  11
ATOM     11  S   UNL     1       4.205   2.749  18.982  0.00  0.00    +0.000 S 
BRANCH  11  12
ATOM     12  C   UNL     1       3.091   3.418  20.247  0.00  0.00    +0.000 C 
BRANCH  12  14
ATOM     13  N   UNL     1       2.809   5.854  20.159  0.00  0.00    +0.000 N 
ATOM     14  C   UNL     1       2.334   4.623  19.716  0.00  0.00    +0.000 C 
ATOM     15  O   UNL     1       1.415   4.454  18.916  0.00  0.00    +0.000 OA
ATOM     16  H   UNL     1       3.698   5.854  20.657  0.00  0.00    +0.000 HD
BRANCH  13  20
ATOM     17  C   UNL     1       1.266   9.569  18.840  0.00  0.00    +0.000 A 
ATOM     18  C   UNL     1       1.065   9.154  20.153  0.00  0.00    +0.000 A 
ATOM     19  C   UNL     1       1.590   7.938  20.594  0.00  0.00    +0.000 A 
ATOM     20  C   UNL     1       2.302   7.105  19.737  0.00  0.00    +0.000 A 
ATOM     21  C   UNL     1       2.511   7.526  18.414  0.00  0.00    +0.000 A 
ATOM     22  C   UNL     1       1.972   8.744  17.966  0.00  0.00    +0.000 A 
BRANCH  17  23
ATOM     23  O   UNL     1       0.725  10.784  18.525  0.00  0.00    +0.000 OA
BRANCH  23  25
ATOM     24  C   UNL     1       0.512  13.114  19.004  0.00  0.00    +0.000 C 
ATOM     25  C   UNL     1       1.450  11.921  18.992  0.00  0.00    +0.000 C 
ENDBRANCH  23  25
ENDBRANCH  17  23
ENDBRANCH  13  20
ENDBRANCH  12  14
ENDBRANCH  11  12
ENDBRANCH   1  11
BRANCH   5  26
ATOM     26  C   UNL     1       8.037   7.161  18.107  0.00  0.00    +0.000 C 
BRANCH  26  27
ATOM     27  C   UNL     1       7.736   8.435  17.302  0.00  0.00    +0.000 C 
BRANCH  27  28
ATOM     28  C   UNL     1       7.915   9.681  18.203  0.00  0.00    +0.000 C 
BRANCH  28  29
ATOM     29  N   UNL     1       9.302   9.976  18.603  0.00  0.00    +0.000 NA
ATOM     30  C   UNL     1       9.423  10.463  20.009  0.00  0.00    +0.000 C 
ATOM     31  C   UNL     1       9.239  11.984  20.274  0.00  0.00    +0.000 C 
ATOM     32  O   UNL     1       9.788  12.827  19.252  0.00  0.00    +0.000 OA
ATOM     33  C   UNL     1       9.395  12.370  17.956  0.00  0.00    +0.000 C 
ATOM     34  C   UNL     1       9.963  10.965  17.737  0.00  0.00    +0.000 C 
ENDBRANCH  28  29
ENDBRANCH  27  28
ENDBRANCH  26  27
ENDBRANCH   5  26
TORSDOF 10
ENDMDL
MODEL 3
REMARK VINA RESULT:      -7.1      0.802      1.221
REMARK  Name = 
REMARK  11 active torsions:
REMARK  status: ('A' for Active; 'I' for Inactive)
REMARK    1  A    between atoms: C_1  and  C_2
REMARK    2  A    between atoms: C_2  and  O_3
REMARK    3  A    between atoms: O_3  and  C_4
REMARK    4  A    between atoms: C_7  and  N_8
REMARK    5  A    between atoms: C_9  and  C_11
REMARK    6  A    between atoms: C_11  and  S_12
REMARK    7  A    between atoms: S_12  and  C_13
REMARK    8  A    between atoms: N_17  and  C_18
REMARK    9  A    between atoms: C_18  and  C_19
REMARK   10  A    between atoms: C_19  and  C_20
REMARK   11  A    between atoms: C_20  and  N_21
REMARK                            x       y       z     vdW  Elec       q    Type
REMARK                         _______ _______ _______ _____ _____    ______ ____
ROOT
ATOM      1  C   UNL     1       5.321   4.113  18.601  0.00  0.00    +0.000 A 
ATOM      2  N   UNL     1       6.123   4.553  19.510  0.00  0.00    +0.000 NA
ATOM      3  C   UNL     1       6.957   5.608  19.190  0.00  0.00    +0.000 A 
ATOM      4  O   UNL     1       7.699   6.053  20.066  0.00  0.00    +0.000 OA
ATOM      5  N   UNL     1       6.898   6.183  17.911  0.00  0.00    +0.000 N 
ATOM      6  C   UNL     1       6.055   5.646  16.971  0.00  0.00    +0.000 A 
ATOM      7  C   UNL     1       5.231   4.649  17.253  0.00  0.00    +0.000 A 
ATOM      8  C   UNL     1       4.340   4.265  16.119  0.00  0.00    +0.000 C 
ATOM      9  C   UNL     1       5.049   4.951  14.948  0.00  0.00    +0.000 C 
ATOM     10  C   UNL     1       5.883   6.072  15.549  0.00  0.00    +0.000 C 
ENDROOT
BRANCH   1  11
ATOM     11  S   UNL     1       4.262   2.766  18.946  0.00  0.00    +0.000 S 
BRANCH  11  12
ATOM     12  C   UNL     1       3.310   3.420  20.343  0.00  0.00    +0.000 C 
BRANCH  12  14
ATOM     13  N   UNL     1       2.953   5.838  20.132  0.00  0.00    +0.000 N 
ATOM     14  C   UNL     1       2.424   4.572  19.901  0.00  0.00    +0.000 C 
ATOM     15  O   UNL     1       1.357   4.332  19.338  0.00  0.00    +0.000 OA
ATOM     16  H   UNL     1       3.929   5.886  20.420  0.00  0.00    +0.000 HD
BRANCH  13  20
ATOM     17  C   UNL     1       1.128   9.487  19.003  0.00  0.00    +0.000 A 
ATOM     18  C   UNL     1       1.814   8.727  18.061  0.00  0.00    +0.000 A 
ATOM     19  C   UNL     1       2.400   7.515  18.428  0.00  0.00    +0.000 A 
ATOM     20  C   UNL     1       2.334   7.047  19.737  0.00  0.00    +0.000 A 
ATOM     21  C   UNL     1       1.636   7.810  20.687  0.00  0.00    +0.000 A 
ATOM     22  C   UNL     1       1.057   9.037  20.320  0.00  0.00    +0.000 A 
BRANCH  17  23
ATOM     23  O   UNL     1       0.578  10.646  18.527  0.00  0.00    +0.000 OA
BRANCH  23  25
ATOM     24  C   UNL     1      -1.732  11.070  18.954  0.00  0.00    +0.000 C 
ATOM     25  C   UNL     1      -0.725  10.522  17.960  0.00  0.00    +0.000 C 
ENDBRANCH  23  25
ENDBRANCH  17  23
ENDBRANCH  13  20
ENDBRANCH  12  14
ENDBRANCH  11  12
ENDBRANCH   1  11
BRANCH   5  26
ATOM     26  C   UNL     1       7.892   7.231  17.597  0.00  0.00    +0.000 C 
BRANCH  26  27
ATOM     27  C   UNL     1       8.203   8.341  18.613  0.00  0.00    +0.000 C 
BRANCH  27  28
ATOM     28  C   UNL     1       8.677   9.614  17.871  0.00  0.00    +0.000 C 
BRANCH  28  29
ATOM     29  N   UNL     1       8.537  10.872  18.625  0.00  0.00    +0.000 NA
ATOM     30  C   UNL     1       8.701  12.091  17.779  0.00  0.00    +0.000 C 
ATOM     31  C   UNL     1      10.141  12.630  17.546  0.00  0.00    +0.000 C 
ATOM     32  O   UNL     1      11.001  12.519  18.688  0.00  0.00    +0.000 OA
ATOM     33  C   UNL     1      10.911  11.213  19.261  0.00  0.00    +0.000 C 
ATOM     34  C   UNL     1       9.478  10.987  19.751  0.00  0.00    +0.000 C 
ENDBRANCH  28  29
ENDBRANCH  27  28
ENDBRANCH  26  27
ENDBRANCH   5  26
TORSDOF 10
ENDMDL
MODEL 4
REMARK VINA RESULT:      -6.7      3.421      5.953
REMARK  Name = 
REMARK  11 active torsions:
REMARK  status: ('A' for Active; 'I' for Inactive)
REMARK    1  A    between atoms: C_1  and  C_2
REMARK    2  A    between atoms: C_2  and  O_3
REMARK    3  A    between atoms: O_3  and  C_4
REMARK    4  A    between atoms: C_7  and  N_8
REMARK    5  A    between atoms: C_9  and  C_11
REMARK    6  A    between atoms: C_11  and  S_12
REMARK    7  A    between atoms: S_12  and  C_13
REMARK    8  A    between atoms: N_17  and  C_18
REMARK    9  A    between atoms: C_18  and  C_19
REMARK   10  A    between atoms: C_19  and  C_20
REMARK   11  A    between atoms: C_20  and  N_21
REMARK                            x       y       z     vdW  Elec       q    Type
REMARK                         _______ _______ _______ _____ _____    ______ ____
ROOT
ATOM      1  C   UNL     1       2.106   6.478  19.787  0.00  0.00    +0.000 A 
ATOM      2  N   UNL     1       2.826   7.033  18.872  0.00  0.00    +0.000 NA
ATOM      3  C   UNL     1       3.294   6.242  17.840  0.00  0.00    +0.000 A 
ATOM      4  O   UNL     1       3.954   6.776  16.947  0.00  0.00    +0.000 OA
ATOM      5  N   UNL     1       2.962   4.879  17.796  0.00  0.00    +0.000 N 
ATOM      6  C   UNL     1       2.227   4.334  18.819  0.00  0.00    +0.000 A 
ATOM      7  C   UNL     1       1.749   5.069  19.811  0.00  0.00    +0.000 A 
ATOM      8  C   UNL     1       0.908   4.304  20.777  0.00  0.00    +0.000 C 
ATOM      9  C   UNL     1       1.287   2.864  20.414  0.00  0.00    +0.000 C 
ATOM     10  C   UNL     1       1.816   2.907  18.990  0.00  0.00    +0.000 C 
ENDROOT
BRANCH   1  11
ATOM     11  S   UNL     1       1.509   7.427  21.126  0.00  0.00    +0.000 S 
BRANCH  11  12
ATOM     12  C   UNL     1       1.483   9.086  20.395  0.00  0.00    +0.000 C 
BRANCH  12  14
ATOM     13  N   UNL     1      -0.208  10.022  18.883  0.00  0.00    +0.000 N 
ATOM     14  C   UNL     1       0.056   9.553  20.166  0.00  0.00    +0.000 C 
ATOM     15  O   UNL     1      -0.767   9.446  21.075  0.00  0.00    +0.000 OA
ATOM     16  H   UNL     1       0.510   9.867  18.178  0.00  0.00    +0.000 HD
BRANCH  13  20
ATOM     17  C   UNL     1      -3.996  11.330  17.519  0.00  0.00    +0.000 A 
ATOM     18  C   UNL     1      -3.441  10.155  17.023  0.00  0.00    +0.000 A 
ATOM     19  C   UNL     1      -2.201   9.713  17.486  0.00  0.00    +0.000 A 
ATOM     20  C   UNL     1      -1.481  10.438  18.431  0.00  0.00    +0.000 A 
ATOM     21  C   UNL     1      -2.044  11.621  18.938  0.00  0.00    +0.000 A 
ATOM     22  C   UNL     1      -3.287  12.073  18.462  0.00  0.00    +0.000 A 
BRANCH  17  23
ATOM     23  O   UNL     1      -5.222  11.656  17.009  0.00  0.00    +0.000 OA
BRANCH  23  25
ATOM     24  C   UNL     1      -6.642  10.598  18.611  0.00  0.00    +0.000 C 
ATOM     25  C   UNL     1      -6.241  11.915  17.973  0.00  0.00    +0.000 C 
ENDBRANCH  23  25
ENDBRANCH  17  23
ENDBRANCH  13  20
ENDBRANCH  12  14
ENDBRANCH  11  12
ENDBRANCH   1  11
BRANCH   5  26
ATOM     26  C   UNL     1       3.585   4.067  16.731  0.00  0.00    +0.000 C 
BRANCH  26  27
ATOM     27  C   UNL     1       5.086   3.740  16.776  0.00  0.00    +0.000 C 
BRANCH  27  28
ATOM     28  C   UNL     1       5.661   4.100  18.167  0.00  0.00    +0.000 C 
BRANCH  28  29
ATOM     29  N   UNL     1       7.094   4.438  18.190  0.00  0.00    +0.000 NA
ATOM     30  C   UNL     1       7.390   5.723  18.890  0.00  0.00    +0.000 C 
ATOM     31  C   UNL     1       7.301   7.040  18.068  0.00  0.00    +0.000 C 
ATOM     32  O   UNL     1       7.769   6.921  16.718  0.00  0.00    +0.000 OA
ATOM     33  C   UNL     1       7.216   5.761  16.093  0.00  0.00    +0.000 C 
ATOM     34  C   UNL     1       7.697   4.519  16.849  0.00  0.00    +0.000 C 
ENDBRANCH  28  29
ENDBRANCH  27  28
ENDBRANCH  26  27
ENDBRANCH   5  26
TORSDOF 10
ENDMDL
MODEL 5
REMARK VINA RESULT:      -6.6      5.137      9.062
REMARK  Name = 
REMARK  11 active torsions:
REMARK  status: ('A' for Active; 'I' for Inactive)
REMARK    1  A    between atoms: C_1  and  C_2
REMARK    2  A    between atoms: C_2  and  O_3
REMARK    3  A    between atoms: O_3  and  C_4
REMARK    4  A    between atoms: C_7  and  N_8
REMARK    5  A    between atoms: C_9  and  C_11
REMARK    6  A    between atoms: C_11  and  S_12
REMARK    7  A    between atoms: S_12  and  C_13
REMARK    8  A    between atoms: N_17  and  C_18
REMARK    9  A    between atoms: C_18  and  C_19
REMARK   10  A    between atoms: C_19  and  C_20
REMARK   11  A    between atoms: C_20  and  N_21
REMARK                            x       y       z     vdW  Elec       q    Type
REMARK                         _______ _______ _______ _____ _____    ______ ____
ROOT
ATOM      1  C   UNL     1       0.802  10.588  19.077  0.00  0.00    +0.000 A 
ATOM      2  N   UNL     1       1.467  10.134  18.070  0.00  0.00    +0.000 NA
ATOM      3  C   UNL     1       2.069   8.895  18.189  0.00  0.00    +0.000 A 
ATOM      4  O   UNL     1       2.676   8.444  17.217  0.00  0.00    +0.000 OA
ATOM      5  N   UNL     1       1.929   8.160  19.377  0.00  0.00    +0.000 N 
ATOM      6  C   UNL     1       1.246   8.712  20.432  0.00  0.00    +0.000 A 
ATOM      7  C   UNL     1       0.641   9.887  20.341  0.00  0.00    +0.000 A 
ATOM      8  C   UNL     1      -0.115  10.272  21.568  0.00  0.00    +0.000 C 
ATOM      9  C   UNL     1       0.469   9.289  22.588  0.00  0.00    +0.000 C 
ATOM     10  C   UNL     1       1.030   8.124  21.788  0.00  0.00    +0.000 C 
ENDROOT
BRANCH   1  11
ATOM     11  S   UNL     1       0.041  12.158  18.987  0.00  0.00    +0.000 S 
BRANCH  11  12
ATOM     12  C   UNL     1      -1.497  11.750  18.118  0.00  0.00    +0.000 C 
BRANCH  12  14
ATOM     13  N   UNL     1      -2.440  12.695  20.177  0.00  0.00    +0.000 N 
ATOM     14  C   UNL     1      -2.700  11.969  19.019  0.00  0.00    +0.000 C 
ATOM     15  O   UNL     1      -3.804  11.556  18.664  0.00  0.00    +0.000 OA
ATOM     16  H   UNL     1      -1.529  13.146  20.245  0.00  0.00    +0.000 HD
BRANCH  13  20
ATOM     17  C   UNL     1      -5.431  13.828  22.950  0.00  0.00    +0.000 A 
ATOM     18  C   UNL     1      -4.448  12.913  23.316  0.00  0.00    +0.000 A 
ATOM     19  C   UNL     1      -3.451  12.554  22.408  0.00  0.00    +0.000 A 
ATOM     20  C   UNL     1      -3.423  13.077  21.119  0.00  0.00    +0.000 A 
ATOM     21  C   UNL     1      -4.411  14.005  20.752  0.00  0.00    +0.000 A 
ATOM     22  C   UNL     1      -5.422  14.358  21.661  0.00  0.00    +0.000 A 
BRANCH  17  23
ATOM     23  O   UNL     1      -6.344  14.121  23.925  0.00  0.00    +0.000 OA
BRANCH  23  25
ATOM     24  C   UNL     1      -7.915  12.616  22.940  0.00  0.00    +0.000 C 
ATOM     25  C   UNL     1      -7.271  13.080  24.233  0.00  0.00    +0.000 C 
ENDBRANCH  23  25
ENDBRANCH  17  23
ENDBRANCH  13  20
ENDBRANCH  12  14
ENDBRANCH  11  12
ENDBRANCH   1  11
BRANCH   5  26
ATOM     26  C   UNL     1       2.689   6.898  19.481  0.00  0.00    +0.000 C 
BRANCH  26  27
ATOM     27  C   UNL     1       1.969   5.544  19.403  0.00  0.00    +0.000 C 
BRANCH  27  28
ATOM     28  C   UNL     1       1.801   5.122  17.923  0.00  0.00    +0.000 C 
BRANCH  28  29
ATOM     29  N   UNL     1       1.492   3.698  17.704  0.00  0.00    +0.000 NA
ATOM     30  C   UNL     1       1.025   2.996  18.936  0.00  0.00    +0.000 C 
ATOM     31  C   UNL     1       2.101   2.404  19.891  0.00  0.00    +0.000 C 
ATOM     32  O   UNL     1       3.234   1.839  19.219  0.00  0.00    +0.000 OA
ATOM     33  C   UNL     1       3.719   2.730  18.213  0.00  0.00    +0.000 C 
ATOM     34  C   UNL     1       2.624   2.930  17.162  0.00  0.00    +0.000 C 
ENDBRANCH  28  29
ENDBRANCH  27  28
ENDBRANCH  26  27
ENDBRANCH   5  26
TORSDOF 10
ENDMDL
MODEL 6
REMARK VINA RESULT:      -6.5      4.957     10.143
REMARK  Name = 
REMARK  11 active torsions:
REMARK  status: ('A' for Active; 'I' for Inactive)
REMARK    1  A    between atoms: C_1  and  C_2
REMARK    2  A    between atoms: C_2  and  O_3
REMARK    3  A    between atoms: O_3  and  C_4
REMARK    4  A    between atoms: C_7  and  N_8
REMARK    5  A    between atoms: C_9  and  C_11
REMARK    6  A    between atoms: C_11  and  S_12
REMARK    7  A    between atoms: S_12  and  C_13
REMARK    8  A    between atoms: N_17  and  C_18
REMARK    9  A    between atoms: C_18  and  C_19
REMARK   10  A    between atoms: C_19  and  C_20
REMARK   11  A    between atoms: C_20  and  N_21
REMARK                            x       y       z     vdW  Elec       q    Type
REMARK                         _______ _______ _______ _____ _____    ______ ____
ROOT
ATOM      1  C   UNL     1       0.683   9.769  20.135  0.00  0.00    +0.000 A 
ATOM      2  N   UNL     1       0.904   9.538  21.385  0.00  0.00    +0.000 NA
ATOM      3  C   UNL     1       0.098  10.164  22.318  0.00  0.00    +0.000 A 
ATOM      4  O   UNL     1       0.285   9.920  23.510  0.00  0.00    +0.000 OA
ATOM      5  N   UNL     1      -0.941  11.006  21.892  0.00  0.00    +0.000 N 
ATOM      6  C   UNL     1      -1.103  11.248  20.550  0.00  0.00    +0.000 A 
ATOM      7  C   UNL     1      -0.360  10.648  19.633  0.00  0.00    +0.000 A 
ATOM      8  C   UNL     1      -0.747  10.982  18.231  0.00  0.00    +0.000 C 
ATOM      9  C   UNL     1      -1.619  12.222  18.459  0.00  0.00    +0.000 C 
ATOM     10  C   UNL     1      -2.104  12.146  19.898  0.00  0.00    +0.000 C 
ENDROOT
BRANCH   1  11
ATOM     11  S   UNL     1       1.686   9.020  18.917  0.00  0.00    +0.000 S 
BRANCH  11  12
ATOM     12  C   UNL     1       2.016   7.408  19.678  0.00  0.00    +0.000 C 
BRANCH  12  14
ATOM     13  N   UNL     1       3.773   6.799  18.077  0.00  0.00    +0.000 N 
ATOM     14  C   UNL     1       2.561   6.429  18.653  0.00  0.00    +0.000 C 
ATOM     15  O   UNL     1       1.954   5.382  18.435  0.00  0.00    +0.000 OA
ATOM     16  H   UNL     1       4.261   7.589  18.495  0.00  0.00    +0.000 HD
BRANCH  13  20
ATOM     17  C   UNL     1       5.889   4.375  15.326  0.00  0.00    +0.000 A 
ATOM     18  C   UNL     1       5.607   5.702  15.017  0.00  0.00    +0.000 A 
ATOM     19  C   UNL     1       4.926   6.507  15.931  0.00  0.00    +0.000 A 
ATOM     20  C   UNL     1       4.495   6.006  17.155  0.00  0.00    +0.000 A 
ATOM     21  C   UNL     1       4.785   4.668  17.471  0.00  0.00    +0.000 A 
ATOM     22  C   UNL     1       5.459   3.854  16.545  0.00  0.00    +0.000 A 
BRANCH  17  23
ATOM     23  O   UNL     1       6.577   3.687  14.365  0.00  0.00    +0.000 OA
BRANCH  23  25
ATOM     24  C   UNL     1       6.949   3.876  12.014  0.00  0.00    +0.000 C 
ATOM     25  C   UNL     1       5.929   3.584  13.098  0.00  0.00    +0.000 C 
ENDBRANCH  23  25
ENDBRANCH  17  23
ENDBRANCH  13  20
ENDBRANCH  12  14
ENDBRANCH  11  12
ENDBRANCH   1  11
BRANCH   5  26
ATOM     26  C   UNL     1      -1.691  11.732  22.937  0.00  0.00    +0.000 C 
BRANCH  26  27
ATOM     27  C   UNL     1      -1.396  13.212  23.224  0.00  0.00    +0.000 C 
BRANCH  27  28
ATOM     28  C   UNL     1      -2.559  13.833  24.034  0.00  0.00    +0.000 C 
BRANCH  28  29
ATOM     29  N   UNL     1      -2.544  15.303  24.136  0.00  0.00    +0.000 NA
ATOM     30  C   UNL     1      -3.681  15.854  24.931  0.00  0.00    +0.000 C 
ATOM     31  C   UNL     1      -5.025  16.123  24.196  0.00  0.00    +0.000 C 
ATOM     32  O   UNL     1      -4.873  16.622  22.861  0.00  0.00    +0.000 OA
ATOM     33  C   UNL     1      -3.914  15.846  22.139  0.00  0.00    +0.000 C 
ATOM     34  C   UNL     1      -2.553  15.979  22.828  0.00  0.00    +0.000 C 
ENDBRANCH  28  29
ENDBRANCH  27  28
ENDBRANCH  26  27
ENDBRANCH   5  26
TORSDOF 10
ENDMDL
MODEL 7
REMARK VINA RESULT:      -6.5      5.207      8.581
REMARK  Name = 
REMARK  11 active torsions:
REMARK  status: ('A' for Active; 'I' for Inactive)
REMARK    1  A    between atoms: C_1  and  C_2
REMARK    2  A    between atoms: C_2  and  O_3
REMARK    3  A    between atoms: O_3  and  C_4
REMARK    4  A    between atoms: C_7  and  N_8
REMARK    5  A    between atoms: C_9  and  C_11
REMARK    6  A    between atoms: C_11  and  S_12
REMARK    7  A    between atoms: S_12  and  C_13
REMARK    8  A    between atoms: N_17  and  C_18
REMARK    9  A    between atoms: C_18  and  C_19
REMARK   10  A    between atoms: C_19  and  C_20
REMARK   11  A    between atoms: C_20  and  N_21
REMARK                            x       y       z     vdW  Elec       q    Type
REMARK                         _______ _______ _______ _____ _____    ______ ____
ROOT
ATOM      1  C   UNL     1       0.615  10.558  18.938  0.00  0.00    +0.000 A 
ATOM      2  N   UNL     1       1.297  10.073  17.958  0.00  0.00    +0.000 NA
ATOM      3  C   UNL     1       1.967   8.881  18.154  0.00  0.00    +0.000 A 
ATOM      4  O   UNL     1       2.592   8.398  17.209  0.00  0.00    +0.000 OA
ATOM      5  N   UNL     1       1.874   8.221  19.390  0.00  0.00    +0.000 N 
ATOM      6  C   UNL     1       1.167   8.805  20.411  0.00  0.00    +0.000 A 
ATOM      7  C   UNL     1       0.499   9.937  20.247  0.00  0.00    +0.000 A 
ATOM      8  C   UNL     1      -0.271  10.362  21.453  0.00  0.00    +0.000 C 
ATOM      9  C   UNL     1       0.371   9.483  22.531  0.00  0.00    +0.000 C 
ATOM     10  C   UNL     1       0.991   8.299  21.806  0.00  0.00    +0.000 C 
ENDROOT
BRANCH   1  11
ATOM     11  S   UNL     1      -0.232  12.074  18.750  0.00  0.00    +0.000 S 
BRANCH  11  12
ATOM     12  C   UNL     1      -1.884  11.496  18.277  0.00  0.00    +0.000 C 
BRANCH  12  14
ATOM     13  N   UNL     1      -2.447  12.745  20.312  0.00  0.00    +0.000 N 
ATOM     14  C   UNL     1      -2.943  12.076  19.198  0.00  0.00    +0.000 C 
ATOM     15  O   UNL     1      -4.131  11.972  18.893  0.00  0.00    +0.000 OA
ATOM     16  H   UNL     1      -1.445  12.927  20.334  0.00  0.00    +0.000 HD
BRANCH  13  20
ATOM     17  C   UNL     1      -4.884  14.794  23.102  0.00  0.00    +0.000 A 
ATOM     18  C   UNL     1      -4.560  13.456  23.306  0.00  0.00    +0.000 A 
ATOM     19  C   UNL     1      -3.741  12.785  22.396  0.00  0.00    +0.000 A 
ATOM     20  C   UNL     1      -3.249  13.421  21.261  0.00  0.00    +0.000 A 
ATOM     21  C   UNL     1      -3.569  14.773  21.058  0.00  0.00    +0.000 A 
ATOM     22  C   UNL     1      -4.404  15.445  21.967  0.00  0.00    +0.000 A 
BRANCH  17  23
ATOM     23  O   UNL     1      -5.676  15.354  24.066  0.00  0.00    +0.000 OA
BRANCH  23  25
ATOM     24  C   UNL     1      -5.052  17.407  25.114  0.00  0.00    +0.000 C 
ATOM     25  C   UNL     1      -5.838  16.769  23.984  0.00  0.00    +0.000 C 
ENDBRANCH  23  25
ENDBRANCH  17  23
ENDBRANCH  13  20
ENDBRANCH  12  14
ENDBRANCH  11  12
ENDBRANCH   1  11
BRANCH   5  26
ATOM     26  C   UNL     1       2.703   7.012  19.572  0.00  0.00    +0.000 C 
BRANCH  26  27
ATOM     27  C   UNL     1       2.057   5.618  19.588  0.00  0.00    +0.000 C 
BRANCH  27  28
ATOM     28  C   UNL     1       2.246   4.936  18.211  0.00  0.00    +0.000 C 
BRANCH  28  29
ATOM     29  N   UNL     1       3.204   3.817  18.187  0.00  0.00    +0.000 NA
ATOM     30  C   UNL     1       4.186   3.853  19.310  0.00  0.00    +0.000 C 
ATOM     31  C   UNL     1       5.480   4.696  19.122  0.00  0.00    +0.000 C 
ATOM     32  O   UNL     1       6.021   4.650  17.795  0.00  0.00    +0.000 OA
ATOM     33  C   UNL     1       4.994   4.863  16.824  0.00  0.00    +0.000 C 
ATOM     34  C   UNL     1       3.971   3.730  16.934  0.00  0.00    +0.000 C 
ENDBRANCH  28  29
ENDBRANCH  27  28
ENDBRANCH  26  27
ENDBRANCH   5  26
TORSDOF 10
ENDMDL
MODEL 8
REMARK VINA RESULT:      -6.4      3.664      7.888
REMARK  Name = 
REMARK  11 active torsions:
REMARK  status: ('A' for Active; 'I' for Inactive)
REMARK    1  A    between atoms: C_1  and  C_2
REMARK    2  A    between atoms: C_2  and  O_3
REMARK    3  A    between atoms: O_3  and  C_4
REMARK    4  A    between atoms: C_7  and  N_8
REMARK    5  A    between atoms: C_9  and  C_11
REMARK    6  A    between atoms: C_11  and  S_12
REMARK    7  A    between atoms: S_12  and  C_13
REMARK    8  A    between atoms: N_17  and  C_18
REMARK    9  A    between atoms: C_18  and  C_19
REMARK   10  A    between atoms: C_19  and  C_20
REMARK   11  A    between atoms: C_20  and  N_21
REMARK                            x       y       z     vdW  Elec       q    Type
REMARK                         _______ _______ _______ _____ _____    ______ ____
ROOT
ATOM      1  C   UNL     1       9.129  11.149  18.398  0.00  0.00    +0.000 A 
ATOM      2  N   UNL     1       8.085  11.715  17.894  0.00  0.00    +0.000 NA
ATOM      3  C   UNL     1       8.124  13.079  17.672  0.00  0.00    +0.000 A 
ATOM      4  O   UNL     1       7.141  13.617  17.160  0.00  0.00    +0.000 OA
ATOM      5  N   UNL     1       9.287  13.804  17.974  0.00  0.00    +0.000 N 
ATOM      6  C   UNL     1      10.353  13.157  18.548  0.00  0.00    +0.000 A 
ATOM      7  C   UNL     1      10.352  11.848  18.754  0.00  0.00    +0.000 A 
ATOM      8  C   UNL     1      11.634  11.326  19.311  0.00  0.00    +0.000 C 
ATOM      9  C   UNL     1      12.294  12.625  19.788  0.00  0.00    +0.000 C 
ATOM     10  C   UNL     1      11.651  13.749  18.991  0.00  0.00    +0.000 C 
ENDROOT
BRANCH   1  11
ATOM     11  S   UNL     1       9.124   9.432  18.720  0.00  0.00    +0.000 S 
BRANCH  11  12
ATOM     12  C   UNL     1       7.900   8.855  17.514  0.00  0.00    +0.000 C 
BRANCH  12  14
ATOM     13  N   UNL     1       6.109   7.179  17.438  0.00  0.00    +0.000 N 
ATOM     14  C   UNL     1       7.398   7.468  17.875  0.00  0.00    +0.000 C 
ATOM     15  O   UNL     1       8.147   6.689  18.465  0.00  0.00    +0.000 OA
ATOM     16  H   UNL     1       5.682   7.839  16.790  0.00  0.00    +0.000 HD
BRANCH  13  20
ATOM     17  C   UNL     1       4.173   3.454  17.982  0.00  0.00    +0.000 A 
ATOM     18  C   UNL     1       4.141   4.084  16.742  0.00  0.00    +0.000 A 
ATOM     19  C   UNL     1       4.796   5.303  16.557  0.00  0.00    +0.000 A 
ATOM     20  C   UNL     1       5.472   5.927  17.601  0.00  0.00    +0.000 A 
ATOM     21  C   UNL     1       5.510   5.288  18.851  0.00  0.00    +0.000 A 
ATOM     22  C   UNL     1       4.840   4.067  19.041  0.00  0.00    +0.000 A 
BRANCH  17  23
ATOM     23  O   UNL     1       3.515   2.257  18.043  0.00  0.00    +0.000 OA
BRANCH  23  25
ATOM     24  C   UNL     1       1.197   2.503  18.564  0.00  0.00    +0.000 C 
ATOM     25  C   UNL     1       2.566   2.128  19.101  0.00  0.00    +0.000 C 
ENDBRANCH  23  25
ENDBRANCH  17  23
ENDBRANCH  13  20
ENDBRANCH  12  14
ENDBRANCH  11  12
ENDBRANCH   1  11
BRANCH   5  26
ATOM     26  C   UNL     1       9.225  15.272  17.820  0.00  0.00    +0.000 C 
BRANCH  26  27
ATOM     27  C   UNL     1       8.881  16.168  19.020  0.00  0.00    +0.000 C 
BRANCH  27  28
ATOM     28  C   UNL     1       7.447  16.730  18.863  0.00  0.00    +0.000 C 
BRANCH  28  29
ATOM     29  N   UNL     1       6.404  16.018  19.621  0.00  0.00    +0.000 NA
ATOM     30  C   UNL     1       5.160  15.774  18.833  0.00  0.00    +0.000 C 
ATOM     31  C   UNL     1       4.083  16.896  18.803  0.00  0.00    +0.000 C 
ATOM     32  O   UNL     1       3.931  17.597  20.044  0.00  0.00    +0.000 OA
ATOM     33  C   UNL     1       5.206  17.973  20.570  0.00  0.00    +0.000 C 
ATOM     34  C   UNL     1       6.011  16.704  20.863  0.00  0.00    +0.000 C 
ENDBRANCH  28  29
ENDBRANCH  27  28
ENDBRANCH  26  27
ENDBRANCH   5  26
TORSDOF 10
ENDMDL
MODEL 9
REMARK VINA RESULT:      -6.4      3.907      6.794
REMARK  Name = 
REMARK  11 active torsions:
REMARK  status: ('A' for Active; 'I' for Inactive)
REMARK    1  A    between atoms: C_1  and  C_2
REMARK    2  A    between atoms: C_2  and  O_3
REMARK    3  A    between atoms: O_3  and  C_4
REMARK    4  A    between atoms: C_7  and  N_8
REMARK    5  A    between atoms: C_9  and  C_11
REMARK    6  A    between atoms: C_11  and  S_12
REMARK    7  A    between atoms: S_12  and  C_13
REMARK    8  A    between atoms: N_17  and  C_18
REMARK    9  A    between atoms: C_18  and  C_19
REMARK   10  A    between atoms: C_19  and  C_20
REMARK   11  A    between atoms: C_20  and  N_21
REMARK                            x       y       z     vdW  Elec       q    Type
REMARK                         _______ _______ _______ _____ _____    ______ ____
ROOT
ATOM      1  C   UNL     1       3.412   6.784  17.997  0.00  0.00    +0.000 A 
ATOM      2  N   UNL     1       4.492   7.400  17.653  0.00  0.00    +0.000 NA
ATOM      3  C   UNL     1       5.473   6.681  16.996  0.00  0.00    +0.000 A 
ATOM      4  O   UNL     1       6.491   7.274  16.637  0.00  0.00    +0.000 OA
ATOM      5  N   UNL     1       5.266   5.325  16.699  0.00  0.00    +0.000 N 
ATOM      6  C   UNL     1       4.115   4.711  17.126  0.00  0.00    +0.000 A 
ATOM      7  C   UNL     1       3.149   5.378  17.741  0.00  0.00    +0.000 A 
ATOM      8  C   UNL     1       1.948   4.549  18.049  0.00  0.00    +0.000 C 
ATOM      9  C   UNL     1       2.515   3.137  17.866  0.00  0.00    +0.000 C 
ATOM     10  C   UNL     1       3.729   3.277  16.962  0.00  0.00    +0.000 C 
ENDROOT
BRANCH   1  11
ATOM     11  S   UNL     1       2.151   7.640  18.851  0.00  0.00    +0.000 S 
BRANCH  11  12
ATOM     12  C   UNL     1       2.040   9.164  17.874  0.00  0.00    +0.000 C 
BRANCH  12  14
ATOM     13  N   UNL     1       0.286   9.897  19.425  0.00  0.00    +0.000 N 
ATOM     14  C   UNL     1       1.400  10.278  18.684  0.00  0.00    +0.000 C 
ATOM     15  O   UNL     1       1.911  11.397  18.681  0.00  0.00    +0.000 OA
ATOM     16  H   UNL     1       0.094   8.899  19.491  0.00  0.00    +0.000 HD
BRANCH  13  20
ATOM     17  C   UNL     1      -1.887  12.434  22.026  0.00  0.00    +0.000 A 
ATOM     18  C   UNL     1      -0.865  11.631  22.524  0.00  0.00    +0.000 A 
ATOM     19  C   UNL     1      -0.136  10.809  21.664  0.00  0.00    +0.000 A 
ATOM     20  C   UNL     1      -0.420  10.752  20.303  0.00  0.00    +0.000 A 
ATOM     21  C   UNL     1      -1.447  11.567  19.798  0.00  0.00    +0.000 A 
ATOM     22  C   UNL     1      -2.190  12.386  20.666  0.00  0.00    +0.000 A 
BRANCH  17  23
ATOM     23  O   UNL     1      -2.520  13.213  22.955  0.00  0.00    +0.000 OA
BRANCH  23  25
ATOM     24  C   UNL     1      -1.390  15.315  22.870  0.00  0.00    +0.000 C 
ATOM     25  C   UNL     1      -1.676  14.082  23.708  0.00  0.00    +0.000 C 
ENDBRANCH  23  25
ENDBRANCH  17  23
ENDBRANCH  13  20
ENDBRANCH  12  14
ENDBRANCH  11  12
ENDBRANCH   1  11
BRANCH   5  26
ATOM     26  C   UNL     1       6.396   4.587  16.097  0.00  0.00    +0.000 C 
BRANCH  26  27
ATOM     27  C   UNL     1       6.678   4.686  14.591  0.00  0.00    +0.000 C 
BRANCH  27  28
ATOM     28  C   UNL     1       5.882   3.597  13.833  0.00  0.00    +0.000 C 
BRANCH  28  29
ATOM     29  N   UNL     1       5.779   3.788  12.376  0.00  0.00    +0.000 NA
ATOM     30  C   UNL     1       4.948   2.749  11.699  0.00  0.00    +0.000 C 
ATOM     31  C   UNL     1       5.642   1.425  11.270  0.00  0.00    +0.000 C 
ATOM     32  O   UNL     1       6.981   1.596  10.785  0.00  0.00    +0.000 OA
ATOM     33  C   UNL     1       7.732   2.434  11.665  0.00  0.00    +0.000 C 
ATOM     34  C   UNL     1       7.084   3.821  11.697  0.00  0.00    +0.000 C 
ENDBRANCH  28  29
ENDBRANCH  27  28
ENDBRANCH  26  27
ENDBRANCH   5  26
TORSDOF 10
ENDMDL
