MODEL 1
REMARK VINA RESULT:      -7.9      0.000      0.000
REMARK  Name = 
REMARK  7 active torsions:
REMARK  status: ('A' for Active; 'I' for Inactive)
REMARK    1  A    between atoms: C_1  and  N_2
REMARK    2  A    between atoms: N_2  and  C_3
REMARK    3  A    between atoms: N_2  and  S_19
REMARK    4  A    between atoms: C_6  and  O_7
REMARK    5  A    between atoms: O_7  and  C_8
REMARK    6  A    between atoms: C_8  and  C_9
REMARK    7  A    between atoms: S_19  and  C_22
REMARK                            x       y       z     vdW  Elec       q    Type
REMARK                         _______ _______ _______ _____ _____    ______ ____
ROOT
ATOM      1  C   UNL     1       2.812   6.049  18.926  0.00  0.00    +0.000 A 
ATOM      2  C   UNL     1       2.198   6.432  20.117  0.00  0.00    +0.000 A 
ATOM      3  C   UNL     1       1.662   7.715  20.252  0.00  0.00    +0.000 A 
ATOM      4  C   UNL     1       1.774   8.649  19.222  0.00  0.00    +0.000 A 
ATOM      5  C   UNL     1       2.406   8.281  18.032  0.00  0.00    +0.000 A 
ATOM      6  C   UNL     1       2.917   6.978  17.883  0.00  0.00    +0.000 A 
ENDROOT
BRANCH   1   8
ATOM      7  C   UNL     1       2.384   3.584  19.076  0.00  0.00    +0.000 C 
ATOM      8  N   UNL     1       3.299   4.701  18.804  0.00  0.00    +0.000 N 
BRANCH   8   9
ATOM      9  S   UNL     1       4.962   4.377  19.019  0.00  0.00    +0.000 S 
ATOM     10  O   UNL     1       5.550   5.481  19.759  0.00  0.00    +0.000 OA
ATOM     11  O   UNL     1       5.121   3.008  19.480  0.00  0.00    +0.000 OA
BRANCH   9  12
ATOM     12  C   UNL     1       5.635   4.446  17.365  0.00  0.00    +0.000 A 
ATOM     13  C   UNL     1       6.994   4.727  17.179  0.00  0.00    +0.000 A 
ATOM     14  C   UNL     1       7.505   4.835  15.883  0.00  0.00    +0.000 A 
ATOM     15  C   UNL     1       6.667   4.630  14.786  0.00  0.00    +0.000 A 
ATOM     16 CL   UNL     1       7.281   4.839  13.193  0.00  0.00    +0.000 Cl
ATOM     17  C   UNL     1       5.329   4.276  14.973  0.00  0.00    +0.000 A 
ATOM     18  C   UNL     1       4.811   4.171  16.267  0.00  0.00    +0.000 A 
ENDBRANCH   9  12
ENDBRANCH   8   9
ENDBRANCH   1   8
BRANCH   4  19
ATOM     19  O   UNL     1       1.191   9.853  19.493  0.00  0.00    +0.000 OA
BRANCH  19  20
ATOM     20  C   UNL     1       0.049   9.848  20.337  0.00  0.00    +0.000 C 
BRANCH  20  21
ATOM     21  C   UNL     1      -0.932  10.947  19.908  0.00  0.00    +0.000 C 
ATOM     22  O   UNL     1      -1.330  10.993  18.740  0.00  0.00    +0.000 OA
ATOM     23  N   UNL     1      -1.393  11.831  20.870  0.00  0.00    +0.000 N 
ATOM     24  C   UNL     1      -0.983  11.873  22.275  0.00  0.00    +0.000 C 
ATOM     25  C   UNL     1      -2.214  11.829  23.187  0.00  0.00    +0.000 C 
ATOM     26  O   UNL     1      -3.153  12.864  22.852  0.00  0.00    +0.000 OA
ATOM     27  C   UNL     1      -3.580  12.751  21.484  0.00  0.00    +0.000 C 
ATOM     28  C   UNL     1      -2.390  12.849  20.524  0.00  0.00    +0.000 C 
ENDBRANCH  20  21
ENDBRANCH  19  20
ENDBRANCH   4  19
TORSDOF 6
ENDMDL
MODEL 2
REMARK VINA RESULT:      -7.9      1.220      1.918
REMARK  Name = 
REMARK  7 active torsions:
REMARK  status: ('A' for Active; 'I' for Inactive)
REMARK    1  A    between atoms: C_1  and  N_2
REMARK    2  A    between atoms: N_2  and  C_3
REMARK    3  A    between atoms: N_2  and  S_19
REMARK    4  A    between atoms: C_6  and  O_7
REMARK    5  A    between atoms: O_7  and  C_8
REMARK    6  A    between atoms: C_8  and  C_9
REMARK    7  A    between atoms: S_19  and  C_22
REMARK                            x       y       z     vdW  Elec       q    Type
REMARK                         _______ _______ _______ _____ _____    ______ ____
ROOT
ATOM      1  C   UNL     1       2.715   5.947  19.143  0.00  0.00    +0.000 A 
ATOM      2  C   UNL     1       2.107   6.136  20.382  0.00  0.00    +0.000 A 
ATOM      3  C   UNL     1       1.526   7.366  20.701  0.00  0.00    +0.000 A 
ATOM      4  C   UNL     1       1.586   8.438  19.811  0.00  0.00    +0.000 A 
ATOM      5  C   UNL     1       2.212   8.265  18.575  0.00  0.00    +0.000 A 
ATOM      6  C   UNL     1       2.768   7.016  18.239  0.00  0.00    +0.000 A 
ENDROOT
BRANCH   1   8
ATOM      7  C   UNL     1       2.375   3.473  18.931  0.00  0.00    +0.000 C 
ATOM      8  N   UNL     1       3.249   4.649  18.827  0.00  0.00    +0.000 N 
BRANCH   8   9
ATOM      9  S   UNL     1       4.924   4.357  18.999  0.00  0.00    +0.000 S 
ATOM     10  O   UNL     1       5.504   5.455  19.754  0.00  0.00    +0.000 OA
ATOM     11  O   UNL     1       5.121   2.981  19.423  0.00  0.00    +0.000 OA
BRANCH   9  12
ATOM     12  C   UNL     1       5.559   4.480  17.333  0.00  0.00    +0.000 A 
ATOM     13  C   UNL     1       4.690   4.334  16.246  0.00  0.00    +0.000 A 
ATOM     14  C   UNL     1       5.199   4.376  14.945  0.00  0.00    +0.000 A 
ATOM     15  C   UNL     1       6.562   4.594  14.740  0.00  0.00    +0.000 A 
ATOM     16 CL   UNL     1       7.198   4.567  13.141  0.00  0.00    +0.000 Cl
ATOM     17  C   UNL     1       7.416   4.813  15.822  0.00  0.00    +0.000 A 
ATOM     18  C   UNL     1       6.913   4.769  17.125  0.00  0.00    +0.000 A 
ENDBRANCH   9  12
ENDBRANCH   8   9
ENDBRANCH   1   8
BRANCH   4  19
ATOM     19  O   UNL     1       0.964   9.569  20.255  0.00  0.00    +0.000 OA
BRANCH  19  20
ATOM     20  C   UNL     1      -0.241   9.403  20.987  0.00  0.00    +0.000 C 
BRANCH  20  21
ATOM     21  C   UNL     1      -0.332  10.453  22.103  0.00  0.00    +0.000 C 
ATOM     22  O   UNL     1       0.169  10.219  23.209  0.00  0.00    +0.000 OA
ATOM     23  N   UNL     1      -0.927  11.670  21.816  0.00  0.00    +0.000 N 
ATOM     24  C   UNL     1      -1.556  12.050  20.550  0.00  0.00    +0.000 C 
ATOM     25  C   UNL     1      -0.970  13.372  20.042  0.00  0.00    +0.000 C 
ATOM     26  O   UNL     1      -1.062  14.403  21.038  0.00  0.00    +0.000 OA
ATOM     27  C   UNL     1      -0.378  14.021  22.244  0.00  0.00    +0.000 C 
ATOM     28  C   UNL     1      -0.968  12.732  22.827  0.00  0.00    +0.000 C 
ENDBRANCH  20  21
ENDBRANCH  19  20
ENDBRANCH   4  19
TORSDOF 6
ENDMDL
MODEL 3
REMARK VINA RESULT:      -7.9      5.490      8.526
REMARK  Name = 
REMARK  7 active torsions:
REMARK  status: ('A' for Active; 'I' for Inactive)
REMARK    1  A    between atoms: C_1  and  N_2
REMARK    2  A    between atoms: N_2  and  C_3
REMARK    3  A    between atoms: N_2  and  S_19
REMARK    4  A    between atoms: C_6  and  O_7
REMARK    5  A    between atoms: O_7  and  C_8
REMARK    6  A    between atoms: C_8  and  C_9
REMARK    7  A    between atoms: S_19  and  C_22
REMARK                            x       y       z     vdW  Elec       q    Type
REMARK                         _______ _______ _______ _____ _____    ______ ____
ROOT
ATOM      1  C   UNL     1       6.508   5.474  17.545  0.00  0.00    +0.000 A 
ATOM      2  C   UNL     1       7.320   5.339  18.669  0.00  0.00    +0.000 A 
ATOM      3  C   UNL     1       8.109   6.409  19.101  0.00  0.00    +0.000 A 
ATOM      4  C   UNL     1       8.137   7.609  18.391  0.00  0.00    +0.000 A 
ATOM      5  C   UNL     1       7.342   7.747  17.251  0.00  0.00    +0.000 A 
ATOM      6  C   UNL     1       6.522   6.682  16.834  0.00  0.00    +0.000 A 
ENDROOT
BRANCH   1   8
ATOM      7  C   UNL     1       5.410   4.123  15.742  0.00  0.00    +0.000 C 
ATOM      8  N   UNL     1       5.665   4.371  17.167  0.00  0.00    +0.000 N 
BRANCH   8   9
ATOM      9  S   UNL     1       4.474   3.805  18.253  0.00  0.00    +0.000 S 
ATOM     10  O   UNL     1       3.584   2.913  17.529  0.00  0.00    +0.000 OA
ATOM     11  O   UNL     1       5.121   3.371  19.479  0.00  0.00    +0.000 OA
BRANCH   9  12
ATOM     12  C   UNL     1       3.526   5.265  18.658  0.00  0.00    +0.000 A 
ATOM     13  C   UNL     1       3.316   6.249  17.685  0.00  0.00    +0.000 A 
ATOM     14  C   UNL     1       2.623   7.415  18.021  0.00  0.00    +0.000 A 
ATOM     15  C   UNL     1       2.118   7.575  19.312  0.00  0.00    +0.000 A 
ATOM     16 CL   UNL     1       1.333   9.044  19.744  0.00  0.00    +0.000 Cl
ATOM     17  C   UNL     1       2.264   6.561  20.261  0.00  0.00    +0.000 A 
ATOM     18  C   UNL     1       2.959   5.395  19.932  0.00  0.00    +0.000 A 
ENDBRANCH   9  12
ENDBRANCH   8   9
ENDBRANCH   1   8
BRANCH   4  19
ATOM     19  O   UNL     1       8.942   8.565  18.940  0.00  0.00    +0.000 OA
BRANCH  19  20
ATOM     20  C   UNL     1       8.722   9.909  18.540  0.00  0.00    +0.000 C 
BRANCH  20  21
ATOM     21  C   UNL     1       9.344  10.874  19.558  0.00  0.00    +0.000 C 
ATOM     22  O   UNL     1       9.270  10.624  20.766  0.00  0.00    +0.000 OA
ATOM     23  N   UNL     1      10.032  11.978  19.084  0.00  0.00    +0.000 N 
ATOM     24  C   UNL     1      10.175  12.374  17.681  0.00  0.00    +0.000 C 
ATOM     25  C   UNL     1      11.654  12.578  17.336  0.00  0.00    +0.000 C 
ATOM     26  O   UNL     1      12.281  13.504  18.240  0.00  0.00    +0.000 OA
ATOM     27  C   UNL     1      12.176  13.050  19.600  0.00  0.00    +0.000 C 
ATOM     28  C   UNL     1      10.709  12.886  20.015  0.00  0.00    +0.000 C 
ENDBRANCH  20  21
ENDBRANCH  19  20
ENDBRANCH   4  19
TORSDOF 6
ENDMDL
MODEL 4
REMARK VINA RESULT:      -7.8      2.129      2.782
REMARK  Name = 
REMARK  7 active torsions:
REMARK  status: ('A' for Active; 'I' for Inactive)
REMARK    1  A    between atoms: C_1  and  N_2
REMARK    2  A    between atoms: N_2  and  C_3
REMARK    3  A    between atoms: N_2  and  S_19
REMARK    4  A    between atoms: C_6  and  O_7
REMARK    5  A    between atoms: O_7  and  C_8
REMARK    6  A    between atoms: C_8  and  C_9
REMARK    7  A    between atoms: S_19  and  C_22
REMARK                            x       y       z     vdW  Elec       q    Type
REMARK                         _______ _______ _______ _____ _____    ______ ____
ROOT
ATOM      1  C   UNL     1       2.123   4.909  19.171  0.00  0.00    +0.000 A 
ATOM      2  C   UNL     1       1.664   5.017  20.482  0.00  0.00    +0.000 A 
ATOM      3  C   UNL     1       1.436   6.274  21.047  0.00  0.00    +0.000 A 
ATOM      4  C   UNL     1       1.708   7.440  20.332  0.00  0.00    +0.000 A 
ATOM      5  C   UNL     1       2.188   7.342  19.024  0.00  0.00    +0.000 A 
ATOM      6  C   UNL     1       2.386   6.076  18.442  0.00  0.00    +0.000 A 
ENDROOT
BRANCH   1   8
ATOM      7  C   UNL     1       1.120   2.713  18.496  0.00  0.00    +0.000 C 
ATOM      8  N   UNL     1       2.288   3.597  18.604  0.00  0.00    +0.000 N 
BRANCH   8   9
ATOM      9  S   UNL     1       3.809   2.823  18.688  0.00  0.00    +0.000 S 
ATOM     10  O   UNL     1       4.061   2.461  20.073  0.00  0.00    +0.000 OA
ATOM     11  O   UNL     1       3.889   1.825  17.635  0.00  0.00    +0.000 OA
BRANCH   9  12
ATOM     12  C   UNL     1       4.975   4.111  18.269  0.00  0.00    +0.000 A 
ATOM     13  C   UNL     1       5.734   4.715  19.277  0.00  0.00    +0.000 A 
ATOM     14  C   UNL     1       6.605   5.760  18.953  0.00  0.00    +0.000 A 
ATOM     15  C   UNL     1       6.734   6.170  17.626  0.00  0.00    +0.000 A 
ATOM     16 CL   UNL     1       7.747   7.506  17.242  0.00  0.00    +0.000 Cl
ATOM     17  C   UNL     1       6.032   5.517  16.611  0.00  0.00    +0.000 A 
ATOM     18  C   UNL     1       5.157   4.475  16.929  0.00  0.00    +0.000 A 
ENDBRANCH   9  12
ENDBRANCH   8   9
ENDBRANCH   1   8
BRANCH   4  19
ATOM     19  O   UNL     1       1.423   8.591  21.008  0.00  0.00    +0.000 OA
BRANCH  19  20
ATOM     20  C   UNL     1       0.110   8.731  21.529  0.00  0.00    +0.000 C 
BRANCH  20  21
ATOM     21  C   UNL     1      -0.064  10.118  22.162  0.00  0.00    +0.000 C 
ATOM     22  O   UNL     1      -0.011  10.243  23.390  0.00  0.00    +0.000 OA
ATOM     23  N   UNL     1      -0.218  11.210  21.325  0.00  0.00    +0.000 N 
ATOM     24  C   UNL     1      -0.302  11.177  19.864  0.00  0.00    +0.000 C 
ATOM     25  C   UNL     1       0.722  12.138  19.251  0.00  0.00    +0.000 C 
ATOM     26  O   UNL     1       0.580  13.465  19.785  0.00  0.00    +0.000 OA
ATOM     27  C   UNL     1       0.733  13.467  21.214  0.00  0.00    +0.000 C 
ATOM     28  C   UNL     1      -0.310  12.564  21.882  0.00  0.00    +0.000 C 
ENDBRANCH  20  21
ENDBRANCH  19  20
ENDBRANCH   4  19
TORSDOF 6
ENDMDL
MODEL 5
REMARK VINA RESULT:      -7.8      1.638      1.953
REMARK  Name = 
REMARK  7 active torsions:
REMARK  status: ('A' for Active; 'I' for Inactive)
REMARK    1  A    between atoms: C_1  and  N_2
REMARK    2  A    between atoms: N_2  and  C_3
REMARK    3  A    between atoms: N_2  and  S_19
REMARK    4  A    between atoms: C_6  and  O_7
REMARK    5  A    between atoms: O_7  and  C_8
REMARK    6  A    between atoms: C_8  and  C_9
REMARK    7  A    between atoms: S_19  and  C_22
REMARK                            x       y       z     vdW  Elec       q    Type
REMARK                         _______ _______ _______ _____ _____    ______ ____
ROOT
ATOM      1  C   UNL     1       2.146   4.950  19.097  0.00  0.00    +0.000 A 
ATOM      2  C   UNL     1       1.761   5.143  20.422  0.00  0.00    +0.000 A 
ATOM      3  C   UNL     1       1.580   6.435  20.921  0.00  0.00    +0.000 A 
ATOM      4  C   UNL     1       1.826   7.552  20.123  0.00  0.00    +0.000 A 
ATOM      5  C   UNL     1       2.231   7.368  18.799  0.00  0.00    +0.000 A 
ATOM      6  C   UNL     1       2.382   6.067  18.285  0.00  0.00    +0.000 A 
ENDROOT
BRANCH   1   8
ATOM      7  C   UNL     1       1.076   2.740  18.591  0.00  0.00    +0.000 C 
ATOM      8  N   UNL     1       2.264   3.604  18.602  0.00  0.00    +0.000 N 
BRANCH   8   9
ATOM      9  S   UNL     1       3.772   2.804  18.674  0.00  0.00    +0.000 S 
ATOM     10  O   UNL     1       4.019   2.419  20.053  0.00  0.00    +0.000 OA
ATOM     11  O   UNL     1       3.835   1.820  17.607  0.00  0.00    +0.000 OA
BRANCH   9  12
ATOM     12  C   UNL     1       4.959   4.078  18.272  0.00  0.00    +0.000 A 
ATOM     13  C   UNL     1       5.707   4.677  19.291  0.00  0.00    +0.000 A 
ATOM     14  C   UNL     1       6.594   5.712  18.980  0.00  0.00    +0.000 A 
ATOM     15  C   UNL     1       6.750   6.117  17.654  0.00  0.00    +0.000 A 
ATOM     16 CL   UNL     1       7.784   7.442  17.284  0.00  0.00    +0.000 Cl
ATOM     17  C   UNL     1       6.058   5.469  16.629  0.00  0.00    +0.000 A 
ATOM     18  C   UNL     1       5.168   4.437  16.934  0.00  0.00    +0.000 A 
ENDBRANCH   9  12
ENDBRANCH   8   9
ENDBRANCH   1   8
BRANCH   4  19
ATOM     19  O   UNL     1       1.592   8.745  20.743  0.00  0.00    +0.000 OA
BRANCH  19  20
ATOM     20  C   UNL     1       0.266   9.002  21.180  0.00  0.00    +0.000 C 
BRANCH  20  21
ATOM     21  C   UNL     1      -0.343  10.158  20.375  0.00  0.00    +0.000 C 
ATOM     22  O   UNL     1      -0.446  10.064  19.148  0.00  0.00    +0.000 OA
ATOM     23  N   UNL     1      -0.819  11.261  21.064  0.00  0.00    +0.000 N 
ATOM     24  C   UNL     1      -0.741  11.480  22.509  0.00  0.00    +0.000 C 
ATOM     25  C   UNL     1      -2.130  11.805  23.072  0.00  0.00    +0.000 C 
ATOM     26  O   UNL     1      -2.733  12.908  22.376  0.00  0.00    +0.000 OA
ATOM     27  C   UNL     1      -2.851  12.630  20.970  0.00  0.00    +0.000 C 
ATOM     28  C   UNL     1      -1.478  12.356  20.345  0.00  0.00    +0.000 C 
ENDBRANCH  20  21
ENDBRANCH  19  20
ENDBRANCH   4  19
TORSDOF 6
ENDMDL
MODEL 6
REMARK VINA RESULT:      -7.8      2.130      2.778
REMARK  Name = 
REMARK  7 active torsions:
REMARK  status: ('A' for Active; 'I' for Inactive)
REMARK    1  A    between atoms: C_1  and  N_2
REMARK    2  A    between atoms: N_2  and  C_3
REMARK    3  A    between atoms: N_2  and  S_19
REMARK    4  A    between atoms: C_6  and  O_7
REMARK    5  A    between atoms: O_7  and  C_8
REMARK    6  A    between atoms: C_8  and  C_9
REMARK    7  A    between atoms: S_19  and  C_22
REMARK                            x       y       z     vdW  Elec       q    Type
REMARK                         _______ _______ _______ _____ _____    ______ ____
ROOT
ATOM      1  C   UNL     1       2.111   4.880  19.138  0.00  0.00    +0.000 A 
ATOM      2  C   UNL     1       1.761   5.105  20.468  0.00  0.00    +0.000 A 
ATOM      3  C   UNL     1       1.620   6.409  20.948  0.00  0.00    +0.000 A 
ATOM      4  C   UNL     1       1.872   7.506  20.123  0.00  0.00    +0.000 A 
ATOM      5  C   UNL     1       2.242   7.290  18.794  0.00  0.00    +0.000 A 
ATOM      6  C   UNL     1       2.353   5.976  18.301  0.00  0.00    +0.000 A 
ENDROOT
BRANCH   1   8
ATOM      7  C   UNL     1       0.983   2.682  18.706  0.00  0.00    +0.000 C 
ATOM      8  N   UNL     1       2.188   3.523  18.666  0.00  0.00    +0.000 N 
BRANCH   8   9
ATOM      9  S   UNL     1       3.682   2.695  18.708  0.00  0.00    +0.000 S 
ATOM     10  O   UNL     1       3.946   2.299  20.082  0.00  0.00    +0.000 OA
ATOM     11  O   UNL     1       3.707   1.713  17.637  0.00  0.00    +0.000 OA
BRANCH   9  12
ATOM     12  C   UNL     1       4.885   3.947  18.289  0.00  0.00    +0.000 A 
ATOM     13  C   UNL     1       5.609   4.581  19.305  0.00  0.00    +0.000 A 
ATOM     14  C   UNL     1       6.509   5.599  18.978  0.00  0.00    +0.000 A 
ATOM     15  C   UNL     1       6.702   5.954  17.643  0.00  0.00    +0.000 A 
ATOM     16 CL   UNL     1       7.752   7.259  17.250  0.00  0.00    +0.000 Cl
ATOM     17  C   UNL     1       6.034   5.271  16.625  0.00  0.00    +0.000 A 
ATOM     18  C   UNL     1       5.130   4.254  16.946  0.00  0.00    +0.000 A 
ENDBRANCH   9  12
ENDBRANCH   8   9
ENDBRANCH   1   8
BRANCH   4  19
ATOM     19  O   UNL     1       1.679   8.715  20.726  0.00  0.00    +0.000 OA
BRANCH  19  20
ATOM     20  C   UNL     1       0.343   9.079  21.040  0.00  0.00    +0.000 C 
BRANCH  20  21
ATOM     21  C   UNL     1       0.168  10.600  20.925  0.00  0.00    +0.000 C 
ATOM     22  O   UNL     1       0.874  11.353  21.605  0.00  0.00    +0.000 OA
ATOM     23  N   UNL     1      -0.746  11.090  20.007  0.00  0.00    +0.000 N 
ATOM     24  C   UNL     1      -1.636  10.293  19.161  0.00  0.00    +0.000 C 
ATOM     25  C   UNL     1      -1.480  10.705  17.693  0.00  0.00    +0.000 C 
ATOM     26  O   UNL     1      -1.671  12.119  17.521  0.00  0.00    +0.000 OA
ATOM     27  C   UNL     1      -0.737  12.867  18.319  0.00  0.00    +0.000 C 
ATOM     28  C   UNL     1      -0.893  12.535  19.807  0.00  0.00    +0.000 C 
ENDBRANCH  20  21
ENDBRANCH  19  20
ENDBRANCH   4  19
TORSDOF 6
ENDMDL
MODEL 7
REMARK VINA RESULT:      -7.7      0.967      1.437
REMARK  Name = 
REMARK  7 active torsions:
REMARK  status: ('A' for Active; 'I' for Inactive)
REMARK    1  A    between atoms: C_1  and  N_2
REMARK    2  A    between atoms: N_2  and  C_3
REMARK    3  A    between atoms: N_2  and  S_19
REMARK    4  A    between atoms: C_6  and  O_7
REMARK    5  A    between atoms: O_7  and  C_8
REMARK    6  A    between atoms: C_8  and  C_9
REMARK    7  A    between atoms: S_19  and  C_22
REMARK                            x       y       z     vdW  Elec       q    Type
REMARK                         _______ _______ _______ _____ _____    ______ ____
ROOT
ATOM      1  C   UNL     1       2.663   5.891  19.060  0.00  0.00    +0.000 A 
ATOM      2  C   UNL     1       2.717   6.868  18.068  0.00  0.00    +0.000 A 
ATOM      3  C   UNL     1       2.218   8.149  18.314  0.00  0.00    +0.000 A 
ATOM      4  C   UNL     1       1.616   8.461  19.533  0.00  0.00    +0.000 A 
ATOM      5  C   UNL     1       1.539   7.482  20.527  0.00  0.00    +0.000 A 
ATOM      6  C   UNL     1       2.071   6.201  20.292  0.00  0.00    +0.000 A 
ENDROOT
BRANCH   1   8
ATOM      7  C   UNL     1       2.394   3.405  18.883  0.00  0.00    +0.000 C 
ATOM      8  N   UNL     1       3.241   4.602  18.790  0.00  0.00    +0.000 N 
BRANCH   8   9
ATOM      9  S   UNL     1       4.915   4.356  19.030  0.00  0.00    +0.000 S 
ATOM     10  O   UNL     1       5.441   5.490  19.771  0.00  0.00    +0.000 OA
ATOM     11  O   UNL     1       5.129   2.998  19.502  0.00  0.00    +0.000 OA
BRANCH   9  12
ATOM     12  C   UNL     1       5.607   4.446  17.385  0.00  0.00    +0.000 A 
ATOM     13  C   UNL     1       6.975   4.691  17.220  0.00  0.00    +0.000 A 
ATOM     14  C   UNL     1       7.503   4.816  15.932  0.00  0.00    +0.000 A 
ATOM     15  C   UNL     1       6.671   4.665  14.823  0.00  0.00    +0.000 A 
ATOM     16 CL   UNL     1       7.308   4.896  13.241  0.00  0.00    +0.000 Cl
ATOM     17  C   UNL     1       5.321   4.347  14.987  0.00  0.00    +0.000 A 
ATOM     18  C   UNL     1       4.787   4.224  16.272  0.00  0.00    +0.000 A 
ENDBRANCH   9  12
ENDBRANCH   8   9
ENDBRANCH   1   8
BRANCH   4  19
ATOM     19  O   UNL     1       1.189   9.753  19.632  0.00  0.00    +0.000 OA
BRANCH  19  20
ATOM     20  C   UNL     1       0.526  10.130  20.830  0.00  0.00    +0.000 C 
BRANCH  20  21
ATOM     21  C   UNL     1       0.585  11.652  21.012  0.00  0.00    +0.000 C 
ATOM     22  O   UNL     1       1.300  12.333  20.269  0.00  0.00    +0.000 OA
ATOM     23  N   UNL     1      -0.221  12.232  21.978  0.00  0.00    +0.000 N 
ATOM     24  C   UNL     1      -1.096  11.525  22.915  0.00  0.00    +0.000 C 
ATOM     25  C   UNL     1      -2.518  12.092  22.843  0.00  0.00    +0.000 C 
ATOM     26  O   UNL     1      -2.526  13.515  23.044  0.00  0.00    +0.000 OA
ATOM     27  C   UNL     1      -1.708  14.179  22.066  0.00  0.00    +0.000 C 
ATOM     28  C   UNL     1      -0.257  13.690  22.136  0.00  0.00    +0.000 C 
ENDBRANCH  20  21
ENDBRANCH  19  20
ENDBRANCH   4  19
TORSDOF 6
ENDMDL
MODEL 8
REMARK VINA RESULT:      -7.7      1.377      2.033
REMARK  Name = 
REMARK  7 active torsions:
REMARK  status: ('A' for Active; 'I' for Inactive)
REMARK    1  A    between atoms: C_1  and  N_2
REMARK    2  A    between atoms: N_2  and  C_3
REMARK    3  A    between atoms: N_2  and  S_19
REMARK    4  A    between atoms: C_6  and  O_7
REMARK    5  A    between atoms: O_7  and  C_8
REMARK    6  A    between atoms: C_8  and  C_9
REMARK    7  A    between atoms: S_19  and  C_22
REMARK                            x       y       z     vdW  Elec       q    Type
REMARK                         _______ _______ _______ _____ _____    ______ ____
ROOT
ATOM      1  C   UNL     1       2.596   5.846  19.133  0.00  0.00    +0.000 A 
ATOM      2  C   UNL     1       2.616   6.962  18.298  0.00  0.00    +0.000 A 
ATOM      3  C   UNL     1       2.100   8.182  18.741  0.00  0.00    +0.000 A 
ATOM      4  C   UNL     1       1.512   8.295  20.001  0.00  0.00    +0.000 A 
ATOM      5  C   UNL     1       1.469   7.177  20.837  0.00  0.00    +0.000 A 
ATOM      6  C   UNL     1       2.019   5.956  20.405  0.00  0.00    +0.000 A 
ENDROOT
BRANCH   1   8
ATOM      7  C   UNL     1       2.343   3.436  18.489  0.00  0.00    +0.000 C 
ATOM      8  N   UNL     1       3.191   4.624  18.663  0.00  0.00    +0.000 N 
BRANCH   8   9
ATOM      9  S   UNL     1       4.849   4.325  18.946  0.00  0.00    +0.000 S 
ATOM     10  O   UNL     1       5.382   5.424  19.736  0.00  0.00    +0.000 OA
ATOM     11  O   UNL     1       5.013   2.950  19.386  0.00  0.00    +0.000 OA
BRANCH   9  12
ATOM     12  C   UNL     1       5.594   4.442  17.327  0.00  0.00    +0.000 A 
ATOM     13  C   UNL     1       6.965   4.701  17.210  0.00  0.00    +0.000 A 
ATOM     14  C   UNL     1       7.534   4.847  15.941  0.00  0.00    +0.000 A 
ATOM     15  C   UNL     1       6.740   4.702  14.803  0.00  0.00    +0.000 A 
ATOM     16 CL   UNL     1       7.426   4.959  13.247  0.00  0.00    +0.000 Cl
ATOM     17  C   UNL     1       5.388   4.371  14.919  0.00  0.00    +0.000 A 
ATOM     18  C   UNL     1       4.813   4.228  16.184  0.00  0.00    +0.000 A 
ENDBRANCH   9  12
ENDBRANCH   8   9
ENDBRANCH   1   8
BRANCH   4  19
ATOM     19  O   UNL     1       1.066   9.550  20.299  0.00  0.00    +0.000 OA
BRANCH  19  20
ATOM     20  C   UNL     1      -0.254   9.666  20.810  0.00  0.00    +0.000 C 
BRANCH  20  21
ATOM     21  C   UNL     1      -0.309  10.749  21.895  0.00  0.00    +0.000 C 
ATOM     22  O   UNL     1       0.046  10.482  23.048  0.00  0.00    +0.000 OA
ATOM     23  N   UNL     1      -0.702  12.027  21.533  0.00  0.00    +0.000 N 
ATOM     24  C   UNL     1      -1.148  12.452  20.205  0.00  0.00    +0.000 C 
ATOM     25  C   UNL     1      -0.341  13.668  19.738  0.00  0.00    +0.000 C 
ATOM     26  O   UNL     1      -0.388  14.731  20.705  0.00  0.00    +0.000 OA
ATOM     27  C   UNL     1       0.118  14.294  21.978  0.00  0.00    +0.000 C 
ATOM     28  C   UNL     1      -0.695  13.112  22.519  0.00  0.00    +0.000 C 
ENDBRANCH  20  21
ENDBRANCH  19  20
ENDBRANCH   4  19
TORSDOF 6
ENDMDL
MODEL 9
REMARK VINA RESULT:      -7.7      0.237      1.313
REMARK  Name = 
REMARK  7 active torsions:
REMARK  status: ('A' for Active; 'I' for Inactive)
REMARK    1  A    between atoms: C_1  and  N_2
REMARK    2  A    between atoms: N_2  and  C_3
REMARK    3  A    between atoms: N_2  and  S_19
REMARK    4  A    between atoms: C_6  and  O_7
REMARK    5  A    between atoms: O_7  and  C_8
REMARK    6  A    between atoms: C_8  and  C_9
REMARK    7  A    between atoms: S_19  and  C_22
REMARK                            x       y       z     vdW  Elec       q    Type
REMARK                         _______ _______ _______ _____ _____    ______ ____
ROOT
ATOM      1  C   UNL     1       2.745   5.923  19.037  0.00  0.00    +0.000 A 
ATOM      2  C   UNL     1       2.804   6.842  17.992  0.00  0.00    +0.000 A 
ATOM      3  C   UNL     1       2.313   8.138  18.167  0.00  0.00    +0.000 A 
ATOM      4  C   UNL     1       1.713   8.521  19.366  0.00  0.00    +0.000 A 
ATOM      5  C   UNL     1       1.631   7.599  20.413  0.00  0.00    +0.000 A 
ATOM      6  C   UNL     1       2.155   6.304  20.249  0.00  0.00    +0.000 A 
ENDROOT
BRANCH   1   8
ATOM      7  C   UNL     1       2.488   3.429  19.091  0.00  0.00    +0.000 C 
ATOM      8  N   UNL     1       3.316   4.617  18.839  0.00  0.00    +0.000 N 
BRANCH   8   9
ATOM      9  S   UNL     1       5.004   4.399  18.984  0.00  0.00    +0.000 S 
ATOM     10  O   UNL     1       5.555   5.553  19.676  0.00  0.00    +0.000 OA
ATOM     11  O   UNL     1       5.266   3.053  19.465  0.00  0.00    +0.000 OA
BRANCH   9  12
ATOM     12  C   UNL     1       5.598   4.471  17.301  0.00  0.00    +0.000 A 
ATOM     13  C   UNL     1       4.723   4.200  16.243  0.00  0.00    +0.000 A 
ATOM     14  C   UNL     1       5.203   4.203  14.931  0.00  0.00    +0.000 A 
ATOM     15  C   UNL     1       6.542   4.506  14.683  0.00  0.00    +0.000 A 
ATOM     16 CL   UNL     1       7.149   4.432  13.075  0.00  0.00    +0.000 Cl
ATOM     17  C   UNL     1       7.398   4.848  15.732  0.00  0.00    +0.000 A 
ATOM     18  C   UNL     1       6.924   4.843  17.046  0.00  0.00    +0.000 A 
ENDBRANCH   9  12
ENDBRANCH   8   9
ENDBRANCH   1   8
BRANCH   4  19
ATOM     19  O   UNL     1       1.294   9.819  19.393  0.00  0.00    +0.000 OA
BRANCH  19  20
ATOM     20  C   UNL     1       0.450  10.208  20.467  0.00  0.00    +0.000 C 
BRANCH  20  21
ATOM     21  C   UNL     1      -0.610  11.202  19.975  0.00  0.00    +0.000 C 
ATOM     22  O   UNL     1      -0.914  11.233  18.777  0.00  0.00    +0.000 OA
ATOM     23  N   UNL     1      -1.246  12.004  20.908  0.00  0.00    +0.000 N 
ATOM     24  C   UNL     1      -0.961  12.056  22.343  0.00  0.00    +0.000 C 
ATOM     25  C   UNL     1      -2.250  11.851  23.147  0.00  0.00    +0.000 C 
ATOM     26  O   UNL     1      -3.269  12.783  22.751  0.00  0.00    +0.000 OA
ATOM     27  C   UNL     1      -3.567  12.658  21.349  0.00  0.00    +0.000 C 
ATOM     28  C   UNL     1      -2.320  12.913  20.496  0.00  0.00    +0.000 C 
ENDBRANCH  20  21
ENDBRANCH  19  20
ENDBRANCH   4  19
TORSDOF 6
ENDMDL
