MODEL 1
REMARK VINA RESULT:      -8.2      0.000      0.000
REMARK  Name = 
REMARK  6 active torsions:
REMARK  status: ('A' for Active; 'I' for Inactive)
REMARK    1  A    between atoms: C_1  and  N_2
REMARK    2  A    between atoms: N_2  and  C_3
REMARK    3  A    between atoms: C_3  and  C_4
REMARK    4  A    between atoms: N_14  and  C_15
REMARK    5  A    between atoms: C_15  and  C_16
REMARK    6  A    between atoms: C_16  and  C_17
REMARK                            x       y       z     vdW  Elec       q    Type
REMARK                         _______ _______ _______ _____ _____    ______ ____
ROOT
ATOM      1  C   UNL     1       7.139   4.640  16.248  0.00  0.00    +0.000 C 
ATOM      2  N   UNL     1       6.085   5.409  16.900  0.00  0.00    +0.000 N 
ATOM      3  C   UNL     1       6.228   6.732  17.279  0.00  0.00    +0.000 C 
ATOM      4  O   UNL     1       5.296   7.412  17.699  0.00  0.00    +0.000 OA
ATOM      5  N   UNL     1       7.494   7.251  17.128  0.00  0.00    +0.000 N 
ATOM      6  H   UNL     1       8.247   6.593  17.243  0.00  0.00    +0.000 HD
ENDROOT
BRANCH   2   7
ATOM      7  C   UNL     1       4.729   4.853  16.854  0.00  0.00    +0.000 C 
BRANCH   7   8
ATOM      8  C   UNL     1       4.423   4.049  18.066  0.00  0.00    +0.000 A 
ATOM      9  N   UNL     1       5.282   3.603  18.977  0.00  0.00    +0.000 NA
ATOM     10  N   UNL     1       4.586   2.861  19.930  0.00  0.00    +0.000 NA
ATOM     11  C   UNL     1       3.336   2.875  19.558  0.00  0.00    +0.000 A 
ATOM     12  N   UNL     1       3.206   3.589  18.411  0.00  0.00    +0.000 N 
ATOM     13  C   UNL     1       1.842   3.672  17.944  0.00  0.00    +0.000 C 
ATOM     14  C   UNL     1       1.058   3.228  19.199  0.00  0.00    +0.000 C 
ATOM     15  C   UNL     1       2.043   2.369  20.037  0.00  0.00    +0.000 C 
ENDBRANCH   7   8
ENDBRANCH   2   7
BRANCH   5  16
ATOM     16  C   UNL     1       7.763   8.632  17.503  0.00  0.00    +0.000 C 
BRANCH  16  17
ATOM     17  C   UNL     1       8.637   8.735  18.754  0.00  0.00    +0.000 C 
BRANCH  17  18
ATOM     18  C   UNL     1       9.136  10.141  18.992  0.00  0.00    +0.000 A 
ATOM     19  C   UNL     1       9.540  10.540  20.287  0.00  0.00    +0.000 A 
ATOM     20  C   UNL     1       9.995  11.840  20.532  0.00  0.00    +0.000 A 
ATOM     21  C   UNL     1      10.030  12.718  19.470  0.00  0.00    +0.000 A 
ATOM     22  C   UNL     1       9.635  12.342  18.209  0.00  0.00    +0.000 A 
ATOM     23  C   UNL     1       9.182  11.067  17.937  0.00  0.00    +0.000 A 
ATOM     24  O   UNL     1       9.745  13.356  17.308  0.00  0.00    +0.000 OA
ATOM     25  C   UNL     1      10.247  14.414  18.150  0.00  0.00    +0.000 C 
ATOM     26  O   UNL     1      10.441  14.014  19.522  0.00  0.00    +0.000 OA
ENDBRANCH  17  18
ENDBRANCH  16  17
ENDBRANCH   5  16
TORSDOF 5
ENDMDL
MODEL 2
REMARK VINA RESULT:      -8.1      1.374      1.683
REMARK  Name = 
REMARK  6 active torsions:
REMARK  status: ('A' for Active; 'I' for Inactive)
REMARK    1  A    between atoms: C_1  and  N_2
REMARK    2  A    between atoms: N_2  and  C_3
REMARK    3  A    between atoms: C_3  and  C_4
REMARK    4  A    between atoms: N_14  and  C_15
REMARK    5  A    between atoms: C_15  and  C_16
REMARK    6  A    between atoms: C_16  and  C_17
REMARK                            x       y       z     vdW  Elec       q    Type
REMARK                         _______ _______ _______ _____ _____    ______ ____
ROOT
ATOM      1  C   UNL     1       5.327   4.950  16.782  0.00  0.00    +0.000 C 
ATOM      2  N   UNL     1       5.918   4.777  18.104  0.00  0.00    +0.000 N 
ATOM      3  C   UNL     1       6.809   5.674  18.666  0.00  0.00    +0.000 C 
ATOM      4  O   UNL     1       7.194   5.596  19.829  0.00  0.00    +0.000 OA
ATOM      5  N   UNL     1       7.221   6.690  17.833  0.00  0.00    +0.000 N 
ATOM      6  H   UNL     1       7.268   6.454  16.855  0.00  0.00    +0.000 HD
ENDROOT
BRANCH   2   7
ATOM      7  C   UNL     1       5.293   3.789  18.989  0.00  0.00    +0.000 C 
BRANCH   7   8
ATOM      8  C   UNL     1       3.928   4.206  19.400  0.00  0.00    +0.000 A 
ATOM      9  N   UNL     1       3.563   5.373  19.924  0.00  0.00    +0.000 NA
ATOM     10  N   UNL     1       2.197   5.338  20.199  0.00  0.00    +0.000 NA
ATOM     11  C   UNL     1       1.786   4.153  19.842  0.00  0.00    +0.000 A 
ATOM     12  N   UNL     1       2.828   3.431  19.357  0.00  0.00    +0.000 N 
ATOM     13  C   UNL     1       2.449   2.109  18.918  0.00  0.00    +0.000 C 
ATOM     14  C   UNL     1       0.912   2.240  18.830  0.00  0.00    +0.000 C 
ATOM     15  C   UNL     1       0.527   3.398  19.790  0.00  0.00    +0.000 C 
ENDBRANCH   7   8
ENDBRANCH   2   7
BRANCH   5  16
ATOM     16  C   UNL     1       8.166   7.687  18.315  0.00  0.00    +0.000 C 
BRANCH  16  17
ATOM     17  C   UNL     1       7.957   9.052  17.656  0.00  0.00    +0.000 C 
BRANCH  17  18
ATOM     18  C   UNL     1       8.714  10.152  18.363  0.00  0.00    +0.000 A 
ATOM     19  C   UNL     1       9.206   9.947  19.673  0.00  0.00    +0.000 A 
ATOM     20  C   UNL     1       9.900  10.955  20.349  0.00  0.00    +0.000 A 
ATOM     21  C   UNL     1      10.082  12.156  19.699  0.00  0.00    +0.000 A 
ATOM     22  C   UNL     1       9.604  12.369  18.428  0.00  0.00    +0.000 A 
ATOM     23  C   UNL     1       8.916  11.393  17.736  0.00  0.00    +0.000 A 
ATOM     24  O   UNL     1       9.888  13.618  17.970  0.00  0.00    +0.000 OA
ATOM     25  C   UNL     1      10.592  14.169  19.102  0.00  0.00    +0.000 C 
ATOM     26  O   UNL     1      10.729  13.243  20.200  0.00  0.00    +0.000 OA
ENDBRANCH  17  18
ENDBRANCH  16  17
ENDBRANCH   5  16
TORSDOF 5
ENDMDL
MODEL 3
REMARK VINA RESULT:      -8.0      0.902      1.134
REMARK  Name = 
REMARK  6 active torsions:
REMARK  status: ('A' for Active; 'I' for Inactive)
REMARK    1  A    between atoms: C_1  and  N_2
REMARK    2  A    between atoms: N_2  and  C_3
REMARK    3  A    between atoms: C_3  and  C_4
REMARK    4  A    between atoms: N_14  and  C_15
REMARK    5  A    between atoms: C_15  and  C_16
REMARK    6  A    between atoms: C_16  and  C_17
REMARK                            x       y       z     vdW  Elec       q    Type
REMARK                         _______ _______ _______ _____ _____    ______ ____
ROOT
ATOM      1  C   UNL     1       4.086   6.979  17.683  0.00  0.00    +0.000 C 
ATOM      2  N   UNL     1       5.180   6.253  17.049  0.00  0.00    +0.000 N 
ATOM      3  C   UNL     1       6.477   6.731  16.983  0.00  0.00    +0.000 C 
ATOM      4  O   UNL     1       7.419   6.057  16.574  0.00  0.00    +0.000 OA
ATOM      5  N   UNL     1       6.650   8.018  17.438  0.00  0.00    +0.000 N 
ATOM      6  H   UNL     1       5.863   8.632  17.307  0.00  0.00    +0.000 HD
ENDROOT
BRANCH   2   7
ATOM      7  C   UNL     1       4.959   4.831  16.763  0.00  0.00    +0.000 C 
BRANCH   7   8
ATOM      8  C   UNL     1       4.657   4.064  17.999  0.00  0.00    +0.000 A 
ATOM      9  N   UNL     1       5.526   3.566  18.874  0.00  0.00    +0.000 NA
ATOM     10  N   UNL     1       4.826   2.886  19.869  0.00  0.00    +0.000 NA
ATOM     11  C   UNL     1       3.564   2.986  19.558  0.00  0.00    +0.000 A 
ATOM     12  N   UNL     1       3.428   3.696  18.409  0.00  0.00    +0.000 N 
ATOM     13  C   UNL     1       2.053   3.872  18.008  0.00  0.00    +0.000 C 
ATOM     14  C   UNL     1       1.301   3.499  19.305  0.00  0.00    +0.000 C 
ATOM     15  C   UNL     1       2.263   2.580  20.106  0.00  0.00    +0.000 C 
ENDBRANCH   7   8
ENDBRANCH   2   7
BRANCH   5  16
ATOM     16  C   UNL     1       7.972   8.628  17.408  0.00  0.00    +0.000 C 
BRANCH  16  17
ATOM     17  C   UNL     1       8.560   8.810  18.808  0.00  0.00    +0.000 C 
BRANCH  17  18
ATOM     18  C   UNL     1       9.290  10.125  18.958  0.00  0.00    +0.000 A 
ATOM     19  C   UNL     1       9.711  10.561  20.235  0.00  0.00    +0.000 A 
ATOM     20  C   UNL     1      10.379  11.780  20.398  0.00  0.00    +0.000 A 
ATOM     21  C   UNL     1      10.607  12.541  19.272  0.00  0.00    +0.000 A 
ATOM     22  C   UNL     1      10.198  12.129  18.027  0.00  0.00    +0.000 A 
ATOM     23  C   UNL     1       9.537  10.932  17.836  0.00  0.00    +0.000 A 
ATOM     24  O   UNL     1      10.518  13.025  17.054  0.00  0.00    +0.000 OA
ATOM     25  C   UNL     1      11.167  14.051  17.833  0.00  0.00    +0.000 C 
ATOM     26  O   UNL     1      11.237  13.746  19.241  0.00  0.00    +0.000 OA
ENDBRANCH  17  18
ENDBRANCH  16  17
ENDBRANCH   5  16
TORSDOF 5
ENDMDL
MODEL 4
REMARK VINA RESULT:      -8.0      1.029      1.667
REMARK  Name = 
REMARK  6 active torsions:
REMARK  status: ('A' for Active; 'I' for Inactive)
REMARK    1  A    between atoms: C_1  and  N_2
REMARK    2  A    between atoms: N_2  and  C_3
REMARK    3  A    between atoms: C_3  and  C_4
REMARK    4  A    between atoms: N_14  and  C_15
REMARK    5  A    between atoms: C_15  and  C_16
REMARK    6  A    between atoms: C_16  and  C_17
REMARK                            x       y       z     vdW  Elec       q    Type
REMARK                         _______ _______ _______ _____ _____    ______ ____
ROOT
ATOM      1  C   UNL     1       4.105   7.013  17.438  0.00  0.00    +0.000 C 
ATOM      2  N   UNL     1       5.177   6.178  16.908  0.00  0.00    +0.000 N 
ATOM      3  C   UNL     1       6.509   6.553  16.911  0.00  0.00    +0.000 C 
ATOM      4  O   UNL     1       7.419   5.791  16.593  0.00  0.00    +0.000 OA
ATOM      5  N   UNL     1       6.754   7.843  17.324  0.00  0.00    +0.000 N 
ATOM      6  H   UNL     1       6.027   8.508  17.117  0.00  0.00    +0.000 HD
ENDROOT
BRANCH   2   7
ATOM      7  C   UNL     1       4.864   4.766  16.666  0.00  0.00    +0.000 C 
BRANCH   7   8
ATOM      8  C   UNL     1       4.566   4.045  17.931  0.00  0.00    +0.000 A 
ATOM      9  N   UNL     1       5.431   3.665  18.867  0.00  0.00    +0.000 NA
ATOM     10  N   UNL     1       4.741   2.987  19.870  0.00  0.00    +0.000 NA
ATOM     11  C   UNL     1       3.490   2.970  19.503  0.00  0.00    +0.000 A 
ATOM     12  N   UNL     1       3.352   3.604  18.310  0.00  0.00    +0.000 N 
ATOM     13  C   UNL     1       1.987   3.649  17.845  0.00  0.00    +0.000 C 
ATOM     14  C   UNL     1       1.209   3.289  19.130  0.00  0.00    +0.000 C 
ATOM     15  C   UNL     1       2.201   2.493  20.020  0.00  0.00    +0.000 C 
ENDBRANCH   7   8
ENDBRANCH   2   7
BRANCH   5  16
ATOM     16  C   UNL     1       8.119   8.348  17.359  0.00  0.00    +0.000 C 
BRANCH  16  17
ATOM     17  C   UNL     1       8.517   8.855  18.747  0.00  0.00    +0.000 C 
BRANCH  17  18
ATOM     18  C   UNL     1       8.983  10.292  18.721  0.00  0.00    +0.000 A 
ATOM     19  C   UNL     1       8.488  11.181  17.739  0.00  0.00    +0.000 A 
ATOM     20  C   UNL     1       8.914  12.513  17.691  0.00  0.00    +0.000 A 
ATOM     21  C   UNL     1       9.836  12.926  18.628  0.00  0.00    +0.000 A 
ATOM     22  C   UNL     1      10.327  12.069  19.584  0.00  0.00    +0.000 A 
ATOM     23  C   UNL     1       9.925  10.751  19.656  0.00  0.00    +0.000 A 
ATOM     24  O   UNL     1      11.225  12.673  20.408  0.00  0.00    +0.000 OA
ATOM     25  C   UNL     1      11.248  14.005  19.855  0.00  0.00    +0.000 C 
ATOM     26  O   UNL     1      10.360  14.177  18.731  0.00  0.00    +0.000 OA
ENDBRANCH  17  18
ENDBRANCH  16  17
ENDBRANCH   5  16
TORSDOF 5
ENDMDL
MODEL 5
REMARK VINA RESULT:      -8.0      1.615      2.300
REMARK  Name = 
REMARK  6 active torsions:
REMARK  status: ('A' for Active; 'I' for Inactive)
REMARK    1  A    between atoms: C_1  and  N_2
REMARK    2  A    between atoms: N_2  and  C_3
REMARK    3  A    between atoms: C_3  and  C_4
REMARK    4  A    between atoms: N_14  and  C_15
REMARK    5  A    between atoms: C_15  and  C_16
REMARK    6  A    between atoms: C_16  and  C_17
REMARK                            x       y       z     vdW  Elec       q    Type
REMARK                         _______ _______ _______ _____ _____    ______ ____
ROOT
ATOM      1  C   UNL     1       7.747   5.507  19.529  0.00  0.00    +0.000 C 
ATOM      2  N   UNL     1       7.063   6.003  18.341  0.00  0.00    +0.000 N 
ATOM      3  C   UNL     1       7.346   7.222  17.750  0.00  0.00    +0.000 C 
ATOM      4  O   UNL     1       6.868   7.572  16.674  0.00  0.00    +0.000 OA
ATOM      5  N   UNL     1       8.230   8.018  18.443  0.00  0.00    +0.000 N 
ATOM      6  H   UNL     1       8.207   7.918  19.445  0.00  0.00    +0.000 HD
ENDROOT
BRANCH   2   7
ATOM      7  C   UNL     1       6.284   5.032  17.566  0.00  0.00    +0.000 C 
BRANCH   7   8
ATOM      8  C   UNL     1       4.837   5.101  17.896  0.00  0.00    +0.000 A 
ATOM      9  N   UNL     1       3.953   5.998  17.472  0.00  0.00    +0.000 NA
ATOM     10  N   UNL     1       2.714   5.721  18.047  0.00  0.00    +0.000 NA
ATOM     11  C   UNL     1       2.893   4.675  18.805  0.00  0.00    +0.000 A 
ATOM     12  N   UNL     1       4.189   4.276  18.741  0.00  0.00    +0.000 N 
ATOM     13  C   UNL     1       4.464   3.105  19.538  0.00  0.00    +0.000 C 
ATOM     14  C   UNL     1       3.040   2.575  19.814  0.00  0.00    +0.000 C 
ATOM     15  C   UNL     1       2.095   3.799  19.674  0.00  0.00    +0.000 C 
ENDBRANCH   7   8
ENDBRANCH   2   7
BRANCH   5  16
ATOM     16  C   UNL     1       8.594   9.327  17.920  0.00  0.00    +0.000 C 
BRANCH  16  17
ATOM     17  C   UNL     1       9.067  10.281  19.018  0.00  0.00    +0.000 C 
BRANCH  17  18
ATOM     18  C   UNL     1       9.621  11.571  18.459  0.00  0.00    +0.000 A 
ATOM     19  C   UNL     1      10.829  11.564  17.723  0.00  0.00    +0.000 A 
ATOM     20  C   UNL     1      11.365  12.748  17.205  0.00  0.00    +0.000 A 
ATOM     21  C   UNL     1      10.679  13.920  17.442  0.00  0.00    +0.000 A 
ATOM     22  C   UNL     1       9.507  13.938  18.160  0.00  0.00    +0.000 A 
ATOM     23  C   UNL     1       8.954  12.787  18.682  0.00  0.00    +0.000 A 
ATOM     24  O   UNL     1       8.994  15.193  18.280  0.00  0.00    +0.000 OA
ATOM     25  C   UNL     1       9.982  15.960  17.562  0.00  0.00    +0.000 C 
ATOM     26  O   UNL     1      11.050  15.158  17.018  0.00  0.00    +0.000 OA
ENDBRANCH  17  18
ENDBRANCH  16  17
ENDBRANCH   5  16
TORSDOF 5
ENDMDL
MODEL 6
REMARK VINA RESULT:      -7.9      1.732      2.384
REMARK  Name = 
REMARK  6 active torsions:
REMARK  status: ('A' for Active; 'I' for Inactive)
REMARK    1  A    between atoms: C_1  and  N_2
REMARK    2  A    between atoms: N_2  and  C_3
REMARK    3  A    between atoms: C_3  and  C_4
REMARK    4  A    between atoms: N_14  and  C_15
REMARK    5  A    between atoms: C_15  and  C_16
REMARK    6  A    between atoms: C_16  and  C_17
REMARK                            x       y       z     vdW  Elec       q    Type
REMARK                         _______ _______ _______ _____ _____    ______ ____
ROOT
ATOM      1  C   UNL     1       8.215   5.664  19.749  0.00  0.00    +0.000 C 
ATOM      2  N   UNL     1       7.580   6.155  18.531  0.00  0.00    +0.000 N 
ATOM      3  C   UNL     1       7.786   7.424  18.021  0.00  0.00    +0.000 C 
ATOM      4  O   UNL     1       7.361   7.782  16.925  0.00  0.00    +0.000 OA
ATOM      5  N   UNL     1       8.530   8.263  18.819  0.00  0.00    +0.000 N 
ATOM      6  H   UNL     1       8.439   8.109  19.810  0.00  0.00    +0.000 HD
ENDROOT
BRANCH   2   7
ATOM      7  C   UNL     1       6.964   5.155  17.652  0.00  0.00    +0.000 C 
BRANCH   7   8
ATOM      8  C   UNL     1       5.638   4.719  18.162  0.00  0.00    +0.000 A 
ATOM      9  N   UNL     1       5.349   3.588  18.797  0.00  0.00    +0.000 NA
ATOM     10  N   UNL     1       3.982   3.558  19.068  0.00  0.00    +0.000 NA
ATOM     11  C   UNL     1       3.491   4.663  18.580  0.00  0.00    +0.000 A 
ATOM     12  N   UNL     1       4.482   5.393  18.008  0.00  0.00    +0.000 N 
ATOM     13  C   UNL     1       4.022   6.648  17.462  0.00  0.00    +0.000 C 
ATOM     14  C   UNL     1       2.637   6.788  18.132  0.00  0.00    +0.000 C 
ATOM     15  C   UNL     1       2.193   5.347  18.501  0.00  0.00    +0.000 C 
ENDBRANCH   7   8
ENDBRANCH   2   7
BRANCH   5  16
ATOM     16  C   UNL     1       8.802   9.626  18.386  0.00  0.00    +0.000 C 
BRANCH  16  17
ATOM     17  C   UNL     1       9.546  10.436  19.450  0.00  0.00    +0.000 C 
BRANCH  17  18
ATOM     18  C   UNL     1       9.727  11.881  19.048  0.00  0.00    +0.000 A 
ATOM     19  C   UNL     1       9.039  12.903  19.744  0.00  0.00    +0.000 A 
ATOM     20  C   UNL     1       9.185  14.246  19.382  0.00  0.00    +0.000 A 
ATOM     21  C   UNL     1      10.014  14.539  18.322  0.00  0.00    +0.000 A 
ATOM     22  C   UNL     1      10.683  13.554  17.635  0.00  0.00    +0.000 A 
ATOM     23  C   UNL     1      10.560  12.220  17.970  0.00  0.00    +0.000 A 
ATOM     24  O   UNL     1      11.446  14.054  16.625  0.00  0.00    +0.000 OA
ATOM     25  C   UNL     1      11.172  15.465  16.751  0.00  0.00    +0.000 C 
ATOM     26  O   UNL     1      10.273  15.782  17.833  0.00  0.00    +0.000 OA
ENDBRANCH  17  18
ENDBRANCH  16  17
ENDBRANCH   5  16
TORSDOF 5
ENDMDL
MODEL 7
REMARK VINA RESULT:      -7.9      6.064      8.666
REMARK  Name = 
REMARK  6 active torsions:
REMARK  status: ('A' for Active; 'I' for Inactive)
REMARK    1  A    between atoms: C_1  and  N_2
REMARK    2  A    between atoms: N_2  and  C_3
REMARK    3  A    between atoms: C_3  and  C_4
REMARK    4  A    between atoms: N_14  and  C_15
REMARK    5  A    between atoms: C_15  and  C_16
REMARK    6  A    between atoms: C_16  and  C_17
REMARK                            x       y       z     vdW  Elec       q    Type
REMARK                         _______ _______ _______ _____ _____    ______ ____
ROOT
ATOM      1  C   UNL     1       2.379   6.565  20.036  0.00  0.00    +0.000 C 
ATOM      2  N   UNL     1       2.562   7.202  18.737  0.00  0.00    +0.000 N 
ATOM      3  C   UNL     1       2.097   8.470  18.436  0.00  0.00    +0.000 C 
ATOM      4  O   UNL     1       2.375   9.054  17.391  0.00  0.00    +0.000 OA
ATOM      5  N   UNL     1       1.315   9.053  19.407  0.00  0.00    +0.000 N 
ATOM      6  H   UNL     1       0.766   8.415  19.959  0.00  0.00    +0.000 HD
ENDROOT
BRANCH   2   7
ATOM      7  C   UNL     1       3.553   6.605  17.835  0.00  0.00    +0.000 C 
BRANCH   7   8
ATOM      8  C   UNL     1       4.038   5.295  18.343  0.00  0.00    +0.000 A 
ATOM      9  N   UNL     1       5.144   5.060  19.043  0.00  0.00    +0.000 NA
ATOM     10  N   UNL     1       5.242   3.691  19.286  0.00  0.00    +0.000 NA
ATOM     11  C   UNL     1       4.201   3.146  18.719  0.00  0.00    +0.000 A 
ATOM     12  N   UNL     1       3.448   4.105  18.123  0.00  0.00    +0.000 N 
ATOM     13  C   UNL     1       2.260   3.584  17.490  0.00  0.00    +0.000 C 
ATOM     14  C   UNL     1       2.165   2.177  18.120  0.00  0.00    +0.000 C 
ATOM     15  C   UNL     1       3.606   1.812  18.569  0.00  0.00    +0.000 C 
ENDBRANCH   7   8
ENDBRANCH   2   7
BRANCH   5  16
ATOM     16  C   UNL     1       0.764  10.383  19.194  0.00  0.00    +0.000 C 
BRANCH  16  17
ATOM     17  C   UNL     1      -0.667  10.511  19.719  0.00  0.00    +0.000 C 
BRANCH  17  18
ATOM     18  C   UNL     1      -1.674  10.681  18.606  0.00  0.00    +0.000 A 
ATOM     19  C   UNL     1      -2.807  11.507  18.794  0.00  0.00    +0.000 A 
ATOM     20  C   UNL     1      -3.758  11.670  17.781  0.00  0.00    +0.000 A 
ATOM     21  C   UNL     1      -3.556  10.995  16.597  0.00  0.00    +0.000 A 
ATOM     22  C   UNL     1      -2.461  10.185  16.405  0.00  0.00    +0.000 A 
ATOM     23  C   UNL     1      -1.507  10.005  17.386  0.00  0.00    +0.000 A 
ATOM     24  O   UNL     1      -2.452   9.612  15.171  0.00  0.00    +0.000 OA
ATOM     25  C   UNL     1      -3.670  10.146  14.614  0.00  0.00    +0.000 C 
ATOM     26  O   UNL     1      -4.371  11.034  15.509  0.00  0.00    +0.000 OA
ENDBRANCH  17  18
ENDBRANCH  16  17
ENDBRANCH   5  16
TORSDOF 5
ENDMDL
MODEL 8
REMARK VINA RESULT:      -7.8      1.227      1.643
REMARK  Name = 
REMARK  6 active torsions:
REMARK  status: ('A' for Active; 'I' for Inactive)
REMARK    1  A    between atoms: C_1  and  N_2
REMARK    2  A    between atoms: N_2  and  C_3
REMARK    3  A    between atoms: C_3  and  C_4
REMARK    4  A    between atoms: N_14  and  C_15
REMARK    5  A    between atoms: C_15  and  C_16
REMARK    6  A    between atoms: C_16  and  C_17
REMARK                            x       y       z     vdW  Elec       q    Type
REMARK                         _______ _______ _______ _____ _____    ______ ____
ROOT
ATOM      1  C   UNL     1       4.235   6.579  17.800  0.00  0.00    +0.000 C 
ATOM      2  N   UNL     1       5.467   5.817  17.970  0.00  0.00    +0.000 N 
ATOM      3  C   UNL     1       6.727   6.386  17.943  0.00  0.00    +0.000 C 
ATOM      4  O   UNL     1       7.749   5.765  18.226  0.00  0.00    +0.000 OA
ATOM      5  N   UNL     1       6.761   7.719  17.602  0.00  0.00    +0.000 N 
ATOM      6  H   UNL     1       6.040   8.020  16.965  0.00  0.00    +0.000 HD
ENDROOT
BRANCH   2   7
ATOM      7  C   UNL     1       5.341   4.459  18.511  0.00  0.00    +0.000 C 
BRANCH   7   8
ATOM      8  C   UNL     1       4.006   3.874  18.218  0.00  0.00    +0.000 A 
ATOM      9  N   UNL     1       3.563   3.416  17.052  0.00  0.00    +0.000 NA
ATOM     10  N   UNL     1       2.246   2.987  17.205  0.00  0.00    +0.000 NA
ATOM     11  C   UNL     1       1.935   3.209  18.452  0.00  0.00    +0.000 A 
ATOM     12  N   UNL     1       2.993   3.763  19.098  0.00  0.00    +0.000 N 
ATOM     13  C   UNL     1       2.736   4.019  20.495  0.00  0.00    +0.000 C 
ATOM     14  C   UNL     1       1.469   3.169  20.738  0.00  0.00    +0.000 C 
ATOM     15  C   UNL     1       0.791   3.007  19.351  0.00  0.00    +0.000 C 
ENDBRANCH   7   8
ENDBRANCH   2   7
BRANCH   5  16
ATOM     16  C   UNL     1       8.034   8.420  17.533  0.00  0.00    +0.000 C 
BRANCH  16  17
ATOM     17  C   UNL     1       8.634   8.673  18.918  0.00  0.00    +0.000 C 
BRANCH  17  18
ATOM     18  C   UNL     1       9.175  10.076  19.062  0.00  0.00    +0.000 A 
ATOM     19  C   UNL     1       9.432  10.609  20.346  0.00  0.00    +0.000 A 
ATOM     20  C   UNL     1       9.923  11.910  20.503  0.00  0.00    +0.000 A 
ATOM     21  C   UNL     1      10.141  12.655  19.365  0.00  0.00    +0.000 A 
ATOM     22  C   UNL     1       9.890  12.149  18.112  0.00  0.00    +0.000 A 
ATOM     23  C   UNL     1       9.406  10.870  17.926  0.00  0.00    +0.000 A 
ATOM     24  O   UNL     1      10.169  13.045  17.127  0.00  0.00    +0.000 OA
ATOM     25  C   UNL     1      10.616  14.174  17.905  0.00  0.00    +0.000 C 
ATOM     26  O   UNL     1      10.612  13.930  19.327  0.00  0.00    +0.000 OA
ENDBRANCH  17  18
ENDBRANCH  16  17
ENDBRANCH   5  16
TORSDOF 5
ENDMDL
MODEL 9
REMARK VINA RESULT:      -7.7      1.232      1.429
REMARK  Name = 
REMARK  6 active torsions:
REMARK  status: ('A' for Active; 'I' for Inactive)
REMARK    1  A    between atoms: C_1  and  N_2
REMARK    2  A    between atoms: N_2  and  C_3
REMARK    3  A    between atoms: C_3  and  C_4
REMARK    4  A    between atoms: N_14  and  C_15
REMARK    5  A    between atoms: C_15  and  C_16
REMARK    6  A    between atoms: C_16  and  C_17
REMARK                            x       y       z     vdW  Elec       q    Type
REMARK                         _______ _______ _______ _____ _____    ______ ____
ROOT
ATOM      1  C   UNL     1       4.315   6.822  17.064  0.00  0.00    +0.000 C 
ATOM      2  N   UNL     1       5.465   5.991  17.403  0.00  0.00    +0.000 N 
ATOM      3  C   UNL     1       6.740   6.493  17.591  0.00  0.00    +0.000 C 
ATOM      4  O   UNL     1       7.672   5.812  18.012  0.00  0.00    +0.000 OA
ATOM      5  N   UNL     1       6.893   7.829  17.299  0.00  0.00    +0.000 N 
ATOM      6  H   UNL     1       6.298   8.182  16.567  0.00  0.00    +0.000 HD
ENDROOT
BRANCH   2   7
ATOM      7  C   UNL     1       5.188   4.631  17.876  0.00  0.00    +0.000 C 
BRANCH   7   8
ATOM      8  C   UNL     1       4.051   4.603  18.832  0.00  0.00    +0.000 A 
ATOM      9  N   UNL     1       3.833   5.427  19.853  0.00  0.00    +0.000 NA
ATOM     10  N   UNL     1       2.674   5.029  20.516  0.00  0.00    +0.000 NA
ATOM     11  C   UNL     1       2.237   3.976  19.883  0.00  0.00    +0.000 A 
ATOM     12  N   UNL     1       3.067   3.683  18.850  0.00  0.00    +0.000 N 
ATOM     13  C   UNL     1       2.638   2.539  18.081  0.00  0.00    +0.000 C 
ATOM     14  C   UNL     1       1.175   2.382  18.550  0.00  0.00    +0.000 C 
ATOM     15  C   UNL     1       1.102   3.046  19.952  0.00  0.00    +0.000 C 
ENDBRANCH   7   8
ENDBRANCH   2   7
BRANCH   5  16
ATOM     16  C   UNL     1       8.195   8.462  17.453  0.00  0.00    +0.000 C 
BRANCH  16  17
ATOM     17  C   UNL     1       8.501   8.816  18.909  0.00  0.00    +0.000 C 
BRANCH  17  18
ATOM     18  C   UNL     1       9.188  10.155  19.042  0.00  0.00    +0.000 A 
ATOM     19  C   UNL     1       9.518  10.659  20.322  0.00  0.00    +0.000 A 
ATOM     20  C   UNL     1      10.145  11.901  20.469  0.00  0.00    +0.000 A 
ATOM     21  C   UNL     1      10.423  12.619  19.326  0.00  0.00    +0.000 A 
ATOM     22  C   UNL     1      10.102  12.141  18.078  0.00  0.00    +0.000 A 
ATOM     23  C   UNL     1       9.485  10.919  17.902  0.00  0.00    +0.000 A 
ATOM     24  O   UNL     1      10.460  13.002  17.087  0.00  0.00    +0.000 OA
ATOM     25  C   UNL     1      11.034  14.078  17.856  0.00  0.00    +0.000 C 
ATOM     26  O   UNL     1      11.024  13.838  19.278  0.00  0.00    +0.000 OA
ENDBRANCH  17  18
ENDBRANCH  16  17
ENDBRANCH   5  16
TORSDOF 5
ENDMDL
