MODEL 1
REMARK VINA RESULT:      -7.3      0.000      0.000
REMARK  Name = 
REMARK  4 active torsions:
REMARK  status: ('A' for Active; 'I' for Inactive)
REMARK    1  A    between atoms: C_7  and  N_8
REMARK    2  A    between atoms: C_9  and  S_10
REMARK    3  A    between atoms: N_14  and  C_15
REMARK    4  A    between atoms: C_15  and  C_16
REMARK                            x       y       z     vdW  Elec       q    Type
REMARK                         _______ _______ _______ _____ _____    ______ ____
ROOT
ATOM      1  N   UNL     1       1.532  10.254  19.096  0.00  0.00    +0.000 NA
ATOM      2  C   UNL     1       1.094   9.246  19.794  0.00  0.00    +0.000 C 
ATOM      3  N   UNL     1       1.596   7.966  19.582  0.00  0.00    +0.000 N 
ATOM      4  C   UNL     1       2.020   7.119  20.714  0.00  0.00    +0.000 C 
ATOM      5  C   UNL     1       2.085   5.626  20.306  0.00  0.00    +0.000 C 
ATOM      6  N   UNL     1       2.903   5.333  19.103  0.00  0.00    +0.000 NA
ATOM      7  C   UNL     1       2.418   6.212  18.014  0.00  0.00    +0.000 C 
ATOM      8  C   UNL     1       2.380   7.720  18.349  0.00  0.00    +0.000 C 
ENDROOT
BRANCH   1  15
ATOM      9  F   UNL     1      -0.979  11.168  18.056  0.00  0.00    +0.000 F 
ATOM     10  C   UNL     1      -0.102  12.044  18.574  0.00  0.00    +0.000 A 
ATOM     11  C   UNL     1      -0.411  13.402  18.490  0.00  0.00    +0.000 A 
ATOM     12  C   UNL     1       0.490  14.348  18.970  0.00  0.00    +0.000 A 
ATOM     13  C   UNL     1       1.681  13.923  19.558  0.00  0.00    +0.000 A 
ATOM     14  C   UNL     1       1.968  12.554  19.661  0.00  0.00    +0.000 A 
ATOM     15  C   UNL     1       1.085  11.587  19.162  0.00  0.00    +0.000 A 
ENDBRANCH   1  15
BRANCH   2  16
ATOM     16  S   UNL     1      -0.179   9.371  21.012  0.00  0.00    +0.000 S 
ATOM     17  H   UNL     1      -0.422  10.677  20.832  0.00  0.00    +0.000 HD
ENDBRANCH   2  16
BRANCH   6  18
ATOM     18  C   UNL     1       4.333   5.508  19.405  0.00  0.00    +0.000 C 
BRANCH  18  19
ATOM     19  C   UNL     1       5.249   5.450  18.201  0.00  0.00    +0.000 A 
ATOM     20  C   UNL     1       6.393   6.277  18.120  0.00  0.00    +0.000 A 
ATOM     21  C   UNL     1       7.215   6.256  16.989  0.00  0.00    +0.000 A 
ATOM     22  C   UNL     1       6.878   5.400  15.962  0.00  0.00    +0.000 A 
ATOM     23  C   UNL     1       5.778   4.583  16.036  0.00  0.00    +0.000 A 
ATOM     24  C   UNL     1       4.942   4.583  17.136  0.00  0.00    +0.000 A 
ATOM     25  O   UNL     1       5.618   3.818  14.927  0.00  0.00    +0.000 OA
ATOM     26  C   UNL     1       6.756   4.241  14.146  0.00  0.00    +0.000 C 
ATOM     27  O   UNL     1       7.560   5.245  14.795  0.00  0.00    +0.000 OA
ENDBRANCH  18  19
ENDBRANCH   6  18
TORSDOF 4
ENDMDL
MODEL 2
REMARK VINA RESULT:      -6.8      1.071      1.411
REMARK  Name = 
REMARK  4 active torsions:
REMARK  status: ('A' for Active; 'I' for Inactive)
REMARK    1  A    between atoms: C_7  and  N_8
REMARK    2  A    between atoms: C_9  and  S_10
REMARK    3  A    between atoms: N_14  and  C_15
REMARK    4  A    between atoms: C_15  and  C_16
REMARK                            x       y       z     vdW  Elec       q    Type
REMARK                         _______ _______ _______ _____ _____    ______ ____
ROOT
ATOM      1  N   UNL     1       1.551  10.743  19.096  0.00  0.00    +0.000 NA
ATOM      2  C   UNL     1       1.051   9.730  19.742  0.00  0.00    +0.000 C 
ATOM      3  N   UNL     1       1.506   8.439  19.496  0.00  0.00    +0.000 N 
ATOM      4  C   UNL     1       1.861   7.534  20.607  0.00  0.00    +0.000 C 
ATOM      5  C   UNL     1       1.877   6.056  20.146  0.00  0.00    +0.000 C 
ATOM      6  N   UNL     1       2.720   5.772  18.957  0.00  0.00    +0.000 NA
ATOM      7  C   UNL     1       2.305   6.711  17.889  0.00  0.00    +0.000 C 
ATOM      8  C   UNL     1       2.318   8.205  18.279  0.00  0.00    +0.000 C 
ENDROOT
BRANCH   1  15
ATOM      9  F   UNL     1       2.717  12.634  20.909  0.00  0.00    +0.000 F 
ATOM     10  C   UNL     1       1.669  12.985  20.148  0.00  0.00    +0.000 A 
ATOM     11  C   UNL     1       1.112  14.249  20.349  0.00  0.00    +0.000 A 
ATOM     12  C   UNL     1      -0.006  14.638  19.617  0.00  0.00    +0.000 A 
ATOM     13  C   UNL     1      -0.539  13.767  18.667  0.00  0.00    +0.000 A 
ATOM     14  C   UNL     1       0.045  12.510  18.456  0.00  0.00    +0.000 A 
ATOM     15  C   UNL     1       1.156  12.090  19.199  0.00  0.00    +0.000 A 
ENDBRANCH   1  15
BRANCH   2  16
ATOM     16  S   UNL     1      -0.254   9.863  20.926  0.00  0.00    +0.000 S 
ATOM     17  H   UNL     1      -0.668   8.593  20.825  0.00  0.00    +0.000 HD
ENDBRANCH   2  16
BRANCH   6  18
ATOM     18  C   UNL     1       4.146   5.877  19.308  0.00  0.00    +0.000 C 
BRANCH  18  19
ATOM     19  C   UNL     1       5.100   5.716  18.144  0.00  0.00    +0.000 A 
ATOM     20  C   UNL     1       6.336   6.403  18.120  0.00  0.00    +0.000 A 
ATOM     21  C   UNL     1       7.198   6.291  17.024  0.00  0.00    +0.000 A 
ATOM     22  C   UNL     1       6.807   5.486  15.976  0.00  0.00    +0.000 A 
ATOM     23  C   UNL     1       5.617   4.805  15.994  0.00  0.00    +0.000 A 
ATOM     24  C   UNL     1       4.739   4.898  17.057  0.00  0.00    +0.000 A 
ATOM     25  O   UNL     1       5.417   4.070  14.871  0.00  0.00    +0.000 OA
ATOM     26  C   UNL     1       6.629   4.359  14.144  0.00  0.00    +0.000 C 
ATOM     27  O   UNL     1       7.517   5.258  14.837  0.00  0.00    +0.000 OA
ENDBRANCH  18  19
ENDBRANCH   6  18
TORSDOF 4
ENDMDL
MODEL 3
REMARK VINA RESULT:      -6.7      3.732      4.899
REMARK  Name = 
REMARK  4 active torsions:
REMARK  status: ('A' for Active; 'I' for Inactive)
REMARK    1  A    between atoms: C_7  and  N_8
REMARK    2  A    between atoms: C_9  and  S_10
REMARK    3  A    between atoms: N_14  and  C_15
REMARK    4  A    between atoms: C_15  and  C_16
REMARK                            x       y       z     vdW  Elec       q    Type
REMARK                         _______ _______ _______ _____ _____    ______ ____
ROOT
ATOM      1  N   UNL     1      -1.059  12.692  22.191  0.00  0.00    +0.000 NA
ATOM      2  C   UNL     1      -1.445  12.370  20.990  0.00  0.00    +0.000 C 
ATOM      3  N   UNL     1      -0.628  11.605  20.165  0.00  0.00    +0.000 N 
ATOM      4  C   UNL     1      -1.163  10.438  19.436  0.00  0.00    +0.000 C 
ATOM      5  C   UNL     1      -0.242  10.043  18.254  0.00  0.00    +0.000 C 
ATOM      6  N   UNL     1       1.183   9.826  18.606  0.00  0.00    +0.000 NA
ATOM      7  C   UNL     1       1.648  11.033  19.327  0.00  0.00    +0.000 C 
ATOM      8  C   UNL     1       0.795  11.445  20.546  0.00  0.00    +0.000 C 
ENDROOT
BRANCH   1  15
ATOM      9  F   UNL     1      -3.244  11.784  23.811  0.00  0.00    +0.000 F 
ATOM     10  C   UNL     1      -2.874  13.074  23.837  0.00  0.00    +0.000 A 
ATOM     11  C   UNL     1      -3.648  13.960  24.587  0.00  0.00    +0.000 A 
ATOM     12  C   UNL     1      -3.331  15.315  24.604  0.00  0.00    +0.000 A 
ATOM     13  C   UNL     1      -2.221  15.767  23.892  0.00  0.00    +0.000 A 
ATOM     14  C   UNL     1      -1.435  14.864  23.163  0.00  0.00    +0.000 A 
ATOM     15  C   UNL     1      -1.751  13.499  23.113  0.00  0.00    +0.000 A 
ENDBRANCH   1  15
BRANCH   2  16
ATOM     16  S   UNL     1      -2.974  12.891  20.274  0.00  0.00    +0.000 S 
ATOM     17  H   UNL     1      -2.495  13.078  19.036  0.00  0.00    +0.000 HD
ENDBRANCH   2  16
BRANCH   6  18
ATOM     18  C   UNL     1       1.331   8.585  19.384  0.00  0.00    +0.000 C 
BRANCH  18  19
ATOM     19  C   UNL     1       2.403   7.643  18.879  0.00  0.00    +0.000 A 
ATOM     20  C   UNL     1       3.113   7.924  17.689  0.00  0.00    +0.000 A 
ATOM     21  C   UNL     1       4.072   7.032  17.198  0.00  0.00    +0.000 A 
ATOM     22  C   UNL     1       4.306   5.878  17.913  0.00  0.00    +0.000 A 
ATOM     23  C   UNL     1       3.632   5.601  19.075  0.00  0.00    +0.000 A 
ATOM     24  C   UNL     1       2.675   6.456  19.586  0.00  0.00    +0.000 A 
ATOM     25  O   UNL     1       4.004   4.418  19.627  0.00  0.00    +0.000 OA
ATOM     26  C   UNL     1       5.003   3.984  18.680  0.00  0.00    +0.000 C 
ATOM     27  O   UNL     1       5.200   4.904  17.588  0.00  0.00    +0.000 OA
ENDBRANCH  18  19
ENDBRANCH   6  18
TORSDOF 4
ENDMDL
MODEL 4
REMARK VINA RESULT:      -6.6      7.175     10.231
REMARK  Name = 
REMARK  4 active torsions:
REMARK  status: ('A' for Active; 'I' for Inactive)
REMARK    1  A    between atoms: C_7  and  N_8
REMARK    2  A    between atoms: C_9  and  S_10
REMARK    3  A    between atoms: N_14  and  C_15
REMARK    4  A    between atoms: C_15  and  C_16
REMARK                            x       y       z     vdW  Elec       q    Type
REMARK                         _______ _______ _______ _____ _____    ______ ____
ROOT
ATOM      1  N   UNL     1       8.512  13.751  18.929  0.00  0.00    +0.000 NA
ATOM      2  C   UNL     1       8.216  15.016  19.015  0.00  0.00    +0.000 C 
ATOM      3  N   UNL     1       6.901  15.447  18.870  0.00  0.00    +0.000 N 
ATOM      4  C   UNL     1       6.301  16.393  19.830  0.00  0.00    +0.000 C 
ATOM      5  C   UNL     1       5.048  17.082  19.234  0.00  0.00    +0.000 C 
ATOM      6  N   UNL     1       4.014  16.162  18.697  0.00  0.00    +0.000 NA
ATOM      7  C   UNL     1       4.687  15.251  17.742  0.00  0.00    +0.000 C 
ATOM      8  C   UNL     1       5.915  14.498  18.300  0.00  0.00    +0.000 C 
ENDROOT
BRANCH   1  15
ATOM      9  F   UNL     1      10.202  13.281  16.660  0.00  0.00    +0.000 F 
ATOM     10  C   UNL     1      10.579  12.869  17.881  0.00  0.00    +0.000 A 
ATOM     11  C   UNL     1      11.752  12.122  17.984  0.00  0.00    +0.000 A 
ATOM     12  C   UNL     1      12.157  11.632  19.222  0.00  0.00    +0.000 A 
ATOM     13  C   UNL     1      11.396  11.921  20.354  0.00  0.00    +0.000 A 
ATOM     14  C   UNL     1      10.232  12.695  20.243  0.00  0.00    +0.000 A 
ATOM     15  C   UNL     1       9.795  13.177  19.002  0.00  0.00    +0.000 A 
ENDBRANCH   1  15
BRANCH   2  16
ATOM     16  S   UNL     1       9.410  16.293  19.265  0.00  0.00    +0.000 S 
ATOM     17  H   UNL     1       8.581  17.316  19.013  0.00  0.00    +0.000 HD
ENDBRANCH   2  16
BRANCH   6  18
ATOM     18  C   UNL     1       3.337  15.460  19.799  0.00  0.00    +0.000 C 
BRANCH  18  19
ATOM     19  C   UNL     1       2.168  14.594  19.378  0.00  0.00    +0.000 A 
ATOM     20  C   UNL     1       0.942  15.176  18.980  0.00  0.00    +0.000 A 
ATOM     21  C   UNL     1      -0.152  14.376  18.633  0.00  0.00    +0.000 A 
ATOM     22  C   UNL     1       0.007  13.008  18.686  0.00  0.00    +0.000 A 
ATOM     23  C   UNL     1       1.195  12.434  19.058  0.00  0.00    +0.000 A 
ATOM     24  C   UNL     1       2.294  13.193  19.412  0.00  0.00    +0.000 A 
ATOM     25  O   UNL     1       1.148  11.077  19.047  0.00  0.00    +0.000 OA
ATOM     26  C   UNL     1      -0.212  10.862  18.612  0.00  0.00    +0.000 C 
ATOM     27  O   UNL     1      -0.944  12.082  18.382  0.00  0.00    +0.000 OA
ENDBRANCH  18  19
ENDBRANCH   6  18
TORSDOF 4
ENDMDL
MODEL 5
REMARK VINA RESULT:      -6.6      5.099      9.629
REMARK  Name = 
REMARK  4 active torsions:
REMARK  status: ('A' for Active; 'I' for Inactive)
REMARK    1  A    between atoms: C_7  and  N_8
REMARK    2  A    between atoms: C_9  and  S_10
REMARK    3  A    between atoms: N_14  and  C_15
REMARK    4  A    between atoms: C_15  and  C_16
REMARK                            x       y       z     vdW  Elec       q    Type
REMARK                         _______ _______ _______ _____ _____    ______ ____
ROOT
ATOM      1  N   UNL     1       2.348   7.622  18.150  0.00  0.00    +0.000 NA
ATOM      2  C   UNL     1       1.828   8.038  19.269  0.00  0.00    +0.000 C 
ATOM      3  N   UNL     1       1.256   9.304  19.357  0.00  0.00    +0.000 N 
ATOM      4  C   UNL     1      -0.073   9.496  19.970  0.00  0.00    +0.000 C 
ATOM      5  C   UNL     1      -0.293  10.972  20.383  0.00  0.00    +0.000 C 
ATOM      6  N   UNL     1      -0.069  11.972  19.309  0.00  0.00    +0.000 NA
ATOM      7  C   UNL     1       1.278  11.720  18.747  0.00  0.00    +0.000 C 
ATOM      8  C   UNL     1       1.537  10.273  18.272  0.00  0.00    +0.000 C 
ENDROOT
BRANCH   1  15
ATOM      9  F   UNL     1       5.117   7.377  17.450  0.00  0.00    +0.000 F 
ATOM     10  C   UNL     1       4.333   6.288  17.499  0.00  0.00    +0.000 A 
ATOM     11  C   UNL     1       4.883   5.070  17.099  0.00  0.00    +0.000 A 
ATOM     12  C   UNL     1       4.094   3.923  17.087  0.00  0.00    +0.000 A 
ATOM     13  C   UNL     1       2.767   4.002  17.506  0.00  0.00    +0.000 A 
ATOM     14  C   UNL     1       2.232   5.227  17.930  0.00  0.00    +0.000 A 
ATOM     15  C   UNL     1       3.003   6.397  17.927  0.00  0.00    +0.000 A 
ENDBRANCH   1  15
BRANCH   2  16
ATOM     16  S   UNL     1       1.833   7.102  20.767  0.00  0.00    +0.000 S 
ATOM     17  H   UNL     1       0.505   6.939  20.838  0.00  0.00    +0.000 HD
ENDBRANCH   2  16
BRANCH   6  18
ATOM     18  C   UNL     1      -1.146  11.892  18.308  0.00  0.00    +0.000 C 
BRANCH  18  19
ATOM     19  C   UNL     1      -2.544  12.045  18.868  0.00  0.00    +0.000 A 
ATOM     20  C   UNL     1      -2.772  12.761  20.065  0.00  0.00    +0.000 A 
ATOM     21  C   UNL     1      -4.057  12.865  20.606  0.00  0.00    +0.000 A 
ATOM     22  C   UNL     1      -5.092  12.254  19.932  0.00  0.00    +0.000 A 
ATOM     23  C   UNL     1      -4.885  11.568  18.763  0.00  0.00    +0.000 A 
ATOM     24  C   UNL     1      -3.628  11.441  18.204  0.00  0.00    +0.000 A 
ATOM     25  O   UNL     1      -6.029  11.041  18.256  0.00  0.00    +0.000 OA
ATOM     26  C   UNL     1      -6.986  11.485  19.240  0.00  0.00    +0.000 C 
ATOM     27  O   UNL     1      -6.400  12.255  20.308  0.00  0.00    +0.000 OA
ENDBRANCH  18  19
ENDBRANCH   6  18
TORSDOF 4
ENDMDL
MODEL 6
REMARK VINA RESULT:      -6.6      1.240      1.810
REMARK  Name = 
REMARK  4 active torsions:
REMARK  status: ('A' for Active; 'I' for Inactive)
REMARK    1  A    between atoms: C_7  and  N_8
REMARK    2  A    between atoms: C_9  and  S_10
REMARK    3  A    between atoms: N_14  and  C_15
REMARK    4  A    between atoms: C_15  and  C_16
REMARK                            x       y       z     vdW  Elec       q    Type
REMARK                         _______ _______ _______ _____ _____    ______ ____
ROOT
ATOM      1  N   UNL     1       1.393  11.699  19.135  0.00  0.00    +0.000 NA
ATOM      2  C   UNL     1       0.949  10.755  19.914  0.00  0.00    +0.000 C 
ATOM      3  N   UNL     1       1.233   9.421  19.642  0.00  0.00    +0.000 N 
ATOM      4  C   UNL     1       1.725   8.518  20.701  0.00  0.00    +0.000 C 
ATOM      5  C   UNL     1       1.522   7.032  20.314  0.00  0.00    +0.000 C 
ATOM      6  N   UNL     1       2.079   6.639  18.996  0.00  0.00    +0.000 NA
ATOM      7  C   UNL     1       1.540   7.582  17.989  0.00  0.00    +0.000 C 
ATOM      8  C   UNL     1       1.759   9.079  18.300  0.00  0.00    +0.000 C 
ENDROOT
BRANCH   1  15
ATOM      9  F   UNL     1      -0.959  13.007  18.145  0.00  0.00    +0.000 F 
ATOM     10  C   UNL     1       0.036  13.726  18.689  0.00  0.00    +0.000 A 
ATOM     11  C   UNL     1      -0.072  15.116  18.657  0.00  0.00    +0.000 A 
ATOM     12  C   UNL     1       0.958  15.903  19.166  0.00  0.00    +0.000 A 
ATOM     13  C   UNL     1       2.074  15.288  19.731  0.00  0.00    +0.000 A 
ATOM     14  C   UNL     1       2.159  13.889  19.781  0.00  0.00    +0.000 A 
ATOM     15  C   UNL     1       1.145  13.079  19.253  0.00  0.00    +0.000 A 
ENDBRANCH   1  15
BRANCH   2  16
ATOM     16  S   UNL     1      -0.074  11.043  21.325  0.00  0.00    +0.000 S 
ATOM     17  H   UNL     1       0.766  11.886  21.941  0.00  0.00    +0.000 HD
ENDBRANCH   2  16
BRANCH   6  18
ATOM     18  C   UNL     1       3.551   6.620  19.052  0.00  0.00    +0.000 C 
BRANCH  18  19
ATOM     19  C   UNL     1       4.216   5.786  17.978  0.00  0.00    +0.000 A 
ATOM     20  C   UNL     1       3.881   4.423  17.806  0.00  0.00    +0.000 A 
ATOM     21  C   UNL     1       4.527   3.641  16.844  0.00  0.00    +0.000 A 
ATOM     22  C   UNL     1       5.493   4.242  16.066  0.00  0.00    +0.000 A 
ATOM     23  C   UNL     1       5.817   5.567  16.215  0.00  0.00    +0.000 A 
ATOM     24  C   UNL     1       5.203   6.367  17.159  0.00  0.00    +0.000 A 
ATOM     25  O   UNL     1       6.790   5.968  15.357  0.00  0.00    +0.000 OA
ATOM     26  C   UNL     1       7.035   4.739  14.640  0.00  0.00    +0.000 C 
ATOM     27  O   UNL     1       6.217   3.639  15.084  0.00  0.00    +0.000 OA
ENDBRANCH  18  19
ENDBRANCH   6  18
TORSDOF 4
ENDMDL
MODEL 7
REMARK VINA RESULT:      -6.6      5.030      9.541
REMARK  Name = 
REMARK  4 active torsions:
REMARK  status: ('A' for Active; 'I' for Inactive)
REMARK    1  A    between atoms: C_7  and  N_8
REMARK    2  A    between atoms: C_9  and  S_10
REMARK    3  A    between atoms: N_14  and  C_15
REMARK    4  A    between atoms: C_15  and  C_16
REMARK                            x       y       z     vdW  Elec       q    Type
REMARK                         _______ _______ _______ _____ _____    ______ ____
ROOT
ATOM      1  N   UNL     1       2.418   7.344  18.217  0.00  0.00    +0.000 NA
ATOM      2  C   UNL     1       1.872   7.777  19.316  0.00  0.00    +0.000 C 
ATOM      3  N   UNL     1       1.306   9.047  19.373  0.00  0.00    +0.000 N 
ATOM      4  C   UNL     1      -0.036   9.255  19.950  0.00  0.00    +0.000 C 
ATOM      5  C   UNL     1      -0.257  10.738  20.339  0.00  0.00    +0.000 C 
ATOM      6  N   UNL     1       0.001  11.722  19.259  0.00  0.00    +0.000 NA
ATOM      7  C   UNL     1       1.360  11.455  18.735  0.00  0.00    +0.000 C 
ATOM      8  C   UNL     1       1.622  10.001  18.284  0.00  0.00    +0.000 C 
ENDROOT
BRANCH   1  15
ATOM      9  F   UNL     1       1.083   4.892  17.561  0.00  0.00    +0.000 F 
ATOM     10  C   UNL     1       2.406   4.901  17.793  0.00  0.00    +0.000 A 
ATOM     11  C   UNL     1       3.073   3.676  17.808  0.00  0.00    +0.000 A 
ATOM     12  C   UNL     1       4.435   3.632  18.092  0.00  0.00    +0.000 A 
ATOM     13  C   UNL     1       5.123   4.821  18.330  0.00  0.00    +0.000 A 
ATOM     14  C   UNL     1       4.447   6.049  18.287  0.00  0.00    +0.000 A 
ATOM     15  C   UNL     1       3.072   6.112  18.026  0.00  0.00    +0.000 A 
ENDBRANCH   1  15
BRANCH   2  16
ATOM     16  S   UNL     1       1.834   6.860  20.825  0.00  0.00    +0.000 S 
ATOM     17  H   UNL     1       1.643   7.915  21.630  0.00  0.00    +0.000 HD
ENDBRANCH   2  16
BRANCH   6  18
ATOM     18  C   UNL     1      -1.051  11.637  18.232  0.00  0.00    +0.000 C 
BRANCH  18  19
ATOM     19  C   UNL     1      -2.456  11.881  18.740  0.00  0.00    +0.000 A 
ATOM     20  C   UNL     1      -2.681  12.639  19.912  0.00  0.00    +0.000 A 
ATOM     21  C   UNL     1      -3.976  12.828  20.407  0.00  0.00    +0.000 A 
ATOM     22  C   UNL     1      -5.021  12.257  19.713  0.00  0.00    +0.000 A 
ATOM     23  C   UNL     1      -4.815  11.530  18.569  0.00  0.00    +0.000 A 
ATOM     24  C   UNL     1      -3.550  11.320  18.055  0.00  0.00    +0.000 A 
ATOM     25  O   UNL     1      -5.969  11.053  18.037  0.00  0.00    +0.000 OA
ATOM     26  C   UNL     1      -6.931  11.574  18.977  0.00  0.00    +0.000 C 
ATOM     27  O   UNL     1      -6.338  12.339  20.046  0.00  0.00    +0.000 OA
ENDBRANCH  18  19
ENDBRANCH   6  18
TORSDOF 4
ENDMDL
MODEL 8
REMARK VINA RESULT:      -6.6      3.864      5.229
REMARK  Name = 
REMARK  4 active torsions:
REMARK  status: ('A' for Active; 'I' for Inactive)
REMARK    1  A    between atoms: C_7  and  N_8
REMARK    2  A    between atoms: C_9  and  S_10
REMARK    3  A    between atoms: N_14  and  C_15
REMARK    4  A    between atoms: C_15  and  C_16
REMARK                            x       y       z     vdW  Elec       q    Type
REMARK                         _______ _______ _______ _____ _____    ______ ____
ROOT
ATOM      1  N   UNL     1      -1.780  11.714  22.475  0.00  0.00    +0.000 NA
ATOM      2  C   UNL     1      -1.056  11.685  21.393  0.00  0.00    +0.000 C 
ATOM      3  N   UNL     1      -0.116  10.678  21.197  0.00  0.00    +0.000 N 
ATOM      4  C   UNL     1      -0.044   9.945  19.918  0.00  0.00    +0.000 C 
ATOM      5  C   UNL     1       1.324   9.238  19.751  0.00  0.00    +0.000 C 
ATOM      6  N   UNL     1       1.723   8.357  20.877  0.00  0.00    +0.000 NA
ATOM      7  C   UNL     1       1.630   9.158  22.119  0.00  0.00    +0.000 C 
ATOM      8  C   UNL     1       0.269   9.847  22.362  0.00  0.00    +0.000 C 
ENDROOT
BRANCH   1  15
ATOM      9  F   UNL     1      -1.210  13.976  24.143  0.00  0.00    +0.000 F 
ATOM     10  C   UNL     1      -2.464  13.747  23.719  0.00  0.00    +0.000 A 
ATOM     11  C   UNL     1      -3.477  14.575  24.202  0.00  0.00    +0.000 A 
ATOM     12  C   UNL     1      -4.798  14.345  23.829  0.00  0.00    +0.000 A 
ATOM     13  C   UNL     1      -5.089  13.303  22.949  0.00  0.00    +0.000 A 
ATOM     14  C   UNL     1      -4.059  12.492  22.451  0.00  0.00    +0.000 A 
ATOM     15  C   UNL     1      -2.725  12.693  22.833  0.00  0.00    +0.000 A 
ENDBRANCH   1  15
BRANCH   2  16
ATOM     16  S   UNL     1      -1.140  12.904  20.118  0.00  0.00    +0.000 S 
ATOM     17  H   UNL     1      -1.967  12.218  19.318  0.00  0.00    +0.000 HD
ENDBRANCH   2  16
BRANCH   6  18
ATOM     18  C   UNL     1       0.885   7.146  20.896  0.00  0.00    +0.000 C 
BRANCH  18  19
ATOM     19  C   UNL     1       1.531   5.918  20.291  0.00  0.00    +0.000 A 
ATOM     20  C   UNL     1       1.113   4.620  20.667  0.00  0.00    +0.000 A 
ATOM     21  C   UNL     1       1.739   3.484  20.142  0.00  0.00    +0.000 A 
ATOM     22  C   UNL     1       2.767   3.672  19.244  0.00  0.00    +0.000 A 
ATOM     23  C   UNL     1       3.171   4.925  18.862  0.00  0.00    +0.000 A 
ATOM     24  C   UNL     1       2.579   6.068  19.365  0.00  0.00    +0.000 A 
ATOM     25  O   UNL     1       4.196   4.897  17.972  0.00  0.00    +0.000 OA
ATOM     26  C   UNL     1       4.385   3.473  17.829  0.00  0.00    +0.000 C 
ATOM     27  O   UNL     1       3.483   2.688  18.633  0.00  0.00    +0.000 OA
ENDBRANCH  18  19
ENDBRANCH   6  18
TORSDOF 4
ENDMDL
MODEL 9
REMARK VINA RESULT:      -6.5      3.413      4.590
REMARK  Name = 
REMARK  4 active torsions:
REMARK  status: ('A' for Active; 'I' for Inactive)
REMARK    1  A    between atoms: C_7  and  N_8
REMARK    2  A    between atoms: C_9  and  S_10
REMARK    3  A    between atoms: N_14  and  C_15
REMARK    4  A    between atoms: C_15  and  C_16
REMARK                            x       y       z     vdW  Elec       q    Type
REMARK                         _______ _______ _______ _____ _____    ______ ____
ROOT
ATOM      1  N   UNL     1      -1.290  12.554  21.465  0.00  0.00    +0.000 NA
ATOM      2  C   UNL     1      -1.631  12.056  20.311  0.00  0.00    +0.000 C 
ATOM      3  N   UNL     1      -0.713  11.341  19.549  0.00  0.00    +0.000 N 
ATOM      4  C   UNL     1      -1.072  10.039  18.954  0.00  0.00    +0.000 C 
ATOM      5  C   UNL     1      -0.110   9.665  17.798  0.00  0.00    +0.000 C 
ATOM      6  N   UNL     1       1.334   9.700  18.138  0.00  0.00    +0.000 NA
ATOM      7  C   UNL     1       1.617  11.031  18.724  0.00  0.00    +0.000 C 
ATOM      8  C   UNL     1       0.720  11.435  19.914  0.00  0.00    +0.000 C 
ENDROOT
BRANCH   1  15
ATOM      9  F   UNL     1      -2.764  11.526  23.700  0.00  0.00    +0.000 F 
ATOM     10  C   UNL     1      -2.877  12.818  23.352  0.00  0.00    +0.000 A 
ATOM     11  C   UNL     1      -3.804  13.600  24.041  0.00  0.00    +0.000 A 
ATOM     12  C   UNL     1      -3.990  14.933  23.682  0.00  0.00    +0.000 A 
ATOM     13  C   UNL     1      -3.222  15.478  22.654  0.00  0.00    +0.000 A 
ATOM     14  C   UNL     1      -2.275  14.689  21.986  0.00  0.00    +0.000 A 
ATOM     15  C   UNL     1      -2.089  13.340  22.316  0.00  0.00    +0.000 A 
ENDBRANCH   1  15
BRANCH   2  16
ATOM     16  S   UNL     1      -3.225  12.268  19.579  0.00  0.00    +0.000 S 
ATOM     17  H   UNL     1      -2.920  11.699  18.405  0.00  0.00    +0.000 HD
ENDBRANCH   2  16
BRANCH   6  18
ATOM     18  C   UNL     1       1.672   8.581  19.034  0.00  0.00    +0.000 C 
BRANCH  18  19
ATOM     19  C   UNL     1       2.512   7.493  18.402  0.00  0.00    +0.000 A 
ATOM     20  C   UNL     1       2.278   6.130  18.700  0.00  0.00    +0.000 A 
ATOM     21  C   UNL     1       3.082   5.127  18.151  0.00  0.00    +0.000 A 
ATOM     22  C   UNL     1       4.103   5.508  17.308  0.00  0.00    +0.000 A 
ATOM     23  C   UNL     1       4.332   6.825  17.001  0.00  0.00    +0.000 A 
ATOM     24  C   UNL     1       3.560   7.842  17.530  0.00  0.00    +0.000 A 
ATOM     25  O   UNL     1       5.381   6.992  16.156  0.00  0.00    +0.000 OA
ATOM     26  C   UNL     1       5.783   5.620  15.956  0.00  0.00    +0.000 C 
ATOM     27  O   UNL     1       4.978   4.671  16.684  0.00  0.00    +0.000 OA
ENDBRANCH  18  19
ENDBRANCH   6  18
TORSDOF 4
ENDMDL
