MODEL 1
REMARK VINA RESULT:      -7.4      0.000      0.000
REMARK  Name = 
REMARK  5 active torsions:
REMARK  status: ('A' for Active; 'I' for Inactive)
REMARK    1  A    between atoms: C_1  and  C_2
REMARK    2  A    between atoms: C_2  and  C_3
REMARK    3  A    between atoms: C_2  and  N_10
REMARK    4  A    between atoms: C_11  and  C_12
REMARK    5  A    between atoms: N_15  and  C_16
REMARK                            x       y       z     vdW  Elec       q    Type
REMARK                         _______ _______ _______ _____ _____    ______ ____
ROOT
ATOM      1  N   UNL     1       6.301   6.050  18.055  0.00  0.00    +0.000 N 
ATOM      2  C   UNL     1       5.778   5.165  18.945  0.00  0.00    +0.000 A 
ATOM      3  N   UNL     1       6.556   4.895  19.956  0.00  0.00    +0.000 NA
ATOM      4  N   UNL     1       7.638   5.690  19.763  0.00  0.00    +0.000 N 
ATOM      5  C   UNL     1       7.484   6.439  18.621  0.00  0.00    +0.000 A 
ATOM      6  O   UNL     1       8.290   7.276  18.221  0.00  0.00    +0.000 OA
ATOM      7  H   UNL     1       8.443   5.703  20.371  0.00  0.00    +0.000 HD
ENDROOT
BRANCH   2   8
ATOM      8  C   UNL     1       4.420   4.521  18.799  0.00  0.00    +0.000 C 
ATOM      9  C   UNL     1       3.397   5.046  19.819  0.00  0.00    +0.000 C 
ATOM     10  C   UNL     1       2.022   4.456  19.502  0.00  0.00    +0.000 C 
ATOM     11  N   UNL     1       2.054   2.986  19.504  0.00  0.00    +0.000 NA
ATOM     12  C   UNL     1       0.732   2.451  19.175  0.00  0.00    +0.000 C 
ATOM     13  C   UNL     1       3.063   2.443  18.583  0.00  0.00    +0.000 C 
ATOM     14  C   UNL     1       4.460   2.994  18.886  0.00  0.00    +0.000 C 
ENDBRANCH   2   8
BRANCH   1  16
ATOM     15  C   UNL     1       4.348   7.035  16.761  0.00  0.00    +0.000 C 
ATOM     16  C   UNL     1       5.818   6.563  16.767  0.00  0.00    +0.000 C 
BRANCH  16  17
ATOM     17  C   UNL     1       6.017   5.586  15.618  0.00  0.00    +0.000 A 
ATOM     18  C   UNL     1       5.023   4.658  15.255  0.00  0.00    +0.000 A 
ATOM     19  C   UNL     1       5.208   3.811  14.161  0.00  0.00    +0.000 A 
ATOM     20  C   UNL     1       6.382   3.895  13.424  0.00  0.00    +0.000 A 
ATOM     21  F   UNL     1       6.562   3.082  12.375  0.00  0.00    +0.000 F 
ATOM     22  C   UNL     1       7.374   4.807  13.759  0.00  0.00    +0.000 A 
ATOM     23  C   UNL     1       7.193   5.655  14.851  0.00  0.00    +0.000 A 
ENDBRANCH  16  17
ENDBRANCH   1  16
TORSDOF 3
ENDMDL
MODEL 2
REMARK VINA RESULT:      -7.3      0.152      1.041
REMARK  Name = 
REMARK  5 active torsions:
REMARK  status: ('A' for Active; 'I' for Inactive)
REMARK    1  A    between atoms: C_1  and  C_2
REMARK    2  A    between atoms: C_2  and  C_3
REMARK    3  A    between atoms: C_2  and  N_10
REMARK    4  A    between atoms: C_11  and  C_12
REMARK    5  A    between atoms: N_15  and  C_16
REMARK                            x       y       z     vdW  Elec       q    Type
REMARK                         _______ _______ _______ _____ _____    ______ ____
ROOT
ATOM      1  N   UNL     1       6.331   6.105  18.124  0.00  0.00    +0.000 N 
ATOM      2  C   UNL     1       5.836   5.191  19.001  0.00  0.00    +0.000 A 
ATOM      3  N   UNL     1       6.645   4.890  19.978  0.00  0.00    +0.000 NA
ATOM      4  N   UNL     1       7.720   5.693  19.777  0.00  0.00    +0.000 N 
ATOM      5  C   UNL     1       7.531   6.478  18.665  0.00  0.00    +0.000 A 
ATOM      6  O   UNL     1       8.323   7.329  18.268  0.00  0.00    +0.000 OA
ATOM      7  H   UNL     1       8.544   5.688  20.360  0.00  0.00    +0.000 HD
ENDROOT
BRANCH   2   8
ATOM      8  C   UNL     1       4.475   4.549  18.876  0.00  0.00    +0.000 C 
ATOM      9  C   UNL     1       3.436   5.160  19.830  0.00  0.00    +0.000 C 
ATOM     10  C   UNL     1       2.062   4.560  19.530  0.00  0.00    +0.000 C 
ATOM     11  N   UNL     1       2.079   3.093  19.646  0.00  0.00    +0.000 NA
ATOM     12  C   UNL     1       0.759   2.547  19.331  0.00  0.00    +0.000 C 
ATOM     13  C   UNL     1       3.101   2.473  18.791  0.00  0.00    +0.000 C 
ATOM     14  C   UNL     1       4.497   3.033  19.080  0.00  0.00    +0.000 C 
ENDBRANCH   2   8
BRANCH   1  16
ATOM     15  C   UNL     1       4.331   7.104  16.916  0.00  0.00    +0.000 C 
ATOM     16  C   UNL     1       5.808   6.659  16.868  0.00  0.00    +0.000 C 
BRANCH  16  17
ATOM     17  C   UNL     1       5.995   5.730  15.678  0.00  0.00    +0.000 A 
ATOM     18  C   UNL     1       7.210   5.670  14.971  0.00  0.00    +0.000 A 
ATOM     19  C   UNL     1       7.374   4.768  13.917  0.00  0.00    +0.000 A 
ATOM     20  C   UNL     1       6.329   3.922  13.575  0.00  0.00    +0.000 A 
ATOM     21  F   UNL     1       6.483   3.057  12.563  0.00  0.00    +0.000 F 
ATOM     22  C   UNL     1       5.122   3.959  14.262  0.00  0.00    +0.000 A 
ATOM     23  C   UNL     1       4.955   4.858  15.315  0.00  0.00    +0.000 A 
ENDBRANCH  16  17
ENDBRANCH   1  16
TORSDOF 3
ENDMDL
MODEL 3
REMARK VINA RESULT:      -7.1      3.412      5.143
REMARK  Name = 
REMARK  5 active torsions:
REMARK  status: ('A' for Active; 'I' for Inactive)
REMARK    1  A    between atoms: C_1  and  C_2
REMARK    2  A    between atoms: C_2  and  C_3
REMARK    3  A    between atoms: C_2  and  N_10
REMARK    4  A    between atoms: C_11  and  C_12
REMARK    5  A    between atoms: N_15  and  C_16
REMARK                            x       y       z     vdW  Elec       q    Type
REMARK                         _______ _______ _______ _____ _____    ______ ____
ROOT
ATOM      1  N   UNL     1       3.358   4.596  19.145  0.00  0.00    +0.000 N 
ATOM      2  C   UNL     1       2.634   5.421  19.947  0.00  0.00    +0.000 A 
ATOM      3  N   UNL     1       2.089   4.830  20.974  0.00  0.00    +0.000 NA
ATOM      4  N   UNL     1       2.522   3.548  20.887  0.00  0.00    +0.000 N 
ATOM      5  C   UNL     1       3.337   3.390  19.792  0.00  0.00    +0.000 A 
ATOM      6  O   UNL     1       3.906   2.345  19.488  0.00  0.00    +0.000 OA
ATOM      7  H   UNL     1       2.258   2.819  21.533  0.00  0.00    +0.000 HD
ENDROOT
BRANCH   2   8
ATOM      8  C   UNL     1       2.445   6.897  19.693  0.00  0.00    +0.000 C 
ATOM      9  C   UNL     1       1.383   7.530  20.607  0.00  0.00    +0.000 C 
ATOM     10  C   UNL     1       1.367   9.043  20.388  0.00  0.00    +0.000 C 
ATOM     11  N   UNL     1       1.111   9.380  18.979  0.00  0.00    +0.000 NA
ATOM     12  C   UNL     1       1.124  10.832  18.796  0.00  0.00    +0.000 C 
ATOM     13  C   UNL     1       2.072   8.745  18.065  0.00  0.00    +0.000 C 
ATOM     14  C   UNL     1       2.098   7.224  18.239  0.00  0.00    +0.000 C 
ENDBRANCH   2   8
BRANCH   1  16
ATOM     15  C   UNL     1       4.306   3.540  17.037  0.00  0.00    +0.000 C 
ATOM     16  C   UNL     1       4.057   4.814  17.872  0.00  0.00    +0.000 C 
BRANCH  16  17
ATOM     17  C   UNL     1       5.376   5.555  18.029  0.00  0.00    +0.000 A 
ATOM     18  C   UNL     1       5.700   6.666  17.230  0.00  0.00    +0.000 A 
ATOM     19  C   UNL     1       6.893   7.363  17.432  0.00  0.00    +0.000 A 
ATOM     20  C   UNL     1       7.758   6.956  18.439  0.00  0.00    +0.000 A 
ATOM     21  F   UNL     1       8.904   7.622  18.634  0.00  0.00    +0.000 F 
ATOM     22  C   UNL     1       7.458   5.865  19.244  0.00  0.00    +0.000 A 
ATOM     23  C   UNL     1       6.267   5.167  19.045  0.00  0.00    +0.000 A 
ENDBRANCH  16  17
ENDBRANCH   1  16
TORSDOF 3
ENDMDL
MODEL 4
REMARK VINA RESULT:      -7.1      2.507      3.920
REMARK  Name = 
REMARK  5 active torsions:
REMARK  status: ('A' for Active; 'I' for Inactive)
REMARK    1  A    between atoms: C_1  and  C_2
REMARK    2  A    between atoms: C_2  and  C_3
REMARK    3  A    between atoms: C_2  and  N_10
REMARK    4  A    between atoms: C_11  and  C_12
REMARK    5  A    between atoms: N_15  and  C_16
REMARK                            x       y       z     vdW  Elec       q    Type
REMARK                         _______ _______ _______ _____ _____    ______ ____
ROOT
ATOM      1  N   UNL     1       4.511   3.913  19.442  0.00  0.00    +0.000 N 
ATOM      2  C   UNL     1       3.329   4.568  19.595  0.00  0.00    +0.000 A 
ATOM      3  N   UNL     1       2.347   3.816  20.007  0.00  0.00    +0.000 NA
ATOM      4  N   UNL     1       2.917   2.601  20.197  0.00  0.00    +0.000 N 
ATOM      5  C   UNL     1       4.257   2.647  19.895  0.00  0.00    +0.000 A 
ATOM      6  O   UNL     1       5.034   1.703  20.014  0.00  0.00    +0.000 OA
ATOM      7  H   UNL     1       2.411   1.781  20.500  0.00  0.00    +0.000 HD
ENDROOT
BRANCH   2   8
ATOM      8  C   UNL     1       3.132   6.038  19.309  0.00  0.00    +0.000 C 
ATOM      9  C   UNL     1       1.963   6.649  20.099  0.00  0.00    +0.000 C 
ATOM     10  C   UNL     1       1.934   8.160  19.866  0.00  0.00    +0.000 C 
ATOM     11  N   UNL     1       1.823   8.481  18.435  0.00  0.00    +0.000 NA
ATOM     12  C   UNL     1       1.820   9.932  18.241  0.00  0.00    +0.000 C 
ATOM     13  C   UNL     1       2.891   7.866  17.635  0.00  0.00    +0.000 C 
ATOM     14  C   UNL     1       2.936   6.347  17.824  0.00  0.00    +0.000 C 
ENDBRANCH   2   8
BRANCH   1  16
ATOM     15  C   UNL     1       6.277   5.740  19.399  0.00  0.00    +0.000 C 
ATOM     16  C   UNL     1       5.822   4.340  18.936  0.00  0.00    +0.000 C 
BRANCH  16  17
ATOM     17  C   UNL     1       5.933   4.272  17.421  0.00  0.00    +0.000 A 
ATOM     18  C   UNL     1       4.869   3.817  16.621  0.00  0.00    +0.000 A 
ATOM     19  C   UNL     1       4.977   3.818  15.229  0.00  0.00    +0.000 A 
ATOM     20  C   UNL     1       6.144   4.280  14.635  0.00  0.00    +0.000 A 
ATOM     21  F   UNL     1       6.250   4.280  13.300  0.00  0.00    +0.000 F 
ATOM     22  C   UNL     1       7.206   4.739  15.404  0.00  0.00    +0.000 A 
ATOM     23  C   UNL     1       7.101   4.740  16.795  0.00  0.00    +0.000 A 
ENDBRANCH  16  17
ENDBRANCH   1  16
TORSDOF 3
ENDMDL
MODEL 5
REMARK VINA RESULT:      -7.1      2.486      4.037
REMARK  Name = 
REMARK  5 active torsions:
REMARK  status: ('A' for Active; 'I' for Inactive)
REMARK    1  A    between atoms: C_1  and  C_2
REMARK    2  A    between atoms: C_2  and  C_3
REMARK    3  A    between atoms: C_2  and  N_10
REMARK    4  A    between atoms: C_11  and  C_12
REMARK    5  A    between atoms: N_15  and  C_16
REMARK                            x       y       z     vdW  Elec       q    Type
REMARK                         _______ _______ _______ _____ _____    ______ ____
ROOT
ATOM      1  N   UNL     1       4.544   3.900  19.423  0.00  0.00    +0.000 N 
ATOM      2  C   UNL     1       3.363   4.556  19.576  0.00  0.00    +0.000 A 
ATOM      3  N   UNL     1       2.381   3.806  19.991  0.00  0.00    +0.000 NA
ATOM      4  N   UNL     1       2.951   2.591  20.184  0.00  0.00    +0.000 N 
ATOM      5  C   UNL     1       4.291   2.636  19.879  0.00  0.00    +0.000 A 
ATOM      6  O   UNL     1       5.067   1.691  19.999  0.00  0.00    +0.000 OA
ATOM      7  H   UNL     1       2.445   1.772  20.489  0.00  0.00    +0.000 HD
ENDROOT
BRANCH   2   8
ATOM      8  C   UNL     1       3.167   6.025  19.287  0.00  0.00    +0.000 C 
ATOM      9  C   UNL     1       1.986   6.634  20.061  0.00  0.00    +0.000 C 
ATOM     10  C   UNL     1       1.956   8.145  19.827  0.00  0.00    +0.000 C 
ATOM     11  N   UNL     1       1.862   8.465  18.394  0.00  0.00    +0.000 NA
ATOM     12  C   UNL     1       1.859   9.916  18.200  0.00  0.00    +0.000 C 
ATOM     13  C   UNL     1       2.942   7.851  17.608  0.00  0.00    +0.000 C 
ATOM     14  C   UNL     1       2.988   6.333  17.799  0.00  0.00    +0.000 C 
ENDBRANCH   2   8
BRANCH   1  16
ATOM     15  C   UNL     1       6.350   5.688  19.442  0.00  0.00    +0.000 C 
ATOM     16  C   UNL     1       5.855   4.325  18.914  0.00  0.00    +0.000 C 
BRANCH  16  17
ATOM     17  C   UNL     1       5.935   4.336  17.395  0.00  0.00    +0.000 A 
ATOM     18  C   UNL     1       7.049   4.864  16.718  0.00  0.00    +0.000 A 
ATOM     19  C   UNL     1       7.123   4.811  15.324  0.00  0.00    +0.000 A 
ATOM     20  C   UNL     1       6.090   4.222  14.608  0.00  0.00    +0.000 A 
ATOM     21  F   UNL     1       6.158   4.172  13.271  0.00  0.00    +0.000 F 
ATOM     22  C   UNL     1       4.983   3.689  15.255  0.00  0.00    +0.000 A 
ATOM     23  C   UNL     1       4.906   3.740  16.647  0.00  0.00    +0.000 A 
ENDBRANCH  16  17
ENDBRANCH   1  16
TORSDOF 3
ENDMDL
MODEL 6
REMARK VINA RESULT:      -7.1      3.374      5.087
REMARK  Name = 
REMARK  5 active torsions:
REMARK  status: ('A' for Active; 'I' for Inactive)
REMARK    1  A    between atoms: C_1  and  C_2
REMARK    2  A    between atoms: C_2  and  C_3
REMARK    3  A    between atoms: C_2  and  N_10
REMARK    4  A    between atoms: C_11  and  C_12
REMARK    5  A    between atoms: N_15  and  C_16
REMARK                            x       y       z     vdW  Elec       q    Type
REMARK                         _______ _______ _______ _____ _____    ______ ____
ROOT
ATOM      1  N   UNL     1       3.429   4.473  18.963  0.00  0.00    +0.000 N 
ATOM      2  C   UNL     1       2.654   5.224  19.790  0.00  0.00    +0.000 A 
ATOM      3  N   UNL     1       2.063   4.547  20.734  0.00  0.00    +0.000 NA
ATOM      4  N   UNL     1       2.514   3.280  20.566  0.00  0.00    +0.000 N 
ATOM      5  C   UNL     1       3.388   3.219  19.506  0.00  0.00    +0.000 A 
ATOM      6  O   UNL     1       3.983   2.205  19.148  0.00  0.00    +0.000 OA
ATOM      7  H   UNL     1       2.224   2.498  21.134  0.00  0.00    +0.000 HD
ENDROOT
BRANCH   2   8
ATOM      8  C   UNL     1       2.462   6.715  19.648  0.00  0.00    +0.000 C 
ATOM      9  C   UNL     1       1.426   7.281  20.633  0.00  0.00    +0.000 C 
ATOM     10  C   UNL     1       1.408   8.806  20.525  0.00  0.00    +0.000 C 
ATOM     11  N   UNL     1       1.117   9.244  19.151  0.00  0.00    +0.000 NA
ATOM     12  C   UNL     1       1.129  10.705  19.073  0.00  0.00    +0.000 C 
ATOM     13  C   UNL     1       2.052   8.677  18.169  0.00  0.00    +0.000 C 
ATOM     14  C   UNL     1       2.079   7.147  18.231  0.00  0.00    +0.000 C 
ENDBRANCH   2   8
BRANCH   1  16
ATOM     15  C   UNL     1       4.561   3.592  16.865  0.00  0.00    +0.000 C 
ATOM     16  C   UNL     1       4.191   4.801  17.751  0.00  0.00    +0.000 C 
BRANCH  16  17
ATOM     17  C   UNL     1       5.456   5.599  18.033  0.00  0.00    +0.000 A 
ATOM     18  C   UNL     1       6.381   5.196  19.013  0.00  0.00    +0.000 A 
ATOM     19  C   UNL     1       7.561   5.915  19.213  0.00  0.00    +0.000 A 
ATOM     20  C   UNL     1       7.821   7.031  18.429  0.00  0.00    +0.000 A 
ATOM     21  F   UNL     1       8.952   7.724  18.620  0.00  0.00    +0.000 F 
ATOM     22  C   UNL     1       6.925   7.445  17.451  0.00  0.00    +0.000 A 
ATOM     23  C   UNL     1       5.746   6.728  17.249  0.00  0.00    +0.000 A 
ENDBRANCH  16  17
ENDBRANCH   1  16
TORSDOF 3
ENDMDL
MODEL 7
REMARK VINA RESULT:      -7.0      2.729      5.653
REMARK  Name = 
REMARK  5 active torsions:
REMARK  status: ('A' for Active; 'I' for Inactive)
REMARK    1  A    between atoms: C_1  and  C_2
REMARK    2  A    between atoms: C_2  and  C_3
REMARK    3  A    between atoms: C_2  and  N_10
REMARK    4  A    between atoms: C_11  and  C_12
REMARK    5  A    between atoms: N_15  and  C_16
REMARK                            x       y       z     vdW  Elec       q    Type
REMARK                         _______ _______ _______ _____ _____    ______ ____
ROOT
ATOM      1  N   UNL     1       5.593   5.314  17.511  0.00  0.00    +0.000 N 
ATOM      2  C   UNL     1       6.643   5.009  16.703  0.00  0.00    +0.000 A 
ATOM      3  N   UNL     1       7.766   4.806  17.334  0.00  0.00    +0.000 NA
ATOM      4  N   UNL     1       7.437   4.925  18.643  0.00  0.00    +0.000 N 
ATOM      5  C   UNL     1       6.096   5.197  18.778  0.00  0.00    +0.000 A 
ATOM      6  O   UNL     1       5.511   5.316  19.851  0.00  0.00    +0.000 OA
ATOM      7  H   UNL     1       8.098   4.843  19.401  0.00  0.00    +0.000 HD
ENDROOT
BRANCH   2   8
ATOM      8  C   UNL     1       6.554   4.916  15.198  0.00  0.00    +0.000 C 
ATOM      9  C   UNL     1       5.970   3.578  14.715  0.00  0.00    +0.000 C 
ATOM     10  C   UNL     1       5.775   3.631  13.200  0.00  0.00    +0.000 C 
ATOM     11  N   UNL     1       7.038   3.931  12.506  0.00  0.00    +0.000 NA
ATOM     12  C   UNL     1       6.816   3.998  11.061  0.00  0.00    +0.000 C 
ATOM     13  C   UNL     1       7.660   5.175  12.981  0.00  0.00    +0.000 C 
ATOM     14  C   UNL     1       7.892   5.149  14.495  0.00  0.00    +0.000 C 
ENDBRANCH   2   8
BRANCH   1  16
ATOM     15  C   UNL     1       3.748   7.031  17.839  0.00  0.00    +0.000 C 
ATOM     16  C   UNL     1       4.201   5.687  17.229  0.00  0.00    +0.000 C 
BRANCH  16  17
ATOM     17  C   UNL     1       3.199   4.614  17.624  0.00  0.00    +0.000 A 
ATOM     18  C   UNL     1       3.354   3.273  17.226  0.00  0.00    +0.000 A 
ATOM     19  C   UNL     1       2.450   2.298  17.650  0.00  0.00    +0.000 A 
ATOM     20  C   UNL     1       1.396   2.658  18.478  0.00  0.00    +0.000 A 
ATOM     21  F   UNL     1       0.526   1.723  18.885  0.00  0.00    +0.000 F 
ATOM     22  C   UNL     1       1.225   3.973  18.889  0.00  0.00    +0.000 A 
ATOM     23  C   UNL     1       2.126   4.951  18.468  0.00  0.00    +0.000 A 
ENDBRANCH  16  17
ENDBRANCH   1  16
TORSDOF 3
ENDMDL
MODEL 8
REMARK VINA RESULT:      -7.0      2.738      5.655
REMARK  Name = 
REMARK  5 active torsions:
REMARK  status: ('A' for Active; 'I' for Inactive)
REMARK    1  A    between atoms: C_1  and  C_2
REMARK    2  A    between atoms: C_2  and  C_3
REMARK    3  A    between atoms: C_2  and  N_10
REMARK    4  A    between atoms: C_11  and  C_12
REMARK    5  A    between atoms: N_15  and  C_16
REMARK                            x       y       z     vdW  Elec       q    Type
REMARK                         _______ _______ _______ _____ _____    ______ ____
ROOT
ATOM      1  N   UNL     1       5.615   5.292  17.486  0.00  0.00    +0.000 N 
ATOM      2  C   UNL     1       6.658   4.991  16.668  0.00  0.00    +0.000 A 
ATOM      3  N   UNL     1       7.786   4.786  17.289  0.00  0.00    +0.000 NA
ATOM      4  N   UNL     1       7.467   4.899  18.602  0.00  0.00    +0.000 N 
ATOM      5  C   UNL     1       6.127   5.169  18.748  0.00  0.00    +0.000 A 
ATOM      6  O   UNL     1       5.551   5.282  19.827  0.00  0.00    +0.000 OA
ATOM      7  H   UNL     1       8.135   4.813  19.354  0.00  0.00    +0.000 HD
ENDROOT
BRANCH   2   8
ATOM      8  C   UNL     1       6.557   4.905  15.164  0.00  0.00    +0.000 C 
ATOM      9  C   UNL     1       5.957   3.575  14.680  0.00  0.00    +0.000 C 
ATOM     10  C   UNL     1       5.751   3.636  13.166  0.00  0.00    +0.000 C 
ATOM     11  N   UNL     1       7.011   3.927  12.464  0.00  0.00    +0.000 NA
ATOM     12  C   UNL     1       6.780   4.002  11.021  0.00  0.00    +0.000 C 
ATOM     13  C   UNL     1       7.648   5.163  12.940  0.00  0.00    +0.000 C 
ATOM     14  C   UNL     1       7.892   5.129  14.451  0.00  0.00    +0.000 C 
ENDBRANCH   2   8
BRANCH   1  16
ATOM     15  C   UNL     1       3.802   7.055  17.743  0.00  0.00    +0.000 C 
ATOM     16  C   UNL     1       4.220   5.665  17.217  0.00  0.00    +0.000 C 
BRANCH  16  17
ATOM     17  C   UNL     1       3.215   4.637  17.715  0.00  0.00    +0.000 A 
ATOM     18  C   UNL     1       2.153   4.994  18.566  0.00  0.00    +0.000 A 
ATOM     19  C   UNL     1       1.212   4.042  18.963  0.00  0.00    +0.000 A 
ATOM     20  C   UNL     1       1.326   2.737  18.505  0.00  0.00    +0.000 A 
ATOM     21  F   UNL     1       0.426   1.821  18.886  0.00  0.00    +0.000 F 
ATOM     22  C   UNL     1       2.363   2.362  17.660  0.00  0.00    +0.000 A 
ATOM     23  C   UNL     1       3.305   3.311  17.260  0.00  0.00    +0.000 A 
ENDBRANCH  16  17
ENDBRANCH   1  16
TORSDOF 3
ENDMDL
MODEL 9
REMARK VINA RESULT:      -6.7      2.721      4.359
REMARK  Name = 
REMARK  5 active torsions:
REMARK  status: ('A' for Active; 'I' for Inactive)
REMARK    1  A    between atoms: C_1  and  C_2
REMARK    2  A    between atoms: C_2  and  C_3
REMARK    3  A    between atoms: C_2  and  N_10
REMARK    4  A    between atoms: C_11  and  C_12
REMARK    5  A    between atoms: N_15  and  C_16
REMARK                            x       y       z     vdW  Elec       q    Type
REMARK                         _______ _______ _______ _____ _____    ______ ____
ROOT
ATOM      1  N   UNL     1       3.712   3.646  18.575  0.00  0.00    +0.000 N 
ATOM      2  C   UNL     1       2.580   4.392  18.686  0.00  0.00    +0.000 A 
ATOM      3  N   UNL     1       1.474   3.714  18.555  0.00  0.00    +0.000 NA
ATOM      4  N   UNL     1       1.888   2.431  18.406  0.00  0.00    +0.000 N 
ATOM      5  C   UNL     1       3.260   2.361  18.456  0.00  0.00    +0.000 A 
ATOM      6  O   UNL     1       3.909   1.320  18.390  0.00  0.00    +0.000 OA
ATOM      7  H   UNL     1       1.264   1.651  18.261  0.00  0.00    +0.000 HD
ENDROOT
BRANCH   2   8
ATOM      8  C   UNL     1       2.569   5.883  18.928  0.00  0.00    +0.000 C 
ATOM      9  C   UNL     1       1.655   6.292  20.094  0.00  0.00    +0.000 C 
ATOM     10  C   UNL     1       1.822   7.788  20.364  0.00  0.00    +0.000 C 
ATOM     11  N   UNL     1       1.528   8.587  19.164  0.00  0.00    +0.000 NA
ATOM     12  C   UNL     1       1.718  10.010  19.445  0.00  0.00    +0.000 C 
ATOM     13  C   UNL     1       2.341   8.186  18.007  0.00  0.00    +0.000 C 
ATOM     14  C   UNL     1       2.181   6.696  17.691  0.00  0.00    +0.000 C 
ENDBRANCH   2   8
BRANCH   1  16
ATOM     15  C   UNL     1       5.520   5.161  19.520  0.00  0.00    +0.000 C 
ATOM     16  C   UNL     1       5.136   4.002  18.575  0.00  0.00    +0.000 C 
BRANCH  16  17
ATOM     17  C   UNL     1       5.681   4.308  17.188  0.00  0.00    +0.000 A 
ATOM     18  C   UNL     1       7.021   4.684  16.986  0.00  0.00    +0.000 A 
ATOM     19  C   UNL     1       7.510   4.905  15.697  0.00  0.00    +0.000 A 
ATOM     20  C   UNL     1       6.663   4.741  14.609  0.00  0.00    +0.000 A 
ATOM     21  F   UNL     1       7.129   4.954  13.371  0.00  0.00    +0.000 F 
ATOM     22  C   UNL     1       5.338   4.364  14.783  0.00  0.00    +0.000 A 
ATOM     23  C   UNL     1       4.846   4.143  16.070  0.00  0.00    +0.000 A 
ENDBRANCH  16  17
ENDBRANCH   1  16
TORSDOF 3
ENDMDL
