MODEL 1
REMARK VINA RESULT:      -8.1      0.000      0.000
REMARK  Name = 
REMARK  7 active torsions:
REMARK  status: ('A' for Active; 'I' for Inactive)
REMARK    1  A    between atoms: C_1  and  C_2
REMARK    2  A    between atoms: C_2  and  O_3
REMARK    3  A    between atoms: C_2  and  C_19
REMARK    4  A    between atoms: O_3  and  C_4
REMARK    5  A    between atoms: C_4  and  C_6
REMARK    6  A    between atoms: C_6  and  C_7
REMARK    7  A    between atoms: C_10  and  C_11
REMARK                            x       y       z     vdW  Elec       q    Type
REMARK                         _______ _______ _______ _____ _____    ______ ____
ROOT
ATOM      1  O   UNL     1      -0.138  11.981  21.033  0.00  0.00    +0.000 OA
ENDROOT
BRANCH   1   3
ATOM      2  C   UNL     1      -0.835  13.518  22.820  0.00  0.00    +0.000 C 
ATOM      3  C   UNL     1      -1.276  12.661  21.594  0.00  0.00    +0.000 C 
BRANCH   3   4
ATOM      4  C   UNL     1      -2.379  13.462  20.773  0.00  0.00    +0.000 C 
ATOM      5  O   UNL     1      -2.629  14.636  21.091  0.00  0.00    +0.000 OA
ATOM      6  N   UNL     1      -3.323  12.756  19.994  0.00  0.00    +0.000 N 
ATOM      7  C   UNL     1      -4.722  13.158  20.237  0.00  0.00    +0.000 C 
ATOM      8  C   UNL     1      -5.756  12.087  19.911  0.00  0.00    +0.000 C 
ATOM      9  C   UNL     1      -5.576  11.689  18.477  0.00  0.00    +0.000 C 
ATOM     10  C   UNL     1      -4.176  11.165  18.321  0.00  0.00    +0.000 A 
ATOM     11  C   UNL     1      -3.983  10.072  17.468  0.00  0.00    +0.000 A 
ATOM     12  C   UNL     1      -2.726   9.840  16.941  0.00  0.00    +0.000 A 
ATOM     13  C   UNL     1      -1.700  10.736  17.243  0.00  0.00    +0.000 A 
ATOM     14  C   UNL     1      -1.860  11.723  18.238  0.00  0.00    +0.000 A 
ATOM     15  C   UNL     1      -3.087  11.878  18.879  0.00  0.00    +0.000 A 
ENDBRANCH   3   4
ENDBRANCH   1   3
BRANCH   1  16
ATOM     16  C   UNL     1       0.168  10.731  21.456  0.00  0.00    +0.000 C 
ATOM     17  O   UNL     1       0.766  10.490  22.512  0.00  0.00    +0.000 OA
BRANCH  16  18
ATOM     18  C   UNL     1      -0.121   9.640  20.450  0.00  0.00    +0.000 C 
BRANCH  18  19
ATOM     19  C   UNL     1       0.990   8.898  19.727  0.00  0.00    +0.000 A 
ATOM     20  C   UNL     1       1.491   7.720  20.309  0.00  0.00    +0.000 A 
ATOM     21  C   UNL     1       2.413   6.888  19.644  0.00  0.00    +0.000 A 
ATOM     22  C   UNL     1       2.870   7.168  18.347  0.00  0.00    +0.000 A 
ATOM     23  C   UNL     1       2.345   8.339  17.760  0.00  0.00    +0.000 A 
ATOM     24  C   UNL     1       1.426   9.188  18.431  0.00  0.00    +0.000 A 
BRANCH  22  25
ATOM     25  C   UNL     1       3.853   6.275  17.634  0.00  0.00    +0.000 A 
ATOM     26  C   UNL     1       4.773   6.781  16.693  0.00  0.00    +0.000 A 
ATOM     27  C   UNL     1       5.672   5.939  16.016  0.00  0.00    +0.000 A 
ATOM     28  C   UNL     1       5.679   4.570  16.266  0.00  0.00    +0.000 A 
ATOM     29  C   UNL     1       4.782   4.043  17.185  0.00  0.00    +0.000 A 
ATOM     30  C   UNL     1       3.877   4.887  17.853  0.00  0.00    +0.000 A 
ENDBRANCH  22  25
ENDBRANCH  18  19
ENDBRANCH  16  18
ENDBRANCH   1  16
TORSDOF 6
ENDMDL
MODEL 2
REMARK VINA RESULT:      -8.1      4.093     10.009
REMARK  Name = 
REMARK  7 active torsions:
REMARK  status: ('A' for Active; 'I' for Inactive)
REMARK    1  A    between atoms: C_1  and  C_2
REMARK    2  A    between atoms: C_2  and  O_3
REMARK    3  A    between atoms: C_2  and  C_19
REMARK    4  A    between atoms: O_3  and  C_4
REMARK    5  A    between atoms: C_4  and  C_6
REMARK    6  A    between atoms: C_6  and  C_7
REMARK    7  A    between atoms: C_10  and  C_11
REMARK                            x       y       z     vdW  Elec       q    Type
REMARK                         _______ _______ _______ _____ _____    ______ ____
ROOT
ATOM      1  O   UNL     1       2.344   6.093  17.752  0.00  0.00    +0.000 OA
ENDROOT
BRANCH   1   3
ATOM      2  C   UNL     1       1.356   3.852  17.959  0.00  0.00    +0.000 C 
ATOM      3  C   UNL     1       2.356   4.895  18.549  0.00  0.00    +0.000 C 
BRANCH   3   4
ATOM      4  C   UNL     1       3.654   4.132  19.064  0.00  0.00    +0.000 C 
ATOM      5  O   UNL     1       3.589   3.479  20.118  0.00  0.00    +0.000 OA
ATOM      6  N   UNL     1       4.927   4.508  18.579  0.00  0.00    +0.000 N 
ATOM      7  C   UNL     1       5.928   4.741  19.637  0.00  0.00    +0.000 C 
ATOM      8  C   UNL     1       7.060   5.683  19.244  0.00  0.00    +0.000 C 
ATOM      9  C   UNL     1       7.724   5.125  18.022  0.00  0.00    +0.000 C 
ATOM     10  C   UNL     1       6.686   5.035  16.939  0.00  0.00    +0.000 A 
ATOM     11  C   UNL     1       7.083   5.338  15.631  0.00  0.00    +0.000 A 
ATOM     12  C   UNL     1       6.341   4.854  14.571  0.00  0.00    +0.000 A 
ATOM     13  C   UNL     1       5.243   4.037  14.842  0.00  0.00    +0.000 A 
ATOM     14  C   UNL     1       4.750   3.886  16.154  0.00  0.00    +0.000 A 
ATOM     15  C   UNL     1       5.412   4.485  17.224  0.00  0.00    +0.000 A 
ENDBRANCH   3   4
ENDBRANCH   1   3
BRANCH   1  16
ATOM     16  C   UNL     1       2.610   7.287  18.337  0.00  0.00    +0.000 C 
ATOM     17  O   UNL     1       3.235   8.200  17.781  0.00  0.00    +0.000 OA
BRANCH  16  18
ATOM     18  C   UNL     1       2.240   7.366  19.799  0.00  0.00    +0.000 C 
BRANCH  18  19
ATOM     19  C   UNL     1       1.337   8.460  20.343  0.00  0.00    +0.000 A 
ATOM     20  C   UNL     1       1.064   8.472  21.722  0.00  0.00    +0.000 A 
ATOM     21  C   UNL     1       0.362   9.527  22.339  0.00  0.00    +0.000 A 
ATOM     22  C   UNL     1      -0.087  10.646  21.619  0.00  0.00    +0.000 A 
ATOM     23  C   UNL     1       0.212  10.637  20.240  0.00  0.00    +0.000 A 
ATOM     24  C   UNL     1       0.907   9.571  19.612  0.00  0.00    +0.000 A 
BRANCH  22  25
ATOM     25  C   UNL     1      -0.834  11.776  22.280  0.00  0.00    +0.000 A 
ATOM     26  C   UNL     1      -0.384  13.110  22.208  0.00  0.00    +0.000 A 
ATOM     27  C   UNL     1      -1.074  14.155  22.844  0.00  0.00    +0.000 A 
ATOM     28  C   UNL     1      -2.234  13.896  23.567  0.00  0.00    +0.000 A 
ATOM     29  C   UNL     1      -2.700  12.591  23.659  0.00  0.00    +0.000 A 
ATOM     30  C   UNL     1      -2.001  11.546  23.029  0.00  0.00    +0.000 A 
ENDBRANCH  22  25
ENDBRANCH  18  19
ENDBRANCH  16  18
ENDBRANCH   1  16
TORSDOF 6
ENDMDL
MODEL 3
REMARK VINA RESULT:      -8.0      0.737      1.449
REMARK  Name = 
REMARK  7 active torsions:
REMARK  status: ('A' for Active; 'I' for Inactive)
REMARK    1  A    between atoms: C_1  and  C_2
REMARK    2  A    between atoms: C_2  and  O_3
REMARK    3  A    between atoms: C_2  and  C_19
REMARK    4  A    between atoms: O_3  and  C_4
REMARK    5  A    between atoms: C_4  and  C_6
REMARK    6  A    between atoms: C_6  and  C_7
REMARK    7  A    between atoms: C_10  and  C_11
REMARK                            x       y       z     vdW  Elec       q    Type
REMARK                         _______ _______ _______ _____ _____    ______ ____
ROOT
ATOM      1  O   UNL     1      -1.540  11.017  21.767  0.00  0.00    +0.000 OA
ENDROOT
BRANCH   1   3
ATOM      2  C   UNL     1      -0.620  13.238  22.282  0.00  0.00    +0.000 C 
ATOM      3  C   UNL     1      -1.899  12.392  21.988  0.00  0.00    +0.000 C 
BRANCH   3   4
ATOM      4  C   UNL     1      -2.891  13.253  21.089  0.00  0.00    +0.000 C 
ATOM      5  O   UNL     1      -3.233  14.380  21.482  0.00  0.00    +0.000 OA
ATOM      6  N   UNL     1      -3.673  12.614  20.101  0.00  0.00    +0.000 N 
ATOM      7  C   UNL     1      -5.107  12.955  20.157  0.00  0.00    +0.000 C 
ATOM      8  C   UNL     1      -6.034  11.902  19.562  0.00  0.00    +0.000 C 
ATOM      9  C   UNL     1      -5.617  11.665  18.142  0.00  0.00    +0.000 C 
ATOM     10  C   UNL     1      -4.190  11.192  18.159  0.00  0.00    +0.000 A 
ATOM     11  C   UNL     1      -3.823  10.202  17.240  0.00  0.00    +0.000 A 
ATOM     12  C   UNL     1      -2.492  10.057  16.900  0.00  0.00    +0.000 A 
ATOM     13  C   UNL     1      -1.562  10.938  17.452  0.00  0.00    +0.000 A 
ATOM     14  C   UNL     1      -1.914  11.808  18.504  0.00  0.00    +0.000 A 
ATOM     15  C   UNL     1      -3.231  11.866  18.954  0.00  0.00    +0.000 A 
ENDBRANCH   3   4
ENDBRANCH   1   3
BRANCH   1  16
ATOM     16  C   UNL     1      -0.255  10.625  21.944  0.00  0.00    +0.000 C 
ATOM     17  O   UNL     1       0.240  10.371  23.050  0.00  0.00    +0.000 OA
BRANCH  16  18
ATOM     18  C   UNL     1       0.598  10.688  20.699  0.00  0.00    +0.000 C 
BRANCH  18  19
ATOM     19  C   UNL     1       1.126   9.434  20.021  0.00  0.00    +0.000 A 
ATOM     20  C   UNL     1       1.507   9.520  18.670  0.00  0.00    +0.000 A 
ATOM     21  C   UNL     1       2.143   8.456  18.001  0.00  0.00    +0.000 A 
ATOM     22  C   UNL     1       2.459   7.250  18.648  0.00  0.00    +0.000 A 
ATOM     23  C   UNL     1       2.094   7.181  20.009  0.00  0.00    +0.000 A 
ATOM     24  C   UNL     1       1.442   8.245  20.685  0.00  0.00    +0.000 A 
BRANCH  22  25
ATOM     25  C   UNL     1       3.142   6.113  17.932  0.00  0.00    +0.000 A 
ATOM     26  C   UNL     1       2.638   4.797  17.972  0.00  0.00    +0.000 A 
ATOM     27  C   UNL     1       3.292   3.738  17.320  0.00  0.00    +0.000 A 
ATOM     28  C   UNL     1       4.465   3.966  16.608  0.00  0.00    +0.000 A 
ATOM     29  C   UNL     1       4.988   5.252  16.555  0.00  0.00    +0.000 A 
ATOM     30  C   UNL     1       4.336   6.307  17.217  0.00  0.00    +0.000 A 
ENDBRANCH  22  25
ENDBRANCH  18  19
ENDBRANCH  16  18
ENDBRANCH   1  16
TORSDOF 6
ENDMDL
MODEL 4
REMARK VINA RESULT:      -8.0      1.115      1.590
REMARK  Name = 
REMARK  7 active torsions:
REMARK  status: ('A' for Active; 'I' for Inactive)
REMARK    1  A    between atoms: C_1  and  C_2
REMARK    2  A    between atoms: C_2  and  O_3
REMARK    3  A    between atoms: C_2  and  C_19
REMARK    4  A    between atoms: O_3  and  C_4
REMARK    5  A    between atoms: C_4  and  C_6
REMARK    6  A    between atoms: C_6  and  C_7
REMARK    7  A    between atoms: C_10  and  C_11
REMARK                            x       y       z     vdW  Elec       q    Type
REMARK                         _______ _______ _______ _____ _____    ______ ____
ROOT
ATOM      1  O   UNL     1       0.350  11.380  21.900  0.00  0.00    +0.000 OA
ENDROOT
BRANCH   1   3
ATOM      2  C   UNL     1      -1.711  11.337  23.240  0.00  0.00    +0.000 C 
ATOM      3  C   UNL     1      -1.070  11.601  21.841  0.00  0.00    +0.000 C 
BRANCH   3   4
ATOM      4  C   UNL     1      -1.791  12.852  21.171  0.00  0.00    +0.000 C 
ATOM      5  O   UNL     1      -1.580  13.985  21.632  0.00  0.00    +0.000 OA
ATOM      6  N   UNL     1      -2.933  12.652  20.363  0.00  0.00    +0.000 N 
ATOM      7  C   UNL     1      -4.077  13.515  20.716  0.00  0.00    +0.000 C 
ATOM      8  C   UNL     1      -5.438  12.956  20.320  0.00  0.00    +0.000 C 
ATOM      9  C   UNL     1      -5.424  12.700  18.843  0.00  0.00    +0.000 C 
ATOM     10  C   UNL     1      -4.325  11.714  18.561  0.00  0.00    +0.000 A 
ATOM     11  C   UNL     1      -4.559  10.743  17.582  0.00  0.00    +0.000 A 
ATOM     12  C   UNL     1      -3.483  10.125  16.973  0.00  0.00    +0.000 A 
ATOM     13  C   UNL     1      -2.195  10.527  17.325  0.00  0.00    +0.000 A 
ATOM     14  C   UNL     1      -1.969  11.371  18.432  0.00  0.00    +0.000 A 
ATOM     15  C   UNL     1      -3.047  11.894  19.145  0.00  0.00    +0.000 A 
ENDBRANCH   3   4
ENDBRANCH   1   3
BRANCH   1  16
ATOM     16  C   UNL     1       1.148  11.904  20.939  0.00  0.00    +0.000 C 
ATOM     17  O   UNL     1       1.897  12.874  21.121  0.00  0.00    +0.000 OA
BRANCH  16  18
ATOM     18  C   UNL     1       0.932  11.327  19.560  0.00  0.00    +0.000 C 
BRANCH  18  19
ATOM     19  C   UNL     1       1.336   9.905  19.210  0.00  0.00    +0.000 A 
ATOM     20  C   UNL     1       1.886   9.664  17.939  0.00  0.00    +0.000 A 
ATOM     21  C   UNL     1       2.423   8.413  17.578  0.00  0.00    +0.000 A 
ATOM     22  C   UNL     1       2.467   7.333  18.475  0.00  0.00    +0.000 A 
ATOM     23  C   UNL     1       1.935   7.590  19.757  0.00  0.00    +0.000 A 
ATOM     24  C   UNL     1       1.380   8.845  20.121  0.00  0.00    +0.000 A 
BRANCH  22  25
ATOM     25  C   UNL     1       3.046   5.996  18.091  0.00  0.00    +0.000 A 
ATOM     26  C   UNL     1       4.173   5.885  17.250  0.00  0.00    +0.000 A 
ATOM     27  C   UNL     1       4.695   4.635  16.879  0.00  0.00    +0.000 A 
ATOM     28  C   UNL     1       4.107   3.461  17.342  0.00  0.00    +0.000 A 
ATOM     29  C   UNL     1       2.995   3.539  18.168  0.00  0.00    +0.000 A 
ATOM     30  C   UNL     1       2.469   4.792  18.529  0.00  0.00    +0.000 A 
ENDBRANCH  22  25
ENDBRANCH  18  19
ENDBRANCH  16  18
ENDBRANCH   1  16
TORSDOF 6
ENDMDL
MODEL 5
REMARK VINA RESULT:      -8.0      3.763     10.047
REMARK  Name = 
REMARK  7 active torsions:
REMARK  status: ('A' for Active; 'I' for Inactive)
REMARK    1  A    between atoms: C_1  and  C_2
REMARK    2  A    between atoms: C_2  and  O_3
REMARK    3  A    between atoms: C_2  and  C_19
REMARK    4  A    between atoms: O_3  and  C_4
REMARK    5  A    between atoms: C_4  and  C_6
REMARK    6  A    between atoms: C_6  and  C_7
REMARK    7  A    between atoms: C_10  and  C_11
REMARK                            x       y       z     vdW  Elec       q    Type
REMARK                         _______ _______ _______ _____ _____    ______ ____
ROOT
ATOM      1  O   UNL     1       2.360   6.064  17.727  0.00  0.00    +0.000 OA
ENDROOT
BRANCH   1   3
ATOM      2  C   UNL     1       1.375   3.817  17.875  0.00  0.00    +0.000 C 
ATOM      3  C   UNL     1       2.365   4.850  18.499  0.00  0.00    +0.000 C 
BRANCH   3   4
ATOM      4  C   UNL     1       3.658   4.078  19.014  0.00  0.00    +0.000 C 
ATOM      5  O   UNL     1       3.583   3.410  20.057  0.00  0.00    +0.000 OA
ATOM      6  N   UNL     1       4.935   4.462  18.547  0.00  0.00    +0.000 N 
ATOM      7  C   UNL     1       5.926   4.679  19.618  0.00  0.00    +0.000 C 
ATOM      8  C   UNL     1       7.062   5.626  19.249  0.00  0.00    +0.000 C 
ATOM      9  C   UNL     1       7.738   5.087  18.025  0.00  0.00    +0.000 C 
ATOM     10  C   UNL     1       6.709   5.013  16.931  0.00  0.00    +0.000 A 
ATOM     11  C   UNL     1       7.118   5.337  15.632  0.00  0.00    +0.000 A 
ATOM     12  C   UNL     1       6.386   4.869  14.558  0.00  0.00    +0.000 A 
ATOM     13  C   UNL     1       5.286   4.048  14.806  0.00  0.00    +0.000 A 
ATOM     14  C   UNL     1       4.781   3.876  16.112  0.00  0.00    +0.000 A 
ATOM     15  C   UNL     1       5.433   4.460  17.197  0.00  0.00    +0.000 A 
ENDBRANCH   3   4
ENDBRANCH   1   3
BRANCH   1  16
ATOM     16  C   UNL     1       2.638   7.243  18.335  0.00  0.00    +0.000 C 
ATOM     17  O   UNL     1       3.305   8.145  17.812  0.00  0.00    +0.000 OA
BRANCH  16  18
ATOM     18  C   UNL     1       2.220   7.315  19.785  0.00  0.00    +0.000 C 
BRANCH  18  19
ATOM     19  C   UNL     1       1.430   8.490  20.338  0.00  0.00    +0.000 A 
ATOM     20  C   UNL     1       0.843   9.383  19.425  0.00  0.00    +0.000 A 
ATOM     21  C   UNL     1      -0.026  10.413  19.837  0.00  0.00    +0.000 A 
ATOM     22  C   UNL     1      -0.381  10.596  21.183  0.00  0.00    +0.000 A 
ATOM     23  C   UNL     1       0.193   9.680  22.090  0.00  0.00    +0.000 A 
ATOM     24  C   UNL     1       1.080   8.649  21.682  0.00  0.00    +0.000 A 
BRANCH  22  25
ATOM     25  C   UNL     1      -1.315  11.695  21.623  0.00  0.00    +0.000 A 
ATOM     26  C   UNL     1      -2.049  12.464  20.697  0.00  0.00    +0.000 A 
ATOM     27  C   UNL     1      -2.901  13.501  21.113  0.00  0.00    +0.000 A 
ATOM     28  C   UNL     1      -3.045  13.794  22.466  0.00  0.00    +0.000 A 
ATOM     29  C   UNL     1      -2.332  13.055  23.400  0.00  0.00    +0.000 A 
ATOM     30  C   UNL     1      -1.472  12.025  22.980  0.00  0.00    +0.000 A 
ENDBRANCH  22  25
ENDBRANCH  18  19
ENDBRANCH  16  18
ENDBRANCH   1  16
TORSDOF 6
ENDMDL
MODEL 6
REMARK VINA RESULT:      -7.9      7.485     10.003
REMARK  Name = 
REMARK  7 active torsions:
REMARK  status: ('A' for Active; 'I' for Inactive)
REMARK    1  A    between atoms: C_1  and  C_2
REMARK    2  A    between atoms: C_2  and  O_3
REMARK    3  A    between atoms: C_2  and  C_19
REMARK    4  A    between atoms: O_3  and  C_4
REMARK    5  A    between atoms: C_4  and  C_6
REMARK    6  A    between atoms: C_6  and  C_7
REMARK    7  A    between atoms: C_10  and  C_11
REMARK                            x       y       z     vdW  Elec       q    Type
REMARK                         _______ _______ _______ _____ _____    ______ ____
ROOT
ATOM      1  O   UNL     1       9.157   9.342  18.976  0.00  0.00    +0.000 OA
ENDROOT
BRANCH   1   3
ATOM      2  C   UNL     1       9.237  10.756  20.985  0.00  0.00    +0.000 C 
ATOM      3  C   UNL     1       9.260  10.705  19.425  0.00  0.00    +0.000 C 
BRANCH   3   4
ATOM      4  C   UNL     1      10.295  11.787  18.888  0.00  0.00    +0.000 C 
ATOM      5  O   UNL     1      11.438  11.420  18.571  0.00  0.00    +0.000 OA
ATOM      6  N   UNL     1      10.072  13.158  19.146  0.00  0.00    +0.000 N 
ATOM      7  C   UNL     1      11.240  13.861  19.711  0.00  0.00    +0.000 C 
ATOM      8  C   UNL     1      10.900  15.099  20.531  0.00  0.00    +0.000 C 
ATOM      9  C   UNL     1      10.112  16.031  19.661  0.00  0.00    +0.000 C 
ATOM     10  C   UNL     1       8.870  15.305  19.224  0.00  0.00    +0.000 A 
ATOM     11  C   UNL     1       7.682  16.041  19.143  0.00  0.00    +0.000 A 
ATOM     12  C   UNL     1       6.653  15.577  18.347  0.00  0.00    +0.000 A 
ATOM     13  C   UNL     1       6.853  14.410  17.610  0.00  0.00    +0.000 A 
ATOM     14  C   UNL     1       7.976  13.587  17.835  0.00  0.00    +0.000 A 
ATOM     15  C   UNL     1       8.959  13.976  18.742  0.00  0.00    +0.000 A 
ENDBRANCH   3   4
ENDBRANCH   1   3
BRANCH   1  16
ATOM     16  C   UNL     1       8.246   9.018  18.026  0.00  0.00    +0.000 C 
ATOM     17  O   UNL     1       7.406   9.811  17.581  0.00  0.00    +0.000 OA
BRANCH  16  18
ATOM     18  C   UNL     1       8.210   7.552  17.665  0.00  0.00    +0.000 C 
BRANCH  18  19
ATOM     19  C   UNL     1       6.956   6.711  17.839  0.00  0.00    +0.000 A 
ATOM     20  C   UNL     1       6.917   5.789  18.899  0.00  0.00    +0.000 A 
ATOM     21  C   UNL     1       5.748   5.073  19.229  0.00  0.00    +0.000 A 
ATOM     22  C   UNL     1       4.541   5.256  18.535  0.00  0.00    +0.000 A 
ATOM     23  C   UNL     1       4.583   6.200  17.487  0.00  0.00    +0.000 A 
ATOM     24  C   UNL     1       5.761   6.914  17.143  0.00  0.00    +0.000 A 
BRANCH  22  25
ATOM     25  C   UNL     1       3.290   4.494  18.890  0.00  0.00    +0.000 A 
ATOM     26  C   UNL     1       2.231   4.331  17.974  0.00  0.00    +0.000 A 
ATOM     27  C   UNL     1       1.058   3.638  18.319  0.00  0.00    +0.000 A 
ATOM     28  C   UNL     1       0.915   3.085  19.588  0.00  0.00    +0.000 A 
ATOM     29  C   UNL     1       1.940   3.232  20.512  0.00  0.00    +0.000 A 
ATOM     30  C   UNL     1       3.108   3.936  20.167  0.00  0.00    +0.000 A 
ENDBRANCH  22  25
ENDBRANCH  18  19
ENDBRANCH  16  18
ENDBRANCH   1  16
TORSDOF 6
ENDMDL
MODEL 7
REMARK VINA RESULT:      -7.9      6.489      9.767
REMARK  Name = 
REMARK  7 active torsions:
REMARK  status: ('A' for Active; 'I' for Inactive)
REMARK    1  A    between atoms: C_1  and  C_2
REMARK    2  A    between atoms: C_2  and  O_3
REMARK    3  A    between atoms: C_2  and  C_19
REMARK    4  A    between atoms: O_3  and  C_4
REMARK    5  A    between atoms: C_4  and  C_6
REMARK    6  A    between atoms: C_6  and  C_7
REMARK    7  A    between atoms: C_10  and  C_11
REMARK                            x       y       z     vdW  Elec       q    Type
REMARK                         _______ _______ _______ _____ _____    ______ ____
ROOT
ATOM      1  O   UNL     1       6.076   7.758  17.486  0.00  0.00    +0.000 OA
ENDROOT
BRANCH   1   3
ATOM      2  C   UNL     1       5.717   5.704  18.789  0.00  0.00    +0.000 C 
ATOM      3  C   UNL     1       5.157   6.671  17.699  0.00  0.00    +0.000 C 
BRANCH   3   4
ATOM      4  C   UNL     1       3.583   6.807  17.888  0.00  0.00    +0.000 C 
ATOM      5  O   UNL     1       3.041   7.898  17.652  0.00  0.00    +0.000 OA
ATOM      6  N   UNL     1       2.889   5.864  18.679  0.00  0.00    +0.000 N 
ATOM      7  C   UNL     1       2.004   6.467  19.694  0.00  0.00    +0.000 C 
ATOM      8  C   UNL     1       1.724   5.579  20.901  0.00  0.00    +0.000 C 
ATOM      9  C   UNL     1       1.136   4.293  20.404  0.00  0.00    +0.000 C 
ATOM     10  C   UNL     1       2.137   3.660  19.478  0.00  0.00    +0.000 A 
ATOM     11  C   UNL     1       2.270   2.267  19.519  0.00  0.00    +0.000 A 
ATOM     12  C   UNL     1       2.806   1.608  18.430  0.00  0.00    +0.000 A 
ATOM     13  C   UNL     1       3.155   2.353  17.304  0.00  0.00    +0.000 A 
ATOM     14  C   UNL     1       3.184   3.763  17.340  0.00  0.00    +0.000 A 
ATOM     15  C   UNL     1       2.775   4.443  18.486  0.00  0.00    +0.000 A 
ENDBRANCH   3   4
ENDBRANCH   1   3
BRANCH   1  16
ATOM     16  C   UNL     1       7.390   7.492  17.290  0.00  0.00    +0.000 C 
ATOM     17  O   UNL     1       7.816   6.764  16.383  0.00  0.00    +0.000 OA
BRANCH  16  18
ATOM     18  C   UNL     1       8.304   8.012  18.374  0.00  0.00    +0.000 C 
BRANCH  18  19
ATOM     19  C   UNL     1       8.614   9.492  18.525  0.00  0.00    +0.000 A 
ATOM     20  C   UNL     1       9.490   9.886  19.552  0.00  0.00    +0.000 A 
ATOM     21  C   UNL     1       9.950  11.212  19.678  0.00  0.00    +0.000 A 
ATOM     22  C   UNL     1       9.583  12.219  18.771  0.00  0.00    +0.000 A 
ATOM     23  C   UNL     1       8.722  11.810  17.730  0.00  0.00    +0.000 A 
ATOM     24  C   UNL     1       8.245  10.478  17.606  0.00  0.00    +0.000 A 
BRANCH  22  25
ATOM     25  C   UNL     1      10.079  13.636  18.904  0.00  0.00    +0.000 A 
ATOM     26  C   UNL     1      10.398  14.199  20.156  0.00  0.00    +0.000 A 
ATOM     27  C   UNL     1      10.840  15.528  20.275  0.00  0.00    +0.000 A 
ATOM     28  C   UNL     1      10.978  16.327  19.144  0.00  0.00    +0.000 A 
ATOM     29  C   UNL     1      10.667  15.800  17.898  0.00  0.00    +0.000 A 
ATOM     30  C   UNL     1      10.216  14.474  17.784  0.00  0.00    +0.000 A 
ENDBRANCH  22  25
ENDBRANCH  18  19
ENDBRANCH  16  18
ENDBRANCH   1  16
TORSDOF 6
ENDMDL
MODEL 8
REMARK VINA RESULT:      -7.9      7.894     10.174
REMARK  Name = 
REMARK  7 active torsions:
REMARK  status: ('A' for Active; 'I' for Inactive)
REMARK    1  A    between atoms: C_1  and  C_2
REMARK    2  A    between atoms: C_2  and  O_3
REMARK    3  A    between atoms: C_2  and  C_19
REMARK    4  A    between atoms: O_3  and  C_4
REMARK    5  A    between atoms: C_4  and  C_6
REMARK    6  A    between atoms: C_6  and  C_7
REMARK    7  A    between atoms: C_10  and  C_11
REMARK                            x       y       z     vdW  Elec       q    Type
REMARK                         _______ _______ _______ _____ _____    ______ ____
ROOT
ATOM      1  O   UNL     1       9.076   9.654  19.025  0.00  0.00    +0.000 OA
ENDROOT
BRANCH   1   3
ATOM      2  C   UNL     1       9.839  11.206  20.772  0.00  0.00    +0.000 C 
ATOM      3  C   UNL     1       9.385  11.034  19.289  0.00  0.00    +0.000 C 
BRANCH   3   4
ATOM      4  C   UNL     1      10.269  11.984  18.366  0.00  0.00    +0.000 C 
ATOM      5  O   UNL     1      11.263  11.509  17.793  0.00  0.00    +0.000 OA
ATOM      6  N   UNL     1      10.177  13.386  18.514  0.00  0.00    +0.000 N 
ATOM      7  C   UNL     1      11.482  14.061  18.651  0.00  0.00    +0.000 C 
ATOM      8  C   UNL     1      11.431  15.397  19.383  0.00  0.00    +0.000 C 
ATOM      9  C   UNL     1      10.466  16.286  18.660  0.00  0.00    +0.000 C 
ATOM     10  C   UNL     1       9.125  15.606  18.667  0.00  0.00    +0.000 A 
ATOM     11  C   UNL     1       7.990  16.409  18.830  0.00  0.00    +0.000 A 
ATOM     12  C   UNL     1       6.763  15.938  18.405  0.00  0.00    +0.000 A 
ATOM     13  C   UNL     1       6.706  14.690  17.783  0.00  0.00    +0.000 A 
ATOM     14  C   UNL     1       7.816  13.820  17.786  0.00  0.00    +0.000 A 
ATOM     15  C   UNL     1       9.027  14.232  18.338  0.00  0.00    +0.000 A 
ENDBRANCH   3   4
ENDBRANCH   1   3
BRANCH   1  16
ATOM     16  C   UNL     1       8.252   9.339  17.996  0.00  0.00    +0.000 C 
ATOM     17  O   UNL     1       7.457  10.138  17.483  0.00  0.00    +0.000 OA
BRANCH  16  18
ATOM     18  C   UNL     1       8.242   7.875  17.625  0.00  0.00    +0.000 C 
BRANCH  18  19
ATOM     19  C   UNL     1       7.090   6.957  18.000  0.00  0.00    +0.000 A 
ATOM     20  C   UNL     1       5.950   6.953  17.177  0.00  0.00    +0.000 A 
ATOM     21  C   UNL     1       4.897   6.034  17.358  0.00  0.00    +0.000 A 
ATOM     22  C   UNL     1       4.933   5.046  18.356  0.00  0.00    +0.000 A 
ATOM     23  C   UNL     1       6.092   5.042  19.161  0.00  0.00    +0.000 A 
ATOM     24  C   UNL     1       7.149   5.974  18.992  0.00  0.00    +0.000 A 
BRANCH  22  25
ATOM     25  C   UNL     1       3.809   4.060  18.547  0.00  0.00    +0.000 A 
ATOM     26  C   UNL     1       3.120   3.944  19.771  0.00  0.00    +0.000 A 
ATOM     27  C   UNL     1       2.088   3.007  19.949  0.00  0.00    +0.000 A 
ATOM     28  C   UNL     1       1.713   2.166  18.905  0.00  0.00    +0.000 A 
ATOM     29  C   UNL     1       2.376   2.256  17.689  0.00  0.00    +0.000 A 
ATOM     30  C   UNL     1       3.416   3.187  17.518  0.00  0.00    +0.000 A 
ENDBRANCH  22  25
ENDBRANCH  18  19
ENDBRANCH  16  18
ENDBRANCH   1  16
TORSDOF 6
ENDMDL
MODEL 9
REMARK VINA RESULT:      -7.8      1.452      2.450
REMARK  Name = 
REMARK  7 active torsions:
REMARK  status: ('A' for Active; 'I' for Inactive)
REMARK    1  A    between atoms: C_1  and  C_2
REMARK    2  A    between atoms: C_2  and  O_3
REMARK    3  A    between atoms: C_2  and  C_19
REMARK    4  A    between atoms: O_3  and  C_4
REMARK    5  A    between atoms: C_4  and  C_6
REMARK    6  A    between atoms: C_6  and  C_7
REMARK    7  A    between atoms: C_10  and  C_11
REMARK                            x       y       z     vdW  Elec       q    Type
REMARK                         _______ _______ _______ _____ _____    ______ ____
ROOT
ATOM      1  O   UNL     1      -1.440  12.387  19.560  0.00  0.00    +0.000 OA
ENDROOT
BRANCH   1   3
ATOM      2  C   UNL     1      -1.020  13.145  21.860  0.00  0.00    +0.000 C 
ATOM      3  C   UNL     1      -2.087  12.757  20.790  0.00  0.00    +0.000 C 
BRANCH   3   4
ATOM      4  C   UNL     1      -3.335  13.735  20.928  0.00  0.00    +0.000 C 
ATOM      5  O   UNL     1      -3.137  14.923  21.228  0.00  0.00    +0.000 OA
ATOM      6  N   UNL     1      -4.629  13.197  21.111  0.00  0.00    +0.000 N 
ATOM      7  C   UNL     1      -5.373  13.793  22.237  0.00  0.00    +0.000 C 
ATOM      8  C   UNL     1      -6.451  12.895  22.832  0.00  0.00    +0.000 C 
ATOM      9  C   UNL     1      -7.397  12.515  21.734  0.00  0.00    +0.000 C 
ATOM     10  C   UNL     1      -6.606  11.796  20.677  0.00  0.00    +0.000 A 
ATOM     11  C   UNL     1      -7.215  10.711  20.036  0.00  0.00    +0.000 A 
ATOM     12  C   UNL     1      -6.751  10.312  18.797  0.00  0.00    +0.000 A 
ATOM     13  C   UNL     1      -5.718  11.039  18.206  0.00  0.00    +0.000 A 
ATOM     14  C   UNL     1      -4.998  12.010  18.931  0.00  0.00    +0.000 A 
ATOM     15  C   UNL     1      -5.369  12.326  20.237  0.00  0.00    +0.000 A 
ENDBRANCH   3   4
ENDBRANCH   1   3
BRANCH   1  16
ATOM     16  C   UNL     1      -1.122  11.089  19.336  0.00  0.00    +0.000 C 
ATOM     17  O   UNL     1      -1.840  10.306  18.699  0.00  0.00    +0.000 OA
BRANCH  16  18
ATOM     18  C   UNL     1       0.103  10.606  20.075  0.00  0.00    +0.000 C 
BRANCH  18  19
ATOM     19  C   UNL     1       1.065   9.599  19.467  0.00  0.00    +0.000 A 
ATOM     20  C   UNL     1       1.366   8.440  20.203  0.00  0.00    +0.000 A 
ATOM     21  C   UNL     1       2.127   7.384  19.663  0.00  0.00    +0.000 A 
ATOM     22  C   UNL     1       2.613   7.412  18.346  0.00  0.00    +0.000 A 
ATOM     23  C   UNL     1       2.286   8.569  17.606  0.00  0.00    +0.000 A 
ATOM     24  C   UNL     1       1.531   9.641  18.150  0.00  0.00    +0.000 A 
BRANCH  22  25
ATOM     25  C   UNL     1       3.423   6.281  17.767  0.00  0.00    +0.000 A 
ATOM     26  C   UNL     1       3.056   4.932  17.949  0.00  0.00    +0.000 A 
ATOM     27  C   UNL     1       3.828   3.882  17.425  0.00  0.00    +0.000 A 
ATOM     28  C   UNL     1       4.985   4.152  16.700  0.00  0.00    +0.000 A 
ATOM     29  C   UNL     1       5.373   5.471  16.507  0.00  0.00    +0.000 A 
ATOM     30  C   UNL     1       4.604   6.519  17.043  0.00  0.00    +0.000 A 
ENDBRANCH  22  25
ENDBRANCH  18  19
ENDBRANCH  16  18
ENDBRANCH   1  16
TORSDOF 6
ENDMDL
