MODEL 1
REMARK VINA RESULT:      -7.8      0.000      0.000
REMARK  Name = 
REMARK  4 active torsions:
REMARK  status: ('A' for Active; 'I' for Inactive)
REMARK    1  A    between atoms: C_2  and  C_3
REMARK    2  A    between atoms: N_8  and  C_9
REMARK    3  A    between atoms: C_13  and  O_14
REMARK    4  A    between atoms: O_14  and  C_15
REMARK                            x       y       z     vdW  Elec       q    Type
REMARK                         _______ _______ _______ _____ _____    ______ ____
ROOT
ATOM      1  C   UNL     1       6.112   5.845  17.347  0.00  0.00    +0.000 A 
ATOM      2  C   UNL     1       6.491   4.828  16.469  0.00  0.00    +0.000 A 
ATOM      3  C   UNL     1       5.563   3.874  16.043  0.00  0.00    +0.000 A 
ATOM      4  C   UNL     1       4.238   3.957  16.461  0.00  0.00    +0.000 A 
ATOM      5  C   UNL     1       3.845   4.983  17.318  0.00  0.00    +0.000 A 
ATOM      6  C   UNL     1       4.798   5.881  17.820  0.00  0.00    +0.000 A 
ENDROOT
BRANCH   1  12
ATOM      7  O   UNL     1       7.716   9.428  17.544  0.00  0.00    +0.000 OA
ATOM      8  C   UNL     1       8.547   9.168  18.415  0.00  0.00    +0.000 C 
ATOM      9  N   UNL     1       8.674   7.914  18.984  0.00  0.00    +0.000 N 
ATOM     10  C   UNL     1       7.977   6.756  18.723  0.00  0.00    +0.000 C 
ATOM     11  O   UNL     1       8.303   5.742  19.335  0.00  0.00    +0.000 OA
ATOM     12  N   UNL     1       6.985   6.862  17.782  0.00  0.00    +0.000 N 
ATOM     13  H   UNL     1       9.425   7.769  19.649  0.00  0.00    +0.000 HD
ATOM     14  H   UNL     1       6.977   7.735  17.257  0.00  0.00    +0.000 HD
BRANCH   8  15
ATOM     15  C   UNL     1       9.430  10.242  19.017  0.00  0.00    +0.000 C 
ATOM     16 CL   UNL     1       9.327  11.760  18.097  0.00  0.00    +0.000 Cl
ENDBRANCH   8  15
ENDBRANCH   1  12
BRANCH   5  17
ATOM     17  O   UNL     1       2.512   5.022  17.662  0.00  0.00    +0.000 OA
BRANCH  17  18
ATOM     18  C   UNL     1       2.100   4.378  18.809  0.00  0.00    +0.000 A 
ATOM     19  C   UNL     1       2.360   4.827  20.109  0.00  0.00    +0.000 A 
ATOM     20  C   UNL     1       1.947   4.071  21.207  0.00  0.00    +0.000 A 
ATOM     21  C   UNL     1       1.223   2.896  21.012  0.00  0.00    +0.000 A 
ATOM     22  C   UNL     1       0.899   2.484  19.720  0.00  0.00    +0.000 A 
ATOM     23  C   UNL     1       1.337   3.225  18.620  0.00  0.00    +0.000 A 
ENDBRANCH  17  18
ENDBRANCH   5  17
TORSDOF 4
ENDMDL
MODEL 2
REMARK VINA RESULT:      -7.7      0.168      1.065
REMARK  Name = 
REMARK  4 active torsions:
REMARK  status: ('A' for Active; 'I' for Inactive)
REMARK    1  A    between atoms: C_2  and  C_3
REMARK    2  A    between atoms: N_8  and  C_9
REMARK    3  A    between atoms: C_13  and  O_14
REMARK    4  A    between atoms: O_14  and  C_15
REMARK                            x       y       z     vdW  Elec       q    Type
REMARK                         _______ _______ _______ _____ _____    ______ ____
ROOT
ATOM      1  C   UNL     1       6.071   5.787  17.343  0.00  0.00    +0.000 A 
ATOM      2  C   UNL     1       6.432   4.793  16.431  0.00  0.00    +0.000 A 
ATOM      3  C   UNL     1       5.492   3.857  15.989  0.00  0.00    +0.000 A 
ATOM      4  C   UNL     1       4.173   3.938  16.425  0.00  0.00    +0.000 A 
ATOM      5  C   UNL     1       3.798   4.941  17.316  0.00  0.00    +0.000 A 
ATOM      6  C   UNL     1       4.762   5.817  17.832  0.00  0.00    +0.000 A 
ENDROOT
BRANCH   1  12
ATOM      7  O   UNL     1       7.733   9.340  17.589  0.00  0.00    +0.000 OA
ATOM      8  C   UNL     1       8.550   9.058  18.466  0.00  0.00    +0.000 C 
ATOM      9  N   UNL     1       8.650   7.797  19.025  0.00  0.00    +0.000 N 
ATOM     10  C   UNL     1       7.936   6.653  18.746  0.00  0.00    +0.000 C 
ATOM     11  O   UNL     1       8.239   5.628  19.352  0.00  0.00    +0.000 OA
ATOM     12  N   UNL     1       6.956   6.785  17.796  0.00  0.00    +0.000 N 
ATOM     13  H   UNL     1       9.391   7.633  19.696  0.00  0.00    +0.000 HD
ATOM     14  H   UNL     1       6.969   7.662  17.278  0.00  0.00    +0.000 HD
BRANCH   8  15
ATOM     15  C   UNL     1       9.445  10.112  19.087  0.00  0.00    +0.000 C 
ATOM     16 CL   UNL     1       9.778  11.435  17.948  0.00  0.00    +0.000 Cl
ENDBRANCH   8  15
ENDBRANCH   1  12
BRANCH   5  17
ATOM     17  O   UNL     1       2.468   4.979  17.677  0.00  0.00    +0.000 OA
BRANCH  17  18
ATOM     18  C   UNL     1       2.051   4.241  18.764  0.00  0.00    +0.000 A 
ATOM     19  C   UNL     1       1.379   3.017  18.681  0.00  0.00    +0.000 A 
ATOM     20  C   UNL     1       0.947   2.374  19.842  0.00  0.00    +0.000 A 
ATOM     21  C   UNL     1       1.239   2.922  21.091  0.00  0.00    +0.000 A 
ATOM     22  C   UNL     1       1.972   4.104  21.179  0.00  0.00    +0.000 A 
ATOM     23  C   UNL     1       2.378   4.762  20.016  0.00  0.00    +0.000 A 
ENDBRANCH  17  18
ENDBRANCH   5  17
TORSDOF 4
ENDMDL
MODEL 3
REMARK VINA RESULT:      -7.4      0.947      1.236
REMARK  Name = 
REMARK  4 active torsions:
REMARK  status: ('A' for Active; 'I' for Inactive)
REMARK    1  A    between atoms: C_2  and  C_3
REMARK    2  A    between atoms: N_8  and  C_9
REMARK    3  A    between atoms: C_13  and  O_14
REMARK    4  A    between atoms: O_14  and  C_15
REMARK                            x       y       z     vdW  Elec       q    Type
REMARK                         _______ _______ _______ _____ _____    ______ ____
ROOT
ATOM      1  C   UNL     1       6.501   5.559  16.769  0.00  0.00    +0.000 A 
ATOM      2  C   UNL     1       6.970   4.879  15.644  0.00  0.00    +0.000 A 
ATOM      3  C   UNL     1       6.198   3.879  15.045  0.00  0.00    +0.000 A 
ATOM      4  C   UNL     1       4.932   3.585  15.543  0.00  0.00    +0.000 A 
ATOM      5  C   UNL     1       4.446   4.276  16.650  0.00  0.00    +0.000 A 
ATOM      6  C   UNL     1       5.260   5.209  17.308  0.00  0.00    +0.000 A 
ENDROOT
BRANCH   1  12
ATOM      7  O   UNL     1       7.888   9.194  17.326  0.00  0.00    +0.000 OA
ATOM      8  C   UNL     1       8.492   8.961  18.374  0.00  0.00    +0.000 C 
ATOM      9  N   UNL     1       8.519   7.711  18.965  0.00  0.00    +0.000 N 
ATOM     10  C   UNL     1       7.945   6.530  18.550  0.00  0.00    +0.000 C 
ATOM     11  O   UNL     1       8.147   5.526  19.229  0.00  0.00    +0.000 OA
ATOM     12  N   UNL     1       7.208   6.605  17.396  0.00  0.00    +0.000 N 
ATOM     13  H   UNL     1       9.091   7.590  19.793  0.00  0.00    +0.000 HD
ATOM     14  H   UNL     1       7.299   7.477  16.879  0.00  0.00    +0.000 HD
BRANCH   8  15
ATOM     15  C   UNL     1       9.166  10.063  19.166  0.00  0.00    +0.000 C 
ATOM     16 CL   UNL     1       9.130  11.609  18.289  0.00  0.00    +0.000 Cl
ENDBRANCH   8  15
ENDBRANCH   1  12
BRANCH   5  17
ATOM     17  O   UNL     1       3.172   3.955  17.067  0.00  0.00    +0.000 OA
BRANCH  17  18
ATOM     18  C   UNL     1       2.893   3.954  18.417  0.00  0.00    +0.000 A 
ATOM     19  C   UNL     1       3.333   2.977  19.317  0.00  0.00    +0.000 A 
ATOM     20  C   UNL     1       2.947   3.035  20.658  0.00  0.00    +0.000 A 
ATOM     21  C   UNL     1       2.171   4.100  21.113  0.00  0.00    +0.000 A 
ATOM     22  C   UNL     1       1.792   5.113  20.234  0.00  0.00    +0.000 A 
ATOM     23  C   UNL     1       2.153   5.040  18.887  0.00  0.00    +0.000 A 
ENDBRANCH  17  18
ENDBRANCH   5  17
TORSDOF 4
ENDMDL
MODEL 4
REMARK VINA RESULT:      -7.2      1.044      1.055
REMARK  Name = 
REMARK  4 active torsions:
REMARK  status: ('A' for Active; 'I' for Inactive)
REMARK    1  A    between atoms: C_2  and  C_3
REMARK    2  A    between atoms: N_8  and  C_9
REMARK    3  A    between atoms: C_13  and  O_14
REMARK    4  A    between atoms: O_14  and  C_15
REMARK                            x       y       z     vdW  Elec       q    Type
REMARK                         _______ _______ _______ _____ _____    ______ ____
ROOT
ATOM      1  C   UNL     1       6.327   5.654  17.117  0.00  0.00    +0.000 A 
ATOM      2  C   UNL     1       6.059   5.527  15.752  0.00  0.00    +0.000 A 
ATOM      3  C   UNL     1       5.233   4.502  15.283  0.00  0.00    +0.000 A 
ATOM      4  C   UNL     1       4.634   3.624  16.181  0.00  0.00    +0.000 A 
ATOM      5  C   UNL     1       4.876   3.759  17.546  0.00  0.00    +0.000 A 
ATOM      6  C   UNL     1       5.781   4.725  18.007  0.00  0.00    +0.000 A 
ENDROOT
BRANCH   1  12
ATOM      7  O   UNL     1       7.792   9.276  17.542  0.00  0.00    +0.000 OA
ATOM      8  C   UNL     1       8.528   9.024  18.497  0.00  0.00    +0.000 C 
ATOM      9  N   UNL     1       8.627   7.764  19.059  0.00  0.00    +0.000 N 
ATOM     10  C   UNL     1       7.998   6.592  18.705  0.00  0.00    +0.000 C 
ATOM     11  O   UNL     1       8.284   5.577  19.335  0.00  0.00    +0.000 OA
ATOM     12  N   UNL     1       7.115   6.687  17.661  0.00  0.00    +0.000 N 
ATOM     13  H   UNL     1       9.304   7.629  19.802  0.00  0.00    +0.000 HD
ATOM     14  H   UNL     1       7.141   7.568  17.150  0.00  0.00    +0.000 HD
BRANCH   8  15
ATOM     15  C   UNL     1       9.307  10.112  19.210  0.00  0.00    +0.000 C 
ATOM     16 CL   UNL     1      10.043  11.247  18.056  0.00  0.00    +0.000 Cl
ENDBRANCH   8  15
ENDBRANCH   1  12
BRANCH   5  17
ATOM     17  O   UNL     1       4.223   2.875  18.379  0.00  0.00    +0.000 OA
BRANCH  17  18
ATOM     18  C   UNL     1       3.113   3.307  19.072  0.00  0.00    +0.000 A 
ATOM     19  C   UNL     1       3.093   4.414  19.929  0.00  0.00    +0.000 A 
ATOM     20  C   UNL     1       1.930   4.736  20.630  0.00  0.00    +0.000 A 
ATOM     21  C   UNL     1       0.768   3.992  20.431  0.00  0.00    +0.000 A 
ATOM     22  C   UNL     1       0.764   2.934  19.523  0.00  0.00    +0.000 A 
ATOM     23  C   UNL     1       1.936   2.593  18.843  0.00  0.00    +0.000 A 
ENDBRANCH  17  18
ENDBRANCH   5  17
TORSDOF 4
ENDMDL
MODEL 5
REMARK VINA RESULT:      -7.2      3.755      5.375
REMARK  Name = 
REMARK  4 active torsions:
REMARK  status: ('A' for Active; 'I' for Inactive)
REMARK    1  A    between atoms: C_2  and  C_3
REMARK    2  A    between atoms: N_8  and  C_9
REMARK    3  A    between atoms: C_13  and  O_14
REMARK    4  A    between atoms: O_14  and  C_15
REMARK                            x       y       z     vdW  Elec       q    Type
REMARK                         _______ _______ _______ _____ _____    ______ ____
ROOT
ATOM      1  C   UNL     1       3.768   4.179  17.047  0.00  0.00    +0.000 A 
ATOM      2  C   UNL     1       2.759   3.232  17.232  0.00  0.00    +0.000 A 
ATOM      3  C   UNL     1       1.854   3.354  18.289  0.00  0.00    +0.000 A 
ATOM      4  C   UNL     1       1.926   4.450  19.143  0.00  0.00    +0.000 A 
ATOM      5  C   UNL     1       2.914   5.413  18.952  0.00  0.00    +0.000 A 
ATOM      6  C   UNL     1       3.881   5.238  17.952  0.00  0.00    +0.000 A 
ENDROOT
BRANCH   1  12
ATOM      7  O   UNL     1       5.022   3.897  13.333  0.00  0.00    +0.000 OA
ATOM      8  C   UNL     1       6.222   4.028  13.574  0.00  0.00    +0.000 C 
ATOM      9  N   UNL     1       6.719   4.203  14.853  0.00  0.00    +0.000 N 
ATOM     10  C   UNL     1       6.051   4.250  16.056  0.00  0.00    +0.000 C 
ATOM     11  O   UNL     1       6.722   4.373  17.078  0.00  0.00    +0.000 OA
ATOM     12  N   UNL     1       4.687   4.139  15.979  0.00  0.00    +0.000 N 
ATOM     13  H   UNL     1       7.725   4.240  14.970  0.00  0.00    +0.000 HD
ATOM     14  H   UNL     1       4.324   3.867  15.067  0.00  0.00    +0.000 HD
BRANCH   8  15
ATOM     15  C   UNL     1       7.251   4.121  12.465  0.00  0.00    +0.000 C 
ATOM     16 CL   UNL     1       8.209   5.613  12.590  0.00  0.00    +0.000 Cl
ENDBRANCH   8  15
ENDBRANCH   1  12
BRANCH   5  17
ATOM     17  O   UNL     1       2.904   6.487  19.816  0.00  0.00    +0.000 OA
BRANCH  17  18
ATOM     18  C   UNL     1       2.192   7.616  19.469  0.00  0.00    +0.000 A 
ATOM     19  C   UNL     1       2.123   8.143  18.175  0.00  0.00    +0.000 A 
ATOM     20  C   UNL     1       1.420   9.325  17.937  0.00  0.00    +0.000 A 
ATOM     21  C   UNL     1       0.736   9.951  18.978  0.00  0.00    +0.000 A 
ATOM     22  C   UNL     1       0.743   9.388  20.254  0.00  0.00    +0.000 A 
ATOM     23  C   UNL     1       1.470   8.221  20.498  0.00  0.00    +0.000 A 
ENDBRANCH  17  18
ENDBRANCH   5  17
TORSDOF 4
ENDMDL
MODEL 6
REMARK VINA RESULT:      -7.2      1.083      1.513
REMARK  Name = 
REMARK  4 active torsions:
REMARK  status: ('A' for Active; 'I' for Inactive)
REMARK    1  A    between atoms: C_2  and  C_3
REMARK    2  A    between atoms: N_8  and  C_9
REMARK    3  A    between atoms: C_13  and  O_14
REMARK    4  A    between atoms: O_14  and  C_15
REMARK                            x       y       z     vdW  Elec       q    Type
REMARK                         _______ _______ _______ _____ _____    ______ ____
ROOT
ATOM      1  C   UNL     1       6.251   5.904  17.209  0.00  0.00    +0.000 A 
ATOM      2  C   UNL     1       5.818   5.798  15.886  0.00  0.00    +0.000 A 
ATOM      3  C   UNL     1       4.972   4.756  15.495  0.00  0.00    +0.000 A 
ATOM      4  C   UNL     1       4.520   3.837  16.438  0.00  0.00    +0.000 A 
ATOM      5  C   UNL     1       4.927   3.949  17.765  0.00  0.00    +0.000 A 
ATOM      6  C   UNL     1       5.852   4.935  18.135  0.00  0.00    +0.000 A 
ENDROOT
BRANCH   1  12
ATOM      7  O   UNL     1       7.703   9.546  17.481  0.00  0.00    +0.000 OA
ATOM      8  C   UNL     1       8.516   9.312  18.377  0.00  0.00    +0.000 C 
ATOM      9  N   UNL     1       8.674   8.059  18.941  0.00  0.00    +0.000 N 
ATOM     10  C   UNL     1       8.033   6.876  18.650  0.00  0.00    +0.000 C 
ATOM     11  O   UNL     1       8.380   5.871  19.265  0.00  0.00    +0.000 OA
ATOM     12  N   UNL     1       7.068   6.951  17.679  0.00  0.00    +0.000 N 
ATOM     13  H   UNL     1       9.409   7.939  19.629  0.00  0.00    +0.000 HD
ATOM     14  H   UNL     1       7.043   7.827  17.159  0.00  0.00    +0.000 HD
BRANCH   8  15
ATOM     15  C   UNL     1       9.336  10.416  19.015  0.00  0.00    +0.000 C 
ATOM     16 CL   UNL     1      10.345  11.252  17.814  0.00  0.00    +0.000 Cl
ENDBRANCH   8  15
ENDBRANCH   1  12
BRANCH   5  17
ATOM     17  O   UNL     1       4.413   3.023  18.648  0.00  0.00    +0.000 OA
BRANCH  17  18
ATOM     18  C   UNL     1       3.154   3.228  19.171  0.00  0.00    +0.000 A 
ATOM     19  C   UNL     1       2.028   2.462  18.851  0.00  0.00    +0.000 A 
ATOM     20  C   UNL     1       0.783   2.787  19.393  0.00  0.00    +0.000 A 
ATOM     21  C   UNL     1       0.671   3.839  20.300  0.00  0.00    +0.000 A 
ATOM     22  C   UNL     1       1.805   4.558  20.677  0.00  0.00    +0.000 A 
ATOM     23  C   UNL     1       3.045   4.252  20.113  0.00  0.00    +0.000 A 
ENDBRANCH  17  18
ENDBRANCH   5  17
TORSDOF 4
ENDMDL
MODEL 7
REMARK VINA RESULT:      -7.1      5.922      7.354
REMARK  Name = 
REMARK  4 active torsions:
REMARK  status: ('A' for Active; 'I' for Inactive)
REMARK    1  A    between atoms: C_2  and  C_3
REMARK    2  A    between atoms: N_8  and  C_9
REMARK    3  A    between atoms: C_13  and  O_14
REMARK    4  A    between atoms: O_14  and  C_15
REMARK                            x       y       z     vdW  Elec       q    Type
REMARK                         _______ _______ _______ _____ _____    ______ ____
ROOT
ATOM      1  C   UNL     1       1.095   9.302  19.775  0.00  0.00    +0.000 A 
ATOM      2  C   UNL     1       1.363   9.628  18.444  0.00  0.00    +0.000 A 
ATOM      3  C   UNL     1       2.164   8.797  17.656  0.00  0.00    +0.000 A 
ATOM      4  C   UNL     1       2.664   7.610  18.182  0.00  0.00    +0.000 A 
ATOM      5  C   UNL     1       2.380   7.264  19.501  0.00  0.00    +0.000 A 
ATOM      6  C   UNL     1       1.660   8.146  20.319  0.00  0.00    +0.000 A 
ENDROOT
BRANCH   1  12
ATOM      7  O   UNL     1      -0.322  10.793  23.124  0.00  0.00    +0.000 OA
ATOM      8  C   UNL     1      -1.194  11.496  22.613  0.00  0.00    +0.000 C 
ATOM      9  N   UNL     1      -1.407  11.559  21.248  0.00  0.00    +0.000 N 
ATOM     10  C   UNL     1      -0.764  10.896  20.227  0.00  0.00    +0.000 C 
ATOM     11  O   UNL     1      -1.164  11.085  19.081  0.00  0.00    +0.000 OA
ATOM     12  N   UNL     1       0.263  10.073  20.612  0.00  0.00    +0.000 N 
ATOM     13  H   UNL     1      -2.186  12.114  20.915  0.00  0.00    +0.000 HD
ATOM     14  H   UNL     1       0.335   9.907  21.614  0.00  0.00    +0.000 HD
BRANCH   8  15
ATOM     15  C   UNL     1      -2.039  12.443  23.442  0.00  0.00    +0.000 C 
ATOM     16 CL   UNL     1      -1.237  14.016  23.650  0.00  0.00    +0.000 Cl
ENDBRANCH   8  15
ENDBRANCH   1  12
BRANCH   5  17
ATOM     17  O   UNL     1       2.881   6.058  19.944  0.00  0.00    +0.000 OA
BRANCH  17  18
ATOM     18  C   UNL     1       2.271   4.892  19.535  0.00  0.00    +0.000 A 
ATOM     19  C   UNL     1       2.527   4.247  18.319  0.00  0.00    +0.000 A 
ATOM     20  C   UNL     1       1.813   3.099  17.972  0.00  0.00    +0.000 A 
ATOM     21  C   UNL     1       0.887   2.558  18.862  0.00  0.00    +0.000 A 
ATOM     22  C   UNL     1       0.684   3.156  20.105  0.00  0.00    +0.000 A 
ATOM     23  C   UNL     1       1.376   4.322  20.441  0.00  0.00    +0.000 A 
ENDBRANCH  17  18
ENDBRANCH   5  17
TORSDOF 4
ENDMDL
MODEL 8
REMARK VINA RESULT:      -7.1      0.993      1.097
REMARK  Name = 
REMARK  4 active torsions:
REMARK  status: ('A' for Active; 'I' for Inactive)
REMARK    1  A    between atoms: C_2  and  C_3
REMARK    2  A    between atoms: N_8  and  C_9
REMARK    3  A    between atoms: C_13  and  O_14
REMARK    4  A    between atoms: O_14  and  C_15
REMARK                            x       y       z     vdW  Elec       q    Type
REMARK                         _______ _______ _______ _____ _____    ______ ____
ROOT
ATOM      1  C   UNL     1       6.231   5.847  17.192  0.00  0.00    +0.000 A 
ATOM      2  C   UNL     1       6.621   4.917  16.225  0.00  0.00    +0.000 A 
ATOM      3  C   UNL     1       5.750   3.901  15.823  0.00  0.00    +0.000 A 
ATOM      4  C   UNL     1       4.465   3.836  16.354  0.00  0.00    +0.000 A 
ATOM      5  C   UNL     1       4.058   4.774  17.301  0.00  0.00    +0.000 A 
ATOM      6  C   UNL     1       4.966   5.731  17.774  0.00  0.00    +0.000 A 
ENDROOT
BRANCH   1  12
ATOM      7  O   UNL     1       7.693   9.494  17.265  0.00  0.00    +0.000 OA
ATOM      8  C   UNL     1       8.486   9.314  18.190  0.00  0.00    +0.000 C 
ATOM      9  N   UNL     1       8.627   8.099  18.835  0.00  0.00    +0.000 N 
ATOM     10  C   UNL     1       7.987   6.903  18.606  0.00  0.00    +0.000 C 
ATOM     11  O   UNL     1       8.316   5.937  19.290  0.00  0.00    +0.000 OA
ATOM     12  N   UNL     1       7.043   6.919  17.611  0.00  0.00    +0.000 N 
ATOM     13  H   UNL     1       9.347   8.021  19.544  0.00  0.00    +0.000 HD
ATOM     14  H   UNL     1       7.032   7.760  17.037  0.00  0.00    +0.000 HD
BRANCH   8  15
ATOM     15  C   UNL     1       9.297  10.454  18.774  0.00  0.00    +0.000 C 
ATOM     16 CL   UNL     1       9.137  10.525  20.543  0.00  0.00    +0.000 Cl
ENDBRANCH   8  15
ENDBRANCH   1  12
BRANCH   5  17
ATOM     17  O   UNL     1       2.762   4.667  17.758  0.00  0.00    +0.000 OA
BRANCH  17  18
ATOM     18  C   UNL     1       2.531   4.051  18.969  0.00  0.00    +0.000 A 
ATOM     19  C   UNL     1       1.361   4.197  19.723  0.00  0.00    +0.000 A 
ATOM     20  C   UNL     1       1.247   3.574  20.967  0.00  0.00    +0.000 A 
ATOM     21  C   UNL     1       2.275   2.757  21.434  0.00  0.00    +0.000 A 
ATOM     22  C   UNL     1       3.411   2.552  20.653  0.00  0.00    +0.000 A 
ATOM     23  C   UNL     1       3.538   3.197  19.421  0.00  0.00    +0.000 A 
ENDBRANCH  17  18
ENDBRANCH   5  17
TORSDOF 4
ENDMDL
MODEL 9
REMARK VINA RESULT:      -7.1      4.078      6.459
REMARK  Name = 
REMARK  4 active torsions:
REMARK  status: ('A' for Active; 'I' for Inactive)
REMARK    1  A    between atoms: C_2  and  C_3
REMARK    2  A    between atoms: N_8  and  C_9
REMARK    3  A    between atoms: C_13  and  O_14
REMARK    4  A    between atoms: O_14  and  C_15
REMARK                            x       y       z     vdW  Elec       q    Type
REMARK                         _______ _______ _______ _____ _____    ______ ____
ROOT
ATOM      1  C   UNL     1       2.289   5.569  20.239  0.00  0.00    +0.000 A 
ATOM      2  C   UNL     1       1.503   4.461  20.564  0.00  0.00    +0.000 A 
ATOM      3  C   UNL     1       1.997   3.165  20.398  0.00  0.00    +0.000 A 
ATOM      4  C   UNL     1       3.299   2.969  19.946  0.00  0.00    +0.000 A 
ATOM      5  C   UNL     1       4.099   4.068  19.643  0.00  0.00    +0.000 A 
ATOM      6  C   UNL     1       3.569   5.364  19.717  0.00  0.00    +0.000 A 
ENDROOT
BRANCH   1  12
ATOM      7  O   UNL     1       0.955   8.736  22.145  0.00  0.00    +0.000 OA
ATOM      8  C   UNL     1       0.975   9.504  21.182  0.00  0.00    +0.000 C 
ATOM      9  N   UNL     1       1.383   9.118  19.919  0.00  0.00    +0.000 N 
ATOM     10  C   UNL     1       1.808   7.887  19.471  0.00  0.00    +0.000 C 
ATOM     11  O   UNL     1       2.080   7.775  18.278  0.00  0.00    +0.000 OA
ATOM     12  N   UNL     1       1.869   6.901  20.421  0.00  0.00    +0.000 N 
ATOM     13  H   UNL     1       1.309   9.795  19.169  0.00  0.00    +0.000 HD
ATOM     14  H   UNL     1       1.438   7.132  21.315  0.00  0.00    +0.000 HD
BRANCH   8  15
ATOM     15  C   UNL     1       0.657  10.979  21.334  0.00  0.00    +0.000 C 
ATOM     16 CL   UNL     1      -0.625  11.246  22.537  0.00  0.00    +0.000 Cl
ENDBRANCH   8  15
ENDBRANCH   1  12
BRANCH   5  17
ATOM     17  O   UNL     1       5.387   3.799  19.233  0.00  0.00    +0.000 OA
BRANCH  17  18
ATOM     18  C   UNL     1       6.108   4.791  18.602  0.00  0.00    +0.000 A 
ATOM     19  C   UNL     1       7.115   5.548  19.210  0.00  0.00    +0.000 A 
ATOM     20  C   UNL     1       7.748   6.570  18.499  0.00  0.00    +0.000 A 
ATOM     21  C   UNL     1       7.418   6.799  17.164  0.00  0.00    +0.000 A 
ATOM     22  C   UNL     1       6.466   5.998  16.535  0.00  0.00    +0.000 A 
ATOM     23  C   UNL     1       5.812   4.994  17.254  0.00  0.00    +0.000 A 
ENDBRANCH  17  18
ENDBRANCH   5  17
TORSDOF 4
ENDMDL
