MODEL 1
REMARK VINA RESULT:      -8.2      0.000      0.000
REMARK  Name = 
REMARK  3 active torsions:
REMARK  status: ('A' for Active; 'I' for Inactive)
REMARK    1  A    between atoms: C_8  and  C_9
REMARK    2  A    between atoms: N_11  and  C_12
REMARK    3  A    between atoms: C_15  and  O_16
REMARK                            x       y       z     vdW  Elec       q    Type
REMARK                         _______ _______ _______ _____ _____    ______ ____
ROOT
ATOM      1  O   UNL     1       2.924  12.844  18.203  0.00  0.00    +0.000 OA
ATOM      2  C   UNL     1       2.464  13.377  19.213  0.00  0.00    +0.000 C 
ATOM      3  C   UNL     1       3.301  14.358  19.992  0.00  0.00    +0.000 C 
ATOM      4  C   UNL     1       2.646  15.102  21.143  0.00  0.00    +0.000 C 
ATOM      5  C   UNL     1       1.213  14.740  21.513  0.00  0.00    +0.000 C 
ATOM      6  C   UNL     1       0.533  13.708  20.676  0.00  0.00    +0.000 C 
ATOM      7  C   UNL     1       1.094  13.051  19.654  0.00  0.00    +0.000 C 
ATOM      8  C   UNL     1       0.363  11.966  18.907  0.00  0.00    +0.000 C 
ATOM      9  C   UNL     1      -1.141  12.044  19.123  0.00  0.00    +0.000 A 
ATOM     10  C   UNL     1      -1.611  12.784  20.222  0.00  0.00    +0.000 A 
ATOM     11  C   UNL     1      -2.970  12.878  20.502  0.00  0.00    +0.000 A 
ATOM     12  C   UNL     1      -3.889  12.256  19.662  0.00  0.00    +0.000 A 
ATOM     13  C   UNL     1      -3.464  11.526  18.544  0.00  0.00    +0.000 A 
ATOM     14  C   UNL     1      -4.411  10.921  17.701  0.00  0.00    +0.000 A 
ATOM     15  C   UNL     1      -4.017  10.188  16.585  0.00  0.00    +0.000 A 
ATOM     16  C   UNL     1      -2.667  10.043  16.300  0.00  0.00    +0.000 A 
ATOM     17  C   UNL     1      -1.712  10.639  17.127  0.00  0.00    +0.000 A 
ATOM     18  C   UNL     1      -2.079  11.400  18.262  0.00  0.00    +0.000 A 
ATOM     19  O   UNL     1      -0.774  13.461  21.081  0.00  0.00    +0.000 OA
ENDROOT
BRANCH   8  20
ATOM     20  C   UNL     1       0.764  10.612  19.421  0.00  0.00    +0.000 A 
ATOM     21  C   UNL     1       1.493   9.618  18.806  0.00  0.00    +0.000 A 
ATOM     22  N   UNL     1       1.472   8.556  19.674  0.00  0.00    +0.000 N 
ATOM     23  N   UNL     1       0.795   8.909  20.794  0.00  0.00    +0.000 NA
ATOM     24  N   UNL     1       0.354  10.154  20.646  0.00  0.00    +0.000 NA
BRANCH  22  25
ATOM     25  C   UNL     1       1.991   7.253  19.466  0.00  0.00    +0.000 A 
ATOM     26  C   UNL     1       1.833   6.264  20.450  0.00  0.00    +0.000 A 
ATOM     27  C   UNL     1       2.419   5.007  20.286  0.00  0.00    +0.000 A 
ATOM     28  C   UNL     1       3.152   4.740  19.137  0.00  0.00    +0.000 A 
ATOM     29  C   UNL     1       3.286   5.696  18.135  0.00  0.00    +0.000 A 
ATOM     30  C   UNL     1       2.702   6.957  18.295  0.00  0.00    +0.000 A 
BRANCH  28  31
ATOM     31  O   UNL     1       3.772   3.538  18.962  0.00  0.00    +0.000 OA
ATOM     32  H   UNL     1       3.180   2.835  19.276  0.00  0.00    +0.000 HD
ENDBRANCH  28  31
ENDBRANCH  22  25
ENDBRANCH   8  20
TORSDOF 3
ENDMDL
MODEL 2
REMARK VINA RESULT:      -8.0      0.910      1.375
REMARK  Name = 
REMARK  3 active torsions:
REMARK  status: ('A' for Active; 'I' for Inactive)
REMARK    1  A    between atoms: C_8  and  C_9
REMARK    2  A    between atoms: N_11  and  C_12
REMARK    3  A    between atoms: C_15  and  O_16
REMARK                            x       y       z     vdW  Elec       q    Type
REMARK                         _______ _______ _______ _____ _____    ______ ____
ROOT
ATOM      1  O   UNL     1       2.141  13.720  19.203  0.00  0.00    +0.000 OA
ATOM      2  C   UNL     1       1.456  14.052  20.171  0.00  0.00    +0.000 C 
ATOM      3  C   UNL     1       2.018  14.998  21.199  0.00  0.00    +0.000 C 
ATOM      4  C   UNL     1       1.091  15.497  22.295  0.00  0.00    +0.000 C 
ATOM      5  C   UNL     1      -0.322  14.933  22.356  0.00  0.00    +0.000 C 
ATOM      6  C   UNL     1      -0.716  13.962  21.292  0.00  0.00    +0.000 C 
ATOM      7  C   UNL     1       0.086  13.520  20.316  0.00  0.00    +0.000 C 
ATOM      8  C   UNL     1      -0.363  12.479  19.325  0.00  0.00    +0.000 C 
ATOM      9  C   UNL     1      -1.880  12.362  19.275  0.00  0.00    +0.000 A 
ATOM     10  C   UNL     1      -2.617  12.884  20.353  0.00  0.00    +0.000 A 
ATOM     11  C   UNL     1      -4.003  12.790  20.394  0.00  0.00    +0.000 A 
ATOM     12  C   UNL     1      -4.683  12.196  19.334  0.00  0.00    +0.000 A 
ATOM     13  C   UNL     1      -3.988  11.682  18.231  0.00  0.00    +0.000 A 
ATOM     14  C   UNL     1      -4.698  11.103  17.166  0.00  0.00    +0.000 A 
ATOM     15  C   UNL     1      -4.033  10.582  16.058  0.00  0.00    +0.000 A 
ATOM     16  C   UNL     1      -2.648  10.626  16.005  0.00  0.00    +0.000 A 
ATOM     17  C   UNL     1      -1.928  11.200  17.055  0.00  0.00    +0.000 A 
ATOM     18  C   UNL     1      -2.572  11.749  18.189  0.00  0.00    +0.000 A 
ATOM     19  O   UNL     1      -2.027  13.520  21.424  0.00  0.00    +0.000 OA
ENDROOT
BRANCH   8  20
ATOM     20  C   UNL     1       0.122  11.118  19.736  0.00  0.00    +0.000 A 
ATOM     21  C   UNL     1       1.065  10.305  19.145  0.00  0.00    +0.000 A 
ATOM     22  N   UNL     1       1.042   9.136  19.862  0.00  0.00    +0.000 N 
ATOM     23  N   UNL     1       0.152   9.252  20.877  0.00  0.00    +0.000 NA
ATOM     24  N   UNL     1      -0.418  10.450  20.804  0.00  0.00    +0.000 NA
BRANCH  22  25
ATOM     25  C   UNL     1       1.754   7.938  19.595  0.00  0.00    +0.000 A 
ATOM     26  C   UNL     1       2.498   7.807  18.412  0.00  0.00    +0.000 A 
ATOM     27  C   UNL     1       3.126   6.599  18.105  0.00  0.00    +0.000 A 
ATOM     28  C   UNL     1       3.016   5.529  18.983  0.00  0.00    +0.000 A 
ATOM     29  C   UNL     1       2.314   5.654  20.178  0.00  0.00    +0.000 A 
ATOM     30  C   UNL     1       1.682   6.862  20.490  0.00  0.00    +0.000 A 
BRANCH  28  31
ATOM     31  O   UNL     1       3.582   4.322  18.696  0.00  0.00    +0.000 OA
ATOM     32  H   UNL     1       3.677   4.245  17.733  0.00  0.00    +0.000 HD
ENDBRANCH  28  31
ENDBRANCH  22  25
ENDBRANCH   8  20
TORSDOF 3
ENDMDL
MODEL 3
REMARK VINA RESULT:      -7.9      3.016      8.844
REMARK  Name = 
REMARK  3 active torsions:
REMARK  status: ('A' for Active; 'I' for Inactive)
REMARK    1  A    between atoms: C_8  and  C_9
REMARK    2  A    between atoms: N_11  and  C_12
REMARK    3  A    between atoms: C_15  and  O_16
REMARK                            x       y       z     vdW  Elec       q    Type
REMARK                         _______ _______ _______ _____ _____    ______ ____
ROOT
ATOM      1  O   UNL     1       7.007   6.446  18.210  0.00  0.00    +0.000 OA
ATOM      2  C   UNL     1       6.665   5.867  17.179  0.00  0.00    +0.000 C 
ATOM      3  C   UNL     1       7.550   5.915  15.962  0.00  0.00    +0.000 C 
ATOM      4  C   UNL     1       7.163   5.066  14.762  0.00  0.00    +0.000 C 
ATOM      5  C   UNL     1       5.849   4.298  14.816  0.00  0.00    +0.000 C 
ATOM      6  C   UNL     1       5.055   4.392  16.076  0.00  0.00    +0.000 C 
ATOM      7  C   UNL     1       5.387   5.128  17.144  0.00  0.00    +0.000 C 
ATOM      8  C   UNL     1       4.491   5.231  18.351  0.00  0.00    +0.000 C 
ATOM      9  C   UNL     1       3.476   4.098  18.401  0.00  0.00    +0.000 A 
ATOM     10  C   UNL     1       3.228   3.383  17.216  0.00  0.00    +0.000 A 
ATOM     11  C   UNL     1       2.294   2.354  17.176  0.00  0.00    +0.000 A 
ATOM     12  C   UNL     1       1.612   1.999  18.337  0.00  0.00    +0.000 A 
ATOM     13  C   UNL     1       1.845   2.672  19.543  0.00  0.00    +0.000 A 
ATOM     14  C   UNL     1       1.157   2.284  20.705  0.00  0.00    +0.000 A 
ATOM     15  C   UNL     1       1.368   2.937  21.917  0.00  0.00    +0.000 A 
ATOM     16  C   UNL     1       2.264   3.994  21.982  0.00  0.00    +0.000 A 
ATOM     17  C   UNL     1       2.958   4.391  20.836  0.00  0.00    +0.000 A 
ATOM     18  C   UNL     1       2.776   3.741  19.592  0.00  0.00    +0.000 A 
ATOM     19  O   UNL     1       3.885   3.644  16.034  0.00  0.00    +0.000 OA
ENDROOT
BRANCH   8  20
ATOM     20  C   UNL     1       3.672   6.490  18.290  0.00  0.00    +0.000 A 
ATOM     21  C   UNL     1       2.855   7.054  19.246  0.00  0.00    +0.000 A 
ATOM     22  N   UNL     1       2.267   8.132  18.635  0.00  0.00    +0.000 N 
ATOM     23  N   UNL     1       2.743   8.244  17.371  0.00  0.00    +0.000 NA
ATOM     24  N   UNL     1       3.592   7.245  17.150  0.00  0.00    +0.000 NA
BRANCH  22  25
ATOM     25  C   UNL     1       1.262   8.986  19.158  0.00  0.00    +0.000 A 
ATOM     26  C   UNL     1       0.579   9.875  18.313  0.00  0.00    +0.000 A 
ATOM     27  C   UNL     1      -0.346  10.778  18.840  0.00  0.00    +0.000 A 
ATOM     28  C   UNL     1      -0.592  10.785  20.207  0.00  0.00    +0.000 A 
ATOM     29  C   UNL     1       0.049   9.885  21.053  0.00  0.00    +0.000 A 
ATOM     30  C   UNL     1       0.977   8.979  20.531  0.00  0.00    +0.000 A 
BRANCH  28  31
ATOM     31  O   UNL     1      -1.458  11.680  20.762  0.00  0.00    +0.000 OA
ATOM     32  H   UNL     1      -1.043  12.064  21.552  0.00  0.00    +0.000 HD
ENDBRANCH  28  31
ENDBRANCH  22  25
ENDBRANCH   8  20
TORSDOF 3
ENDMDL
MODEL 4
REMARK VINA RESULT:      -7.8      3.419      5.139
REMARK  Name = 
REMARK  3 active torsions:
REMARK  status: ('A' for Active; 'I' for Inactive)
REMARK    1  A    between atoms: C_8  and  C_9
REMARK    2  A    between atoms: N_11  and  C_12
REMARK    3  A    between atoms: C_15  and  O_16
REMARK                            x       y       z     vdW  Elec       q    Type
REMARK                         _______ _______ _______ _____ _____    ______ ____
ROOT
ATOM      1  O   UNL     1      -2.038  16.117  21.320  0.00  0.00    +0.000 OA
ATOM      2  C   UNL     1      -2.707  16.143  22.353  0.00  0.00    +0.000 C 
ATOM      3  C   UNL     1      -2.480  17.233  23.367  0.00  0.00    +0.000 C 
ATOM      4  C   UNL     1      -3.425  17.313  24.554  0.00  0.00    +0.000 C 
ATOM      5  C   UNL     1      -4.481  16.227  24.711  0.00  0.00    +0.000 C 
ATOM      6  C   UNL     1      -4.546  15.182  23.647  0.00  0.00    +0.000 C 
ATOM      7  C   UNL     1      -3.727  15.103  22.591  0.00  0.00    +0.000 C 
ATOM      8  C   UNL     1      -3.809  13.971  21.601  0.00  0.00    +0.000 C 
ATOM      9  C   UNL     1      -5.149  13.251  21.672  0.00  0.00    +0.000 A 
ATOM     10  C   UNL     1      -5.931  13.430  22.827  0.00  0.00    +0.000 A 
ATOM     11  C   UNL     1      -7.153  12.784  22.979  0.00  0.00    +0.000 A 
ATOM     12  C   UNL     1      -7.631  11.968  21.957  0.00  0.00    +0.000 A 
ATOM     13  C   UNL     1      -6.892  11.780  20.781  0.00  0.00    +0.000 A 
ATOM     14  C   UNL     1      -7.403  10.966  19.757  0.00  0.00    +0.000 A 
ATOM     15  C   UNL     1      -6.690  10.760  18.579  0.00  0.00    +0.000 A 
ATOM     16  C   UNL     1      -5.450  11.359  18.413  0.00  0.00    +0.000 A 
ATOM     17  C   UNL     1      -4.928  12.173  19.421  0.00  0.00    +0.000 A 
ATOM     18  C   UNL     1      -5.632  12.413  20.624  0.00  0.00    +0.000 A 
ATOM     19  O   UNL     1      -5.551  14.248  23.869  0.00  0.00    +0.000 OA
ENDROOT
BRANCH   8  20
ATOM     20  C   UNL     1      -2.782  12.921  21.917  0.00  0.00    +0.000 A 
ATOM     21  C   UNL     1      -1.848  12.328  21.096  0.00  0.00    +0.000 A 
ATOM     22  N   UNL     1      -1.244  11.365  21.863  0.00  0.00    +0.000 N 
ATOM     23  N   UNL     1      -1.759  11.402  23.115  0.00  0.00    +0.000 NA
ATOM     24  N   UNL     1      -2.701  12.339  23.156  0.00  0.00    +0.000 NA
BRANCH  22  25
ATOM     25  C   UNL     1      -0.282  10.405  21.454  0.00  0.00    +0.000 A 
ATOM     26  C   UNL     1       0.113  10.329  20.109  0.00  0.00    +0.000 A 
ATOM     27  C   UNL     1       0.992   9.329  19.689  0.00  0.00    +0.000 A 
ATOM     28  C   UNL     1       1.479   8.414  20.613  0.00  0.00    +0.000 A 
ATOM     29  C   UNL     1       1.127   8.500  21.957  0.00  0.00    +0.000 A 
ATOM     30  C   UNL     1       0.247   9.498  22.384  0.00  0.00    +0.000 A 
BRANCH  28  31
ATOM     31  O   UNL     1       2.307   7.400  20.231  0.00  0.00    +0.000 OA
ATOM     32  H   UNL     1       2.136   7.197  19.297  0.00  0.00    +0.000 HD
ENDBRANCH  28  31
ENDBRANCH  22  25
ENDBRANCH   8  20
TORSDOF 3
ENDMDL
MODEL 5
REMARK VINA RESULT:      -7.8      3.444      6.884
REMARK  Name = 
REMARK  3 active torsions:
REMARK  status: ('A' for Active; 'I' for Inactive)
REMARK    1  A    between atoms: C_8  and  C_9
REMARK    2  A    between atoms: N_11  and  C_12
REMARK    3  A    between atoms: C_15  and  O_16
REMARK                            x       y       z     vdW  Elec       q    Type
REMARK                         _______ _______ _______ _____ _____    ______ ____
ROOT
ATOM      1  O   UNL     1      -2.883  14.026  20.093  0.00  0.00    +0.000 OA
ATOM      2  C   UNL     1      -2.974  13.561  21.230  0.00  0.00    +0.000 C 
ATOM      3  C   UNL     1      -4.053  14.052  22.158  0.00  0.00    +0.000 C 
ATOM      4  C   UNL     1      -4.222  13.349  23.494  0.00  0.00    +0.000 C 
ATOM      5  C   UNL     1      -3.226  12.259  23.867  0.00  0.00    +0.000 C 
ATOM      6  C   UNL     1      -2.178  11.920  22.859  0.00  0.00    +0.000 C 
ATOM      7  C   UNL     1      -2.022  12.523  21.675  0.00  0.00    +0.000 C 
ATOM      8  C   UNL     1      -0.890  12.175  20.745  0.00  0.00    +0.000 C 
ATOM      9  C   UNL     1      -0.282  10.819  21.076  0.00  0.00    +0.000 A 
ATOM     10  C   UNL     1      -0.535  10.277  22.348  0.00  0.00    +0.000 A 
ATOM     11  C   UNL     1       0.009   9.058  22.735  0.00  0.00    +0.000 A 
ATOM     12  C   UNL     1       0.794   8.340  21.838  0.00  0.00    +0.000 A 
ATOM     13  C   UNL     1       1.053   8.834  20.552  0.00  0.00    +0.000 A 
ATOM     14  C   UNL     1       1.835   8.083  19.659  0.00  0.00    +0.000 A 
ATOM     15  C   UNL     1       2.110   8.551  18.376  0.00  0.00    +0.000 A 
ATOM     16  C   UNL     1       1.614   9.783  17.973  0.00  0.00    +0.000 A 
ATOM     17  C   UNL     1       0.835  10.541  18.849  0.00  0.00    +0.000 A 
ATOM     18  C   UNL     1       0.526  10.089  20.154  0.00  0.00    +0.000 A 
ATOM     19  O   UNL     1      -1.331  10.903  23.283  0.00  0.00    +0.000 OA
ENDROOT
BRANCH   8  20
ATOM     20  C   UNL     1       0.236  13.158  20.896  0.00  0.00    +0.000 A 
ATOM     21  C   UNL     1       0.998  13.779  19.930  0.00  0.00    +0.000 A 
ATOM     22  N   UNL     1       1.952  14.488  20.615  0.00  0.00    +0.000 N 
ATOM     23  N   UNL     1       1.749  14.339  21.946  0.00  0.00    +0.000 NA
ATOM     24  N   UNL     1       0.713  13.526  22.127  0.00  0.00    +0.000 NA
BRANCH  22  25
ATOM     25  C   UNL     1       3.044  15.217  20.079  0.00  0.00    +0.000 A 
ATOM     26  C   UNL     1       4.270  15.259  20.762  0.00  0.00    +0.000 A 
ATOM     27  C   UNL     1       5.317  16.048  20.282  0.00  0.00    +0.000 A 
ATOM     28  C   UNL     1       5.140  16.785  19.118  0.00  0.00    +0.000 A 
ATOM     29  C   UNL     1       3.945  16.724  18.408  0.00  0.00    +0.000 A 
ATOM     30  C   UNL     1       2.892  15.937  18.885  0.00  0.00    +0.000 A 
BRANCH  28  31
ATOM     31  O   UNL     1       6.127  17.597  18.643  0.00  0.00    +0.000 OA
ATOM     32  H   UNL     1       5.725  18.430  18.345  0.00  0.00    +0.000 HD
ENDBRANCH  28  31
ENDBRANCH  22  25
ENDBRANCH   8  20
TORSDOF 3
ENDMDL
MODEL 6
REMARK VINA RESULT:      -7.6      3.312      6.533
REMARK  Name = 
REMARK  3 active torsions:
REMARK  status: ('A' for Active; 'I' for Inactive)
REMARK    1  A    between atoms: C_8  and  C_9
REMARK    2  A    between atoms: N_11  and  C_12
REMARK    3  A    between atoms: C_15  and  O_16
REMARK                            x       y       z     vdW  Elec       q    Type
REMARK                         _______ _______ _______ _____ _____    ______ ____
ROOT
ATOM      1  O   UNL     1      -2.352  13.860  19.741  0.00  0.00    +0.000 OA
ATOM      2  C   UNL     1      -2.461  13.432  20.890  0.00  0.00    +0.000 C 
ATOM      3  C   UNL     1      -3.512  14.001  21.807  0.00  0.00    +0.000 C 
ATOM      4  C   UNL     1      -3.711  13.344  23.162  0.00  0.00    +0.000 C 
ATOM      5  C   UNL     1      -2.768  12.217  23.563  0.00  0.00    +0.000 C 
ATOM      6  C   UNL     1      -1.742  11.799  22.563  0.00  0.00    +0.000 C 
ATOM      7  C   UNL     1      -1.560  12.362  21.362  0.00  0.00    +0.000 C 
ATOM      8  C   UNL     1      -0.449  11.932  20.440  0.00  0.00    +0.000 C 
ATOM      9  C   UNL     1       0.093  10.558  20.808  0.00  0.00    +0.000 A 
ATOM     10  C   UNL     1      -0.182  10.065  22.095  0.00  0.00    +0.000 A 
ATOM     11  C   UNL     1       0.302   8.831  22.515  0.00  0.00    +0.000 A 
ATOM     12  C   UNL     1       1.049   8.051  21.636  0.00  0.00    +0.000 A 
ATOM     13  C   UNL     1       1.328   8.497  20.337  0.00  0.00    +0.000 A 
ATOM     14  C   UNL     1       2.069   7.684  19.463  0.00  0.00    +0.000 A 
ATOM     15  C   UNL     1       2.363   8.103  18.167  0.00  0.00    +0.000 A 
ATOM     16  C   UNL     1       1.927   9.345  17.731  0.00  0.00    +0.000 A 
ATOM     17  C   UNL     1       1.188  10.165  18.588  0.00  0.00    +0.000 A 
ATOM     18  C   UNL     1       0.862   9.765  19.905  0.00  0.00    +0.000 A 
ATOM     19  O   UNL     1      -0.944  10.754  23.014  0.00  0.00    +0.000 OA
ENDROOT
BRANCH   8  20
ATOM     20  C   UNL     1       0.724  12.863  20.562  0.00  0.00    +0.000 A 
ATOM     21  C   UNL     1       1.642  13.251  19.611  0.00  0.00    +0.000 A 
ATOM     22  N   UNL     1       2.560  14.021  20.279  0.00  0.00    +0.000 N 
ATOM     23  N   UNL     1       2.188  14.134  21.577  0.00  0.00    +0.000 NA
ATOM     24  N   UNL     1       1.078  13.426  21.761  0.00  0.00    +0.000 NA
BRANCH  22  25
ATOM     25  C   UNL     1       3.762  14.578  19.772  0.00  0.00    +0.000 A 
ATOM     26  C   UNL     1       4.029  14.546  18.393  0.00  0.00    +0.000 A 
ATOM     27  C   UNL     1       5.249  15.013  17.902  0.00  0.00    +0.000 A 
ATOM     28  C   UNL     1       6.195  15.517  18.785  0.00  0.00    +0.000 A 
ATOM     29  C   UNL     1       5.930  15.591  20.149  0.00  0.00    +0.000 A 
ATOM     30  C   UNL     1       4.711  15.124  20.648  0.00  0.00    +0.000 A 
BRANCH  28  31
ATOM     31  O   UNL     1       7.413  15.943  18.344  0.00  0.00    +0.000 OA
ATOM     32  H   UNL     1       8.020  15.982  19.102  0.00  0.00    +0.000 HD
ENDBRANCH  28  31
ENDBRANCH  22  25
ENDBRANCH   8  20
TORSDOF 3
ENDMDL
MODEL 7
REMARK VINA RESULT:      -7.5      2.932      4.294
REMARK  Name = 
REMARK  3 active torsions:
REMARK  status: ('A' for Active; 'I' for Inactive)
REMARK    1  A    between atoms: C_8  and  C_9
REMARK    2  A    between atoms: N_11  and  C_12
REMARK    3  A    between atoms: C_15  and  O_16
REMARK                            x       y       z     vdW  Elec       q    Type
REMARK                         _______ _______ _______ _____ _____    ______ ____
ROOT
ATOM      1  O   UNL     1      -0.085  15.771  21.856  0.00  0.00    +0.000 OA
ATOM      2  C   UNL     1      -0.532  15.740  23.003  0.00  0.00    +0.000 C 
ATOM      3  C   UNL     1       0.097  16.587  24.077  0.00  0.00    +0.000 C 
ATOM      4  C   UNL     1      -0.576  16.632  25.439  0.00  0.00    +0.000 C 
ATOM      5  C   UNL     1      -1.785  15.736  25.675  0.00  0.00    +0.000 C 
ATOM      6  C   UNL     1      -2.259  14.913  24.524  0.00  0.00    +0.000 C 
ATOM      7  C   UNL     1      -1.683  14.870  23.316  0.00  0.00    +0.000 C 
ATOM      8  C   UNL     1      -2.177  13.952  22.229  0.00  0.00    +0.000 C 
ATOM      9  C   UNL     1      -3.599  13.478  22.491  0.00  0.00    +0.000 A 
ATOM     10  C   UNL     1      -4.102  13.594  23.800  0.00  0.00    +0.000 A 
ATOM     11  C   UNL     1      -5.381  13.156  24.124  0.00  0.00    +0.000 A 
ATOM     12  C   UNL     1      -6.196  12.620  23.131  0.00  0.00    +0.000 A 
ATOM     13  C   UNL     1      -5.742  12.506  21.810  0.00  0.00    +0.000 A 
ATOM     14  C   UNL     1      -6.589  11.978  20.822  0.00  0.00    +0.000 A 
ATOM     15  C   UNL     1      -6.163  11.851  19.502  0.00  0.00    +0.000 A 
ATOM     16  C   UNL     1      -4.879  12.243  19.154  0.00  0.00    +0.000 A 
ATOM     17  C   UNL     1      -4.024  12.771  20.124  0.00  0.00    +0.000 A 
ATOM     18  C   UNL     1      -4.429  12.925  21.471  0.00  0.00    +0.000 A 
ATOM     19  O   UNL     1      -3.376  14.146  24.833  0.00  0.00    +0.000 OA
ENDROOT
BRANCH   8  20
ATOM     20  C   UNL     1      -1.348  12.701  22.181  0.00  0.00    +0.000 A 
ATOM     21  C   UNL     1      -0.714  12.105  21.111  0.00  0.00    +0.000 A 
ATOM     22  N   UNL     1      -0.195  10.933  21.599  0.00  0.00    +0.000 N 
ATOM     23  N   UNL     1      -0.464  10.842  22.923  0.00  0.00    +0.000 NA
ATOM     24  N   UNL     1      -1.171  11.908  23.285  0.00  0.00    +0.000 NA
BRANCH  22  25
ATOM     25  C   UNL     1       0.463   9.907  20.874  0.00  0.00    +0.000 A 
ATOM     26  C   UNL     1       0.856   8.724  21.521  0.00  0.00    +0.000 A 
ATOM     27  C   UNL     1       1.581   7.751  20.831  0.00  0.00    +0.000 A 
ATOM     28  C   UNL     1       1.904   7.957  19.496  0.00  0.00    +0.000 A 
ATOM     29  C   UNL     1       1.489   9.106  18.830  0.00  0.00    +0.000 A 
ATOM     30  C   UNL     1       0.764  10.085  19.516  0.00  0.00    +0.000 A 
BRANCH  28  31
ATOM     31  O   UNL     1       2.646   7.047  18.803  0.00  0.00    +0.000 OA
ATOM     32  H   UNL     1       2.988   7.474  18.000  0.00  0.00    +0.000 HD
ENDBRANCH  28  31
ENDBRANCH  22  25
ENDBRANCH   8  20
TORSDOF 3
ENDMDL
MODEL 8
REMARK VINA RESULT:      -7.5      3.030      4.508
REMARK  Name = 
REMARK  3 active torsions:
REMARK  status: ('A' for Active; 'I' for Inactive)
REMARK    1  A    between atoms: C_8  and  C_9
REMARK    2  A    between atoms: N_11  and  C_12
REMARK    3  A    between atoms: C_15  and  O_16
REMARK                            x       y       z     vdW  Elec       q    Type
REMARK                         _______ _______ _______ _____ _____    ______ ____
ROOT
ATOM      1  O   UNL     1      -0.560  15.584  22.022  0.00  0.00    +0.000 OA
ATOM      2  C   UNL     1      -1.087  15.508  23.132  0.00  0.00    +0.000 C 
ATOM      3  C   UNL     1      -0.547  16.325  24.277  0.00  0.00    +0.000 C 
ATOM      4  C   UNL     1      -1.315  16.315  25.588  0.00  0.00    +0.000 C 
ATOM      5  C   UNL     1      -2.526  15.398  25.707  0.00  0.00    +0.000 C 
ATOM      6  C   UNL     1      -2.906  14.609  24.498  0.00  0.00    +0.000 C 
ATOM      7  C   UNL     1      -2.245  14.615  23.334  0.00  0.00    +0.000 C 
ATOM      8  C   UNL     1      -2.648  13.730  22.184  0.00  0.00    +0.000 C 
ATOM      9  C   UNL     1      -4.079  13.230  22.328  0.00  0.00    +0.000 A 
ATOM     10  C   UNL     1      -4.674  13.295  23.601  0.00  0.00    +0.000 A 
ATOM     11  C   UNL     1      -5.966  12.832  23.819  0.00  0.00    +0.000 A 
ATOM     12  C   UNL     1      -6.702  12.321  22.753  0.00  0.00    +0.000 A 
ATOM     13  C   UNL     1      -6.154  12.258  21.464  0.00  0.00    +0.000 A 
ATOM     14  C   UNL     1      -6.922  11.754  20.402  0.00  0.00    +0.000 A 
ATOM     15  C   UNL     1      -6.401  11.677  19.112  0.00  0.00    +0.000 A 
ATOM     16  C   UNL     1      -5.101  12.096  18.869  0.00  0.00    +0.000 A 
ATOM     17  C   UNL     1      -4.325  12.600  19.915  0.00  0.00    +0.000 A 
ATOM     18  C   UNL     1      -4.827  12.703  21.234  0.00  0.00    +0.000 A 
ATOM     19  O   UNL     1      -4.031  13.819  24.701  0.00  0.00    +0.000 OA
ENDROOT
BRANCH   8  20
ATOM     20  C   UNL     1      -1.800  12.490  22.153  0.00  0.00    +0.000 A 
ATOM     21  C   UNL     1      -0.925  12.046  21.185  0.00  0.00    +0.000 A 
ATOM     22  N   UNL     1      -0.503  10.812  21.610  0.00  0.00    +0.000 N 
ATOM     23  N   UNL     1      -1.065  10.537  22.812  0.00  0.00    +0.000 NA
ATOM     24  N   UNL     1      -1.861  11.547  23.146  0.00  0.00    +0.000 NA
BRANCH  22  25
ATOM     25  C   UNL     1       0.327   9.892  20.919  0.00  0.00    +0.000 A 
ATOM     26  C   UNL     1       0.717  10.148  19.595  0.00  0.00    +0.000 A 
ATOM     27  C   UNL     1       1.459   9.204  18.884  0.00  0.00    +0.000 A 
ATOM     28  C   UNL     1       1.817   8.012  19.500  0.00  0.00    +0.000 A 
ATOM     29  C   UNL     1       1.472   7.759  20.824  0.00  0.00    +0.000 A 
ATOM     30  C   UNL     1       0.727   8.701  21.541  0.00  0.00    +0.000 A 
BRANCH  28  31
ATOM     31  O   UNL     1       2.507   7.049  18.823  0.00  0.00    +0.000 OA
ATOM     32  H   UNL     1       2.266   6.182  19.188  0.00  0.00    +0.000 HD
ENDBRANCH  28  31
ENDBRANCH  22  25
ENDBRANCH   8  20
TORSDOF 3
ENDMDL
MODEL 9
REMARK VINA RESULT:      -7.3      2.345      3.471
REMARK  Name = 
REMARK  3 active torsions:
REMARK  status: ('A' for Active; 'I' for Inactive)
REMARK    1  A    between atoms: C_8  and  C_9
REMARK    2  A    between atoms: N_11  and  C_12
REMARK    3  A    between atoms: C_15  and  O_16
REMARK                            x       y       z     vdW  Elec       q    Type
REMARK                         _______ _______ _______ _____ _____    ______ ____
ROOT
ATOM      1  O   UNL     1      -0.484  15.409  19.208  0.00  0.00    +0.000 OA
ATOM      2  C   UNL     1      -0.846  15.677  20.354  0.00  0.00    +0.000 C 
ATOM      3  C   UNL     1      -0.195  16.812  21.100  0.00  0.00    +0.000 C 
ATOM      4  C   UNL     1      -0.771  17.203  22.451  0.00  0.00    +0.000 C 
ATOM      5  C   UNL     1      -1.903  16.361  23.024  0.00  0.00    +0.000 C 
ATOM      6  C   UNL     1      -2.407  15.234  22.184  0.00  0.00    +0.000 C 
ATOM      7  C   UNL     1      -1.916  14.883  20.989  0.00  0.00    +0.000 C 
ATOM      8  C   UNL     1      -2.429  13.682  20.237  0.00  0.00    +0.000 C 
ATOM      9  C   UNL     1      -3.797  13.242  20.739  0.00  0.00    +0.000 A 
ATOM     10  C   UNL     1      -4.211  13.695  22.004  0.00  0.00    +0.000 A 
ATOM     11  C   UNL     1      -5.435  13.313  22.543  0.00  0.00    +0.000 A 
ATOM     12  C   UNL     1      -6.284  12.493  21.806  0.00  0.00    +0.000 A 
ATOM     13  C   UNL     1      -5.919  12.037  20.532  0.00  0.00    +0.000 A 
ATOM     14  C   UNL     1      -6.801  11.224  19.801  0.00  0.00    +0.000 A 
ATOM     15  C   UNL     1      -6.462  10.755  18.533  0.00  0.00    +0.000 A 
ATOM     16  C   UNL     1      -5.232  11.086  17.984  0.00  0.00    +0.000 A 
ATOM     17  C   UNL     1      -4.345  11.895  18.698  0.00  0.00    +0.000 A 
ATOM     18  C   UNL     1      -4.662  12.398  19.982  0.00  0.00    +0.000 A 
ATOM     19  O   UNL     1      -3.450  14.538  22.783  0.00  0.00    +0.000 OA
ENDROOT
BRANCH   8  20
ATOM     20  C   UNL     1      -1.530  12.499  20.460  0.00  0.00    +0.000 A 
ATOM     21  C   UNL     1      -0.646  11.890  19.596  0.00  0.00    +0.000 A 
ATOM     22  N   UNL     1      -0.169  10.796  20.270  0.00  0.00    +0.000 N 
ATOM     23  N   UNL     1      -0.707  10.767  21.513  0.00  0.00    +0.000 NA
ATOM     24  N   UNL     1      -1.542  11.794  21.635  0.00  0.00    +0.000 NA
BRANCH  22  25
ATOM     25  C   UNL     1       0.693   9.781  19.780  0.00  0.00    +0.000 A 
ATOM     26  C   UNL     1       1.092   9.782  18.434  0.00  0.00    +0.000 A 
ATOM     27  C   UNL     1       1.867   8.736  17.929  0.00  0.00    +0.000 A 
ATOM     28  C   UNL     1       2.247   7.698  18.770  0.00  0.00    +0.000 A 
ATOM     29  C   UNL     1       1.892   7.702  20.115  0.00  0.00    +0.000 A 
ATOM     30  C   UNL     1       1.115   8.746  20.627  0.00  0.00    +0.000 A 
BRANCH  28  31
ATOM     31  O   UNL     1       2.969   6.641  18.301  0.00  0.00    +0.000 OA
ATOM     32  H   UNL     1       3.371   6.181  19.057  0.00  0.00    +0.000 HD
ENDBRANCH  28  31
ENDBRANCH  22  25
ENDBRANCH   8  20
TORSDOF 3
ENDMDL
