MODEL 1
REMARK VINA RESULT:      -8.8      0.000      0.000
REMARK  Name = 
REMARK  7 active torsions:
REMARK  status: ('A' for Active; 'I' for Inactive)
REMARK    1  A    between atoms: C_1  and  C_2
REMARK    2  A    between atoms: C_2  and  O_3
REMARK    3  A    between atoms: O_3  and  C_4
REMARK    4  A    between atoms: C_9  and  C_10
REMARK    5  A    between atoms: C_12  and  N_13
REMARK    6  A    between atoms: N_13  and  C_14
REMARK    7  A    between atoms: C_17  and  N_18
REMARK                            x       y       z     vdW  Elec       q    Type
REMARK                         _______ _______ _______ _____ _____    ______ ____
ROOT
ATOM      1  C   UNL     1       5.684   6.057  16.765  0.00  0.00    +0.000 A 
ATOM      2  C   UNL     1       5.558   4.906  15.998  0.00  0.00    +0.000 A 
ATOM      3  C   UNL     1       4.554   3.981  16.287  0.00  0.00    +0.000 A 
ATOM      4  C   UNL     1       3.658   4.169  17.326  0.00  0.00    +0.000 A 
ATOM      5  N   UNL     1       2.736   3.216  17.512  0.00  0.00    +0.000 NA
ATOM      6  C   UNL     1       1.836   3.375  18.502  0.00  0.00    +0.000 A 
ATOM      7  C   UNL     1       0.824   2.287  18.694  0.00  0.00    +0.000 C 
ATOM      8  C   UNL     1       1.829   4.487  19.326  0.00  0.00    +0.000 A 
ATOM      9  C   UNL     1       2.792   5.487  19.151  0.00  0.00    +0.000 A 
ATOM     10  C   UNL     1       3.754   5.335  18.115  0.00  0.00    +0.000 A 
ATOM     11  C   UNL     1       4.780   6.272  17.811  0.00  0.00    +0.000 A 
ENDROOT
BRANCH   9  12
ATOM     12  N   UNL     1       2.753   6.647  19.960  0.00  0.00    +0.000 N 
ATOM     13  H   UNL     1       3.316   6.599  20.800  0.00  0.00    +0.000 HD
BRANCH  12  14
ATOM     14  C   UNL     1       1.958   7.801  19.840  0.00  0.00    +0.000 A 
ATOM     15  C   UNL     1       1.925   8.505  18.636  0.00  0.00    +0.000 A 
ATOM     16  C   UNL     1       1.164   9.679  18.505  0.00  0.00    +0.000 A 
ATOM     17  C   UNL     1       0.418  10.203  19.569  0.00  0.00    +0.000 A 
ATOM     18  C   UNL     1       0.478   9.498  20.776  0.00  0.00    +0.000 A 
ATOM     19  C   UNL     1       1.232   8.323  20.913  0.00  0.00    +0.000 A 
BRANCH  17  20
ATOM     20  N   UNL     1      -0.356  11.337  19.445  0.00  0.00    +0.000 N 
ATOM     21  C   UNL     1      -0.558  12.300  20.537  0.00  0.00    +0.000 C 
ATOM     22  C   UNL     1      -2.041  12.346  20.927  0.00  0.00    +0.000 C 
ATOM     23  O   UNL     1      -2.868  12.654  19.792  0.00  0.00    +0.000 OA
ATOM     24  C   UNL     1      -2.707  11.651  18.774  0.00  0.00    +0.000 C 
ATOM     25  C   UNL     1      -1.248  11.542  18.291  0.00  0.00    +0.000 C 
ENDBRANCH  17  20
ENDBRANCH  12  14
ENDBRANCH   9  12
BRANCH   1  26
ATOM     26  O   UNL     1       6.634   7.028  16.588  0.00  0.00    +0.000 OA
BRANCH  26  28
ATOM     27  C   UNL     1       8.016   8.630  17.726  0.00  0.00    +0.000 C 
ATOM     28  C   UNL     1       7.587   7.176  17.644  0.00  0.00    +0.000 C 
ENDBRANCH  26  28
ENDBRANCH   1  26
TORSDOF 5
ENDMDL
MODEL 2
REMARK VINA RESULT:      -8.7      0.700      1.552
REMARK  Name = 
REMARK  7 active torsions:
REMARK  status: ('A' for Active; 'I' for Inactive)
REMARK    1  A    between atoms: C_1  and  C_2
REMARK    2  A    between atoms: C_2  and  O_3
REMARK    3  A    between atoms: O_3  and  C_4
REMARK    4  A    between atoms: C_9  and  C_10
REMARK    5  A    between atoms: C_12  and  N_13
REMARK    6  A    between atoms: N_13  and  C_14
REMARK    7  A    between atoms: C_17  and  N_18
REMARK                            x       y       z     vdW  Elec       q    Type
REMARK                         _______ _______ _______ _____ _____    ______ ____
ROOT
ATOM      1  C   UNL     1       5.578   6.267  16.884  0.00  0.00    +0.000 A 
ATOM      2  C   UNL     1       5.483   5.144  16.073  0.00  0.00    +0.000 A 
ATOM      3  C   UNL     1       4.511   4.177  16.331  0.00  0.00    +0.000 A 
ATOM      4  C   UNL     1       3.618   4.295  17.382  0.00  0.00    +0.000 A 
ATOM      5  N   UNL     1       2.728   3.306  17.536  0.00  0.00    +0.000 NA
ATOM      6  C   UNL     1       1.830   3.397  18.537  0.00  0.00    +0.000 A 
ATOM      7  C   UNL     1       0.855   2.270  18.692  0.00  0.00    +0.000 C 
ATOM      8  C   UNL     1       1.793   4.475  19.404  0.00  0.00    +0.000 A 
ATOM      9  C   UNL     1       2.723   5.511  19.263  0.00  0.00    +0.000 A 
ATOM     10  C   UNL     1       3.682   5.431  18.216  0.00  0.00    +0.000 A 
ATOM     11  C   UNL     1       4.675   6.412  17.943  0.00  0.00    +0.000 A 
ENDROOT
BRANCH   9  12
ATOM     12  N   UNL     1       2.652   6.638  20.117  0.00  0.00    +0.000 N 
ATOM     13  H   UNL     1       3.183   6.554  20.975  0.00  0.00    +0.000 HD
BRANCH  12  14
ATOM     14  C   UNL     1       1.863   7.796  20.014  0.00  0.00    +0.000 A 
ATOM     15  C   UNL     1       1.061   8.193  21.085  0.00  0.00    +0.000 A 
ATOM     16  C   UNL     1       0.238   9.328  20.992  0.00  0.00    +0.000 A 
ATOM     17  C   UNL     1       0.173  10.104  19.827  0.00  0.00    +0.000 A 
ATOM     18  C   UNL     1       0.967   9.682  18.754  0.00  0.00    +0.000 A 
ATOM     19  C   UNL     1       1.793   8.552  18.842  0.00  0.00    +0.000 A 
BRANCH  17  20
ATOM     20  N   UNL     1      -0.606  11.237  19.733  0.00  0.00    +0.000 N 
ATOM     21  C   UNL     1      -0.993  11.847  18.453  0.00  0.00    +0.000 C 
ATOM     22  C   UNL     1      -0.405  13.259  18.345  0.00  0.00    +0.000 C 
ATOM     23  O   UNL     1      -0.803  14.075  19.461  0.00  0.00    +0.000 OA
ATOM     24  C   UNL     1      -0.342  13.493  20.692  0.00  0.00    +0.000 C 
ATOM     25  C   UNL     1      -0.901  12.073  20.909  0.00  0.00    +0.000 C 
ENDBRANCH  17  20
ENDBRANCH  12  14
ENDBRANCH   9  12
BRANCH   1  26
ATOM     26  O   UNL     1       6.495   7.275  16.739  0.00  0.00    +0.000 OA
BRANCH  26  28
ATOM     27  C   UNL     1       8.078   8.700  17.851  0.00  0.00    +0.000 C 
ATOM     28  C   UNL     1       7.580   7.277  17.673  0.00  0.00    +0.000 C 
ENDBRANCH  26  28
ENDBRANCH   1  26
TORSDOF 5
ENDMDL
MODEL 3
REMARK VINA RESULT:      -8.4      0.389      1.039
REMARK  Name = 
REMARK  7 active torsions:
REMARK  status: ('A' for Active; 'I' for Inactive)
REMARK    1  A    between atoms: C_1  and  C_2
REMARK    2  A    between atoms: C_2  and  O_3
REMARK    3  A    between atoms: O_3  and  C_4
REMARK    4  A    between atoms: C_9  and  C_10
REMARK    5  A    between atoms: C_12  and  N_13
REMARK    6  A    between atoms: N_13  and  C_14
REMARK    7  A    between atoms: C_17  and  N_18
REMARK                            x       y       z     vdW  Elec       q    Type
REMARK                         _______ _______ _______ _____ _____    ______ ____
ROOT
ATOM      1  C   UNL     1       5.382   6.020  16.686  0.00  0.00    +0.000 A 
ATOM      2  C   UNL     1       5.235   4.849  15.954  0.00  0.00    +0.000 A 
ATOM      3  C   UNL     1       4.266   3.914  16.320  0.00  0.00    +0.000 A 
ATOM      4  C   UNL     1       3.427   4.111  17.404  0.00  0.00    +0.000 A 
ATOM      5  N   UNL     1       2.535   3.147  17.664  0.00  0.00    +0.000 NA
ATOM      6  C   UNL     1       1.689   3.314  18.699  0.00  0.00    +0.000 A 
ATOM      7  C   UNL     1       0.711   2.213  18.973  0.00  0.00    +0.000 C 
ATOM      8  C   UNL     1       1.707   4.444  19.496  0.00  0.00    +0.000 A 
ATOM      9  C   UNL     1       2.640   5.457  19.245  0.00  0.00    +0.000 A 
ATOM     10  C   UNL     1       3.545   5.297  18.160  0.00  0.00    +0.000 A 
ATOM     11  C   UNL     1       4.534   6.244  17.776  0.00  0.00    +0.000 A 
ENDROOT
BRANCH   9  12
ATOM     12  N   UNL     1       2.624   6.636  20.027  0.00  0.00    +0.000 N 
ATOM     13  H   UNL     1       3.173   6.589  20.877  0.00  0.00    +0.000 HD
BRANCH  12  14
ATOM     14  C   UNL     1       1.867   7.810  19.870  0.00  0.00    +0.000 A 
ATOM     15  C   UNL     1       1.081   8.282  20.922  0.00  0.00    +0.000 A 
ATOM     16  C   UNL     1       0.291   9.433  20.775  0.00  0.00    +0.000 A 
ATOM     17  C   UNL     1       0.243  10.153  19.573  0.00  0.00    +0.000 A 
ATOM     18  C   UNL     1       1.019   9.656  18.520  0.00  0.00    +0.000 A 
ATOM     19  C   UNL     1       1.813   8.509  18.662  0.00  0.00    +0.000 A 
BRANCH  17  20
ATOM     20  N   UNL     1      -0.505  11.302  19.426  0.00  0.00    +0.000 N 
ATOM     21  C   UNL     1      -0.715  12.271  20.511  0.00  0.00    +0.000 C 
ATOM     22  C   UNL     1      -2.205  12.349  20.864  0.00  0.00    +0.000 C 
ATOM     23  O   UNL     1      -2.998  12.670  19.707  0.00  0.00    +0.000 OA
ATOM     24  C   UNL     1      -2.831  11.662  18.696  0.00  0.00    +0.000 C 
ATOM     25  C   UNL     1      -1.363  11.522  18.250  0.00  0.00    +0.000 C 
ENDBRANCH  17  20
ENDBRANCH  12  14
ENDBRANCH   9  12
BRANCH   1  26
ATOM     26  O   UNL     1       6.302   7.003  16.433  0.00  0.00    +0.000 OA
BRANCH  26  28
ATOM     27  C   UNL     1       7.833   6.544  18.226  0.00  0.00    +0.000 C 
ATOM     28  C   UNL     1       6.936   7.582  17.578  0.00  0.00    +0.000 C 
ENDBRANCH  26  28
ENDBRANCH   1  26
TORSDOF 5
ENDMDL
MODEL 4
REMARK VINA RESULT:      -8.3      0.755      1.377
REMARK  Name = 
REMARK  7 active torsions:
REMARK  status: ('A' for Active; 'I' for Inactive)
REMARK    1  A    between atoms: C_1  and  C_2
REMARK    2  A    between atoms: C_2  and  O_3
REMARK    3  A    between atoms: O_3  and  C_4
REMARK    4  A    between atoms: C_9  and  C_10
REMARK    5  A    between atoms: C_12  and  N_13
REMARK    6  A    between atoms: N_13  and  C_14
REMARK    7  A    between atoms: C_17  and  N_18
REMARK                            x       y       z     vdW  Elec       q    Type
REMARK                         _______ _______ _______ _____ _____    ______ ____
ROOT
ATOM      1  C   UNL     1       5.570   6.095  16.774  0.00  0.00    +0.000 A 
ATOM      2  C   UNL     1       5.420   4.948  16.006  0.00  0.00    +0.000 A 
ATOM      3  C   UNL     1       4.418   4.028  16.315  0.00  0.00    +0.000 A 
ATOM      4  C   UNL     1       3.549   4.217  17.376  0.00  0.00    +0.000 A 
ATOM      5  N   UNL     1       2.626   3.267  17.582  0.00  0.00    +0.000 NA
ATOM      6  C   UNL     1       1.751   3.427  18.593  0.00  0.00    +0.000 A 
ATOM      7  C   UNL     1       0.739   2.344  18.806  0.00  0.00    +0.000 C 
ATOM      8  C   UNL     1       1.770   4.536  19.421  0.00  0.00    +0.000 A 
ATOM      9  C   UNL     1       2.734   5.531  19.227  0.00  0.00    +0.000 A 
ATOM     10  C   UNL     1       3.670   5.378  18.168  0.00  0.00    +0.000 A 
ATOM     11  C   UNL     1       4.693   6.311  17.842  0.00  0.00    +0.000 A 
ENDROOT
BRANCH   9  12
ATOM     12  N   UNL     1       2.720   6.689  20.041  0.00  0.00    +0.000 N 
ATOM     13  H   UNL     1       3.331   6.648  20.848  0.00  0.00    +0.000 HD
BRANCH  12  14
ATOM     14  C   UNL     1       1.901   7.829  19.970  0.00  0.00    +0.000 A 
ATOM     15  C   UNL     1       1.827   8.565  18.786  0.00  0.00    +0.000 A 
ATOM     16  C   UNL     1       1.041   9.726  18.704  0.00  0.00    +0.000 A 
ATOM     17  C   UNL     1       0.309  10.207  19.798  0.00  0.00    +0.000 A 
ATOM     18  C   UNL     1       0.409   9.471  20.984  0.00  0.00    +0.000 A 
ATOM     19  C   UNL     1       1.189   8.308  21.072  0.00  0.00    +0.000 A 
BRANCH  17  20
ATOM     20  N   UNL     1      -0.490  11.327  19.721  0.00  0.00    +0.000 N 
ATOM     21  C   UNL     1      -0.994  11.873  18.453  0.00  0.00    +0.000 C 
ATOM     22  C   UNL     1      -0.434  13.284  18.230  0.00  0.00    +0.000 C 
ATOM     23  O   UNL     1      -0.746  14.147  19.337  0.00  0.00    +0.000 OA
ATOM     24  C   UNL     1      -0.174  13.627  20.549  0.00  0.00    +0.000 C 
ATOM     25  C   UNL     1      -0.693  12.214  20.878  0.00  0.00    +0.000 C 
ENDBRANCH  17  20
ENDBRANCH  12  14
ENDBRANCH   9  12
BRANCH   1  26
ATOM     26  O   UNL     1       6.521   7.063  16.577  0.00  0.00    +0.000 OA
BRANCH  26  28
ATOM     27  C   UNL     1       7.713   6.043  18.396  0.00  0.00    +0.000 C 
ATOM     28  C   UNL     1       7.373   7.343  17.691  0.00  0.00    +0.000 C 
ENDBRANCH  26  28
ENDBRANCH   1  26
TORSDOF 5
ENDMDL
MODEL 5
REMARK VINA RESULT:      -8.2      1.057      1.110
REMARK  Name = 
REMARK  7 active torsions:
REMARK  status: ('A' for Active; 'I' for Inactive)
REMARK    1  A    between atoms: C_1  and  C_2
REMARK    2  A    between atoms: C_2  and  O_3
REMARK    3  A    between atoms: O_3  and  C_4
REMARK    4  A    between atoms: C_9  and  C_10
REMARK    5  A    between atoms: C_12  and  N_13
REMARK    6  A    between atoms: N_13  and  C_14
REMARK    7  A    between atoms: C_17  and  N_18
REMARK                            x       y       z     vdW  Elec       q    Type
REMARK                         _______ _______ _______ _____ _____    ______ ____
ROOT
ATOM      1  C   UNL     1       5.105   5.873  17.006  0.00  0.00    +0.000 A 
ATOM      2  C   UNL     1       5.018   4.521  16.704  0.00  0.00    +0.000 A 
ATOM      3  C   UNL     1       4.167   3.695  17.440  0.00  0.00    +0.000 A 
ATOM      4  C   UNL     1       3.389   4.180  18.477  0.00  0.00    +0.000 A 
ATOM      5  N   UNL     1       2.610   3.297  19.115  0.00  0.00    +0.000 NA
ATOM      6  C   UNL     1       1.824   3.737  20.117  0.00  0.00    +0.000 A 
ATOM      7  C   UNL     1       0.972   2.724  20.820  0.00  0.00    +0.000 C 
ATOM      8  C   UNL     1       1.791   5.064  20.506  0.00  0.00    +0.000 A 
ATOM      9  C   UNL     1       2.608   5.998  19.857  0.00  0.00    +0.000 A 
ATOM     10  C   UNL     1       3.448   5.552  18.800  0.00  0.00    +0.000 A 
ATOM     11  C   UNL     1       4.317   6.385  18.042  0.00  0.00    +0.000 A 
ENDROOT
BRANCH   9  12
ATOM     12  N   UNL     1       2.536   7.364  20.219  0.00  0.00    +0.000 N 
ATOM     13  H   UNL     1       3.221   7.658  20.905  0.00  0.00    +0.000 HD
BRANCH  12  14
ATOM     14  C   UNL     1       1.586   8.339  19.869  0.00  0.00    +0.000 A 
ATOM     15  C   UNL     1       1.582   8.882  18.583  0.00  0.00    +0.000 A 
ATOM     16  C   UNL     1       0.663   9.881  18.223  0.00  0.00    +0.000 A 
ATOM     17  C   UNL     1      -0.277  10.388  19.130  0.00  0.00    +0.000 A 
ATOM     18  C   UNL     1      -0.247   9.850  20.421  0.00  0.00    +0.000 A 
ATOM     19  C   UNL     1       0.665   8.848  20.786  0.00  0.00    +0.000 A 
BRANCH  17  20
ATOM     20  N   UNL     1      -1.204  11.347  18.780  0.00  0.00    +0.000 N 
ATOM     21  C   UNL     1      -1.537  12.496  19.633  0.00  0.00    +0.000 C 
ATOM     22  C   UNL     1      -3.010  12.428  20.053  0.00  0.00    +0.000 C 
ATOM     23  O   UNL     1      -3.875  12.352  18.907  0.00  0.00    +0.000 OA
ATOM     24  C   UNL     1      -3.577  11.176  18.136  0.00  0.00    +0.000 C 
ATOM     25  C   UNL     1      -2.118  11.161  17.641  0.00  0.00    +0.000 C 
ENDBRANCH  17  20
ENDBRANCH  12  14
ENDBRANCH   9  12
BRANCH   1  26
ATOM     26  O   UNL     1       5.911   6.778  16.366  0.00  0.00    +0.000 OA
BRANCH  26  28
ATOM     27  C   UNL     1       7.608   7.955  17.593  0.00  0.00    +0.000 C 
ATOM     28  C   UNL     1       7.296   6.751  16.724  0.00  0.00    +0.000 C 
ENDBRANCH  26  28
ENDBRANCH   1  26
TORSDOF 5
ENDMDL
MODEL 6
REMARK VINA RESULT:      -8.1      1.605      2.073
REMARK  Name = 
REMARK  7 active torsions:
REMARK  status: ('A' for Active; 'I' for Inactive)
REMARK    1  A    between atoms: C_1  and  C_2
REMARK    2  A    between atoms: C_2  and  O_3
REMARK    3  A    between atoms: O_3  and  C_4
REMARK    4  A    between atoms: C_9  and  C_10
REMARK    5  A    between atoms: C_12  and  N_13
REMARK    6  A    between atoms: N_13  and  C_14
REMARK    7  A    between atoms: C_17  and  N_18
REMARK                            x       y       z     vdW  Elec       q    Type
REMARK                         _______ _______ _______ _____ _____    ______ ____
ROOT
ATOM      1  C   UNL     1       4.939   4.975  16.748  0.00  0.00    +0.000 A 
ATOM      2  C   UNL     1       4.760   3.598  16.708  0.00  0.00    +0.000 A 
ATOM      3  C   UNL     1       3.994   2.966  17.689  0.00  0.00    +0.000 A 
ATOM      4  C   UNL     1       3.392   3.669  18.718  0.00  0.00    +0.000 A 
ATOM      5  N   UNL     1       2.681   2.959  19.603  0.00  0.00    +0.000 NA
ATOM      6  C   UNL     1       2.063   3.612  20.607  0.00  0.00    +0.000 A 
ATOM      7  C   UNL     1       1.286   2.790  21.588  0.00  0.00    +0.000 C 
ATOM      8  C   UNL     1       2.136   4.986  20.751  0.00  0.00    +0.000 A 
ATOM      9  C   UNL     1       2.884   5.742  19.841  0.00  0.00    +0.000 A 
ATOM     10  C   UNL     1       3.546   5.070  18.778  0.00  0.00    +0.000 A 
ATOM     11  C   UNL     1       4.327   5.705  17.773  0.00  0.00    +0.000 A 
ENDROOT
BRANCH   9  12
ATOM     12  N   UNL     1       2.914   7.152  19.959  0.00  0.00    +0.000 N 
ATOM     13  H   UNL     1       3.692   7.516  20.496  0.00  0.00    +0.000 HD
BRANCH  12  14
ATOM     14  C   UNL     1       1.969   8.110  19.553  0.00  0.00    +0.000 A 
ATOM     15  C   UNL     1       1.080   8.652  20.482  0.00  0.00    +0.000 A 
ATOM     16  C   UNL     1       0.105   9.585  20.091  0.00  0.00    +0.000 A 
ATOM     17  C   UNL     1      -0.031  10.004  18.761  0.00  0.00    +0.000 A 
ATOM     18  C   UNL     1       0.853   9.436  17.837  0.00  0.00    +0.000 A 
ATOM     19  C   UNL     1       1.831   8.507  18.221  0.00  0.00    +0.000 A 
BRANCH  17  20
ATOM     20  N   UNL     1      -0.964  10.942  18.371  0.00  0.00    +0.000 N 
ATOM     21  C   UNL     1      -1.243  12.167  19.132  0.00  0.00    +0.000 C 
ATOM     22  C   UNL     1      -2.694  12.158  19.628  0.00  0.00    +0.000 C 
ATOM     23  O   UNL     1      -3.615  11.994  18.536  0.00  0.00    +0.000 OA
ATOM     24  C   UNL     1      -3.367  10.750  17.859  0.00  0.00    +0.000 C 
ATOM     25  C   UNL     1      -1.935  10.668  17.298  0.00  0.00    +0.000 C 
ENDBRANCH  17  20
ENDBRANCH  12  14
ENDBRANCH   9  12
BRANCH   1  26
ATOM     26  O   UNL     1       5.677   5.705  15.853  0.00  0.00    +0.000 OA
BRANCH  26  28
ATOM     27  C   UNL     1       6.648   4.714  13.892  0.00  0.00    +0.000 C 
ATOM     28  C   UNL     1       6.859   5.075  15.351  0.00  0.00    +0.000 C 
ENDBRANCH  26  28
ENDBRANCH   1  26
TORSDOF 5
ENDMDL
MODEL 7
REMARK VINA RESULT:      -8.1      1.823      2.176
REMARK  Name = 
REMARK  7 active torsions:
REMARK  status: ('A' for Active; 'I' for Inactive)
REMARK    1  A    between atoms: C_1  and  C_2
REMARK    2  A    between atoms: C_2  and  O_3
REMARK    3  A    between atoms: O_3  and  C_4
REMARK    4  A    between atoms: C_9  and  C_10
REMARK    5  A    between atoms: C_12  and  N_13
REMARK    6  A    between atoms: N_13  and  C_14
REMARK    7  A    between atoms: C_17  and  N_18
REMARK                            x       y       z     vdW  Elec       q    Type
REMARK                         _______ _______ _______ _____ _____    ______ ____
ROOT
ATOM      1  C   UNL     1       4.480   4.144  16.687  0.00  0.00    +0.000 A 
ATOM      2  C   UNL     1       4.167   2.793  16.746  0.00  0.00    +0.000 A 
ATOM      3  C   UNL     1       3.467   2.286  17.842  0.00  0.00    +0.000 A 
ATOM      4  C   UNL     1       3.061   3.092  18.891  0.00  0.00    +0.000 A 
ATOM      5  N   UNL     1       2.396   2.498  19.891  0.00  0.00    +0.000 NA
ATOM      6  C   UNL     1       1.968   3.256  20.920  0.00  0.00    +0.000 A 
ATOM      7  C   UNL     1       1.239   2.562  22.029  0.00  0.00    +0.000 C 
ATOM      8  C   UNL     1       2.188   4.620  20.977  0.00  0.00    +0.000 A 
ATOM      9  C   UNL     1       2.891   5.255  19.947  0.00  0.00    +0.000 A 
ATOM     10  C   UNL     1       3.355   4.472  18.854  0.00  0.00    +0.000 A 
ATOM     11  C   UNL     1       4.067   4.978  17.732  0.00  0.00    +0.000 A 
ENDROOT
BRANCH   9  12
ATOM     12  N   UNL     1       3.070   6.658  19.980  0.00  0.00    +0.000 N 
ATOM     13  H   UNL     1       3.941   6.965  20.395  0.00  0.00    +0.000 HD
BRANCH  12  14
ATOM     14  C   UNL     1       2.175   7.688  19.641  0.00  0.00    +0.000 A 
ATOM     15  C   UNL     1       2.094   8.138  18.322  0.00  0.00    +0.000 A 
ATOM     16  C   UNL     1       1.232   9.189  17.968  0.00  0.00    +0.000 A 
ATOM     17  C   UNL     1       0.426   9.839  18.913  0.00  0.00    +0.000 A 
ATOM     18  C   UNL     1       0.534   9.391  20.234  0.00  0.00    +0.000 A 
ATOM     19  C   UNL     1       1.390   8.340  20.593  0.00  0.00    +0.000 A 
BRANCH  17  20
ATOM     20  N   UNL     1      -0.446  10.850  18.572  0.00  0.00    +0.000 N 
ATOM     21  C   UNL     1      -0.539  12.118  19.310  0.00  0.00    +0.000 C 
ATOM     22  C   UNL     1      -1.933  12.263  19.932  0.00  0.00    +0.000 C 
ATOM     23  O   UNL     1      -2.962  12.157  18.932  0.00  0.00    +0.000 OA
ATOM     24  C   UNL     1      -2.894  10.876  18.283  0.00  0.00    +0.000 C 
ATOM     25  C   UNL     1      -1.532  10.642  17.601  0.00  0.00    +0.000 C 
ENDBRANCH  17  20
ENDBRANCH  12  14
ENDBRANCH   9  12
BRANCH   1  26
ATOM     26  O   UNL     1       5.172   4.755  15.674  0.00  0.00    +0.000 OA
BRANCH  26  28
ATOM     27  C   UNL     1       6.314   3.972  13.711  0.00  0.00    +0.000 C 
ATOM     28  C   UNL     1       6.352   4.082  15.224  0.00  0.00    +0.000 C 
ENDBRANCH  26  28
ENDBRANCH   1  26
TORSDOF 5
ENDMDL
MODEL 8
REMARK VINA RESULT:      -8.0      1.245      1.389
REMARK  Name = 
REMARK  7 active torsions:
REMARK  status: ('A' for Active; 'I' for Inactive)
REMARK    1  A    between atoms: C_1  and  C_2
REMARK    2  A    between atoms: C_2  and  O_3
REMARK    3  A    between atoms: O_3  and  C_4
REMARK    4  A    between atoms: C_9  and  C_10
REMARK    5  A    between atoms: C_12  and  N_13
REMARK    6  A    between atoms: N_13  and  C_14
REMARK    7  A    between atoms: C_17  and  N_18
REMARK                            x       y       z     vdW  Elec       q    Type
REMARK                         _______ _______ _______ _____ _____    ______ ____
ROOT
ATOM      1  C   UNL     1       7.073   6.107  18.111  0.00  0.00    +0.000 A 
ATOM      2  C   UNL     1       7.329   5.038  17.262  0.00  0.00    +0.000 A 
ATOM      3  C   UNL     1       6.357   4.056  17.064  0.00  0.00    +0.000 A 
ATOM      4  C   UNL     1       5.123   4.107  17.689  0.00  0.00    +0.000 A 
ATOM      5  N   UNL     1       4.268   3.110  17.426  0.00  0.00    +0.000 NA
ATOM      6  C   UNL     1       3.050   3.137  18.002  0.00  0.00    +0.000 A 
ATOM      7  C   UNL     1       2.120   2.002  17.699  0.00  0.00    +0.000 C 
ATOM      8  C   UNL     1       2.653   4.156  18.849  0.00  0.00    +0.000 A 
ATOM      9  C   UNL     1       3.539   5.200  19.143  0.00  0.00    +0.000 A 
ATOM     10  C   UNL     1       4.830   5.187  18.549  0.00  0.00    +0.000 A 
ATOM     11  C   UNL     1       5.827   6.183  18.742  0.00  0.00    +0.000 A 
ENDROOT
BRANCH   9  12
ATOM     12  N   UNL     1       3.114   6.269  19.967  0.00  0.00    +0.000 N 
ATOM     13  H   UNL     1       3.305   6.146  20.954  0.00  0.00    +0.000 HD
BRANCH  12  14
ATOM     14  C   UNL     1       2.360   7.410  19.643  0.00  0.00    +0.000 A 
ATOM     15  C   UNL     1       2.418   7.945  18.355  0.00  0.00    +0.000 A 
ATOM     16  C   UNL     1       1.700   9.104  18.020  0.00  0.00    +0.000 A 
ATOM     17  C   UNL     1       0.907   9.783  18.955  0.00  0.00    +0.000 A 
ATOM     18  C   UNL     1       0.876   9.248  20.247  0.00  0.00    +0.000 A 
ATOM     19  C   UNL     1       1.587   8.089  20.588  0.00  0.00    +0.000 A 
BRANCH  17  20
ATOM     20  N   UNL     1       0.174  10.904  18.629  0.00  0.00    +0.000 N 
ATOM     21  C   UNL     1       0.683  12.274  18.783  0.00  0.00    +0.000 C 
ATOM     22  C   UNL     1      -0.169  13.039  19.803  0.00  0.00    +0.000 C 
ATOM     23  O   UNL     1      -1.558  13.031  19.430  0.00  0.00    +0.000 OA
ATOM     24  C   UNL     1      -2.047  11.681  19.365  0.00  0.00    +0.000 C 
ATOM     25  C   UNL     1      -1.269  10.830  18.343  0.00  0.00    +0.000 C 
ENDBRANCH  17  20
ENDBRANCH  12  14
ENDBRANCH   9  12
BRANCH   1  26
ATOM     26  O   UNL     1       7.949   7.121  18.394  0.00  0.00    +0.000 OA
BRANCH  26  28
ATOM     27  C   UNL     1       8.510   9.456  18.310  0.00  0.00    +0.000 C 
ATOM     28  C   UNL     1       7.818   8.306  17.602  0.00  0.00    +0.000 C 
ENDBRANCH  26  28
ENDBRANCH   1  26
TORSDOF 5
ENDMDL
MODEL 9
REMARK VINA RESULT:      -7.9      1.108      1.543
REMARK  Name = 
REMARK  7 active torsions:
REMARK  status: ('A' for Active; 'I' for Inactive)
REMARK    1  A    between atoms: C_1  and  C_2
REMARK    2  A    between atoms: C_2  and  O_3
REMARK    3  A    between atoms: O_3  and  C_4
REMARK    4  A    between atoms: C_9  and  C_10
REMARK    5  A    between atoms: C_12  and  N_13
REMARK    6  A    between atoms: N_13  and  C_14
REMARK    7  A    between atoms: C_17  and  N_18
REMARK                            x       y       z     vdW  Elec       q    Type
REMARK                         _______ _______ _______ _____ _____    ______ ____
ROOT
ATOM      1  C   UNL     1       6.142   5.559  18.350  0.00  0.00    +0.000 A 
ATOM      2  C   UNL     1       6.149   4.395  17.593  0.00  0.00    +0.000 A 
ATOM      3  C   UNL     1       5.024   3.568  17.575  0.00  0.00    +0.000 A 
ATOM      4  C   UNL     1       3.879   3.869  18.292  0.00  0.00    +0.000 A 
ATOM      5  N   UNL     1       2.861   3.004  18.201  0.00  0.00    +0.000 NA
ATOM      6  C   UNL     1       1.723   3.274  18.869  0.00  0.00    +0.000 A 
ATOM      7  C   UNL     1       0.606   2.282  18.758  0.00  0.00    +0.000 C 
ATOM      8  C   UNL     1       1.570   4.413  19.640  0.00  0.00    +0.000 A 
ATOM      9  C   UNL     1       2.628   5.322  19.755  0.00  0.00    +0.000 A 
ATOM     10  C   UNL     1       3.838   5.051  19.061  0.00  0.00    +0.000 A 
ATOM     11  C   UNL     1       4.988   5.888  19.071  0.00  0.00    +0.000 A 
ENDROOT
BRANCH   9  12
ATOM     12  N   UNL     1       2.452   6.512  20.501  0.00  0.00    +0.000 N 
ATOM     13  H   UNL     1       2.716   6.444  21.476  0.00  0.00    +0.000 HD
BRANCH  12  14
ATOM     14  C   UNL     1       1.854   7.728  20.128  0.00  0.00    +0.000 A 
ATOM     15  C   UNL     1       1.021   8.401  21.022  0.00  0.00    +0.000 A 
ATOM     16  C   UNL     1       0.387   9.600  20.657  0.00  0.00    +0.000 A 
ATOM     17  C   UNL     1       0.546  10.169  19.386  0.00  0.00    +0.000 A 
ATOM     18  C   UNL     1       1.367   9.471  18.493  0.00  0.00    +0.000 A 
ATOM     19  C   UNL     1       2.007   8.276  18.852  0.00  0.00    +0.000 A 
BRANCH  17  20
ATOM     20  N   UNL     1      -0.046  11.360  19.027  0.00  0.00    +0.000 N 
ATOM     21  C   UNL     1       0.714  12.587  18.747  0.00  0.00    +0.000 C 
ATOM     22  C   UNL     1       0.345  13.676  19.762  0.00  0.00    +0.000 C 
ATOM     23  O   UNL     1      -1.071  13.922  19.769  0.00  0.00    +0.000 OA
ATOM     24  C   UNL     1      -1.782  12.724  20.123  0.00  0.00    +0.000 C 
ATOM     25  C   UNL     1      -1.499  11.569  19.144  0.00  0.00    +0.000 C 
ENDBRANCH  17  20
ENDBRANCH  12  14
ENDBRANCH   9  12
BRANCH   1  26
ATOM     26  O   UNL     1       7.185   6.441  18.458  0.00  0.00    +0.000 OA
BRANCH  26  28
ATOM     27  C   UNL     1       7.952   8.608  17.760  0.00  0.00    +0.000 C 
ATOM     28  C   UNL     1       7.447   7.250  17.307  0.00  0.00    +0.000 C 
ENDBRANCH  26  28
ENDBRANCH   1  26
TORSDOF 5
ENDMDL
