MODEL 1
REMARK VINA RESULT:      -8.5      0.000      0.000
REMARK  Name = 
REMARK  5 active torsions:
REMARK  status: ('A' for Active; 'I' for Inactive)
REMARK    1  A    between atoms: C_1  and  O_2
REMARK    2  A    between atoms: O_2  and  C_3
REMARK    3  A    between atoms: C_7  and  C_8
REMARK    4  A    between atoms: C_8  and  C_9
REMARK    5  A    between atoms: C_14  and  C_15
REMARK                            x       y       z     vdW  Elec       q    Type
REMARK                         _______ _______ _______ _____ _____    ______ ____
ROOT
ATOM      1  C   UNL     1       2.736   5.634  19.287  0.00  0.00    +0.000 C 
ATOM      2  O   UNL     1       2.167   5.491  20.366  0.00  0.00    +0.000 OA
ATOM      3  N   UNL     1       2.786   6.784  18.519  0.00  0.00    +0.000 N 
ATOM      4  C   UNL     1       2.163   7.921  18.952  0.00  0.00    +0.000 A 
ATOM      5  N   UNL     1       1.680   8.153  20.138  0.00  0.00    +0.000 NA
ATOM      6  C   UNL     1       0.978   9.335  20.146  0.00  0.00    +0.000 A 
ATOM      7  C   UNL     1       1.017  10.034  18.955  0.00  0.00    +0.000 A 
ATOM      8  S   UNL     1       1.966   9.165  17.804  0.00  0.00    +0.000 S 
ATOM      9  H   UNL     1       3.112   6.764  17.564  0.00  0.00    +0.000 HD
ENDROOT
BRANCH   6  10
ATOM     10  C   UNL     1       0.259   9.681  21.372  0.00  0.00    +0.000 A 
ATOM     11  C   UNL     1       0.375   9.085  22.613  0.00  0.00    +0.000 A 
ATOM     12  N   UNL     1      -0.456   9.755  23.476  0.00  0.00    +0.000 N 
ATOM     13  C   UNL     1      -1.110  10.757  22.816  0.00  0.00    +0.000 A 
ATOM     14  N   UNL     1      -2.000  11.587  23.395  0.00  0.00    +0.000 NA
ATOM     15  C   UNL     1      -2.501  12.501  22.533  0.00  0.00    +0.000 A 
ATOM     16  C   UNL     1      -2.172  12.617  21.191  0.00  0.00    +0.000 A 
ATOM     17  C   UNL     1      -1.249  11.726  20.646  0.00  0.00    +0.000 A 
ATOM     18  C   UNL     1      -0.689  10.747  21.493  0.00  0.00    +0.000 A 
ATOM     19  H   UNL     1      -0.581   9.568  24.459  0.00  0.00    +0.000 HD
ENDBRANCH   6  10
BRANCH   1  20
ATOM     20  C   UNL     1       3.466   4.462  18.665  0.00  0.00    +0.000 C 
BRANCH  20  25
ATOM     21  C   UNL     1       6.763   4.827  16.791  0.00  0.00    +0.000 A 
ATOM     22  C   UNL     1       7.597   5.312  17.799  0.00  0.00    +0.000 A 
ATOM     23  C   UNL     1       7.105   5.516  19.091  0.00  0.00    +0.000 A 
ATOM     24  C   UNL     1       5.772   5.229  19.380  0.00  0.00    +0.000 A 
ATOM     25  C   UNL     1       4.921   4.737  18.382  0.00  0.00    +0.000 A 
ATOM     26  C   UNL     1       5.426   4.547  17.084  0.00  0.00    +0.000 A 
BRANCH  21  28
ATOM     27  C   UNL     1       6.540   4.203  14.510  0.00  0.00    +0.000 C 
ATOM     28  O   UNL     1       7.363   4.665  15.574  0.00  0.00    +0.000 OA
ENDBRANCH  21  28
ENDBRANCH  20  25
ENDBRANCH   1  20
TORSDOF 4
ENDMDL
MODEL 2
REMARK VINA RESULT:      -8.4      2.429      4.483
REMARK  Name = 
REMARK  5 active torsions:
REMARK  status: ('A' for Active; 'I' for Inactive)
REMARK    1  A    between atoms: C_1  and  O_2
REMARK    2  A    between atoms: O_2  and  C_3
REMARK    3  A    between atoms: C_7  and  C_8
REMARK    4  A    between atoms: C_8  and  C_9
REMARK    5  A    between atoms: C_14  and  C_15
REMARK                            x       y       z     vdW  Elec       q    Type
REMARK                         _______ _______ _______ _____ _____    ______ ____
ROOT
ATOM      1  C   UNL     1       6.007   5.555  16.705  0.00  0.00    +0.000 C 
ATOM      2  O   UNL     1       5.856   6.734  16.394  0.00  0.00    +0.000 OA
ATOM      3  N   UNL     1       5.227   4.819  17.578  0.00  0.00    +0.000 N 
ATOM      4  C   UNL     1       4.153   5.401  18.190  0.00  0.00    +0.000 A 
ATOM      5  N   UNL     1       3.605   6.546  17.901  0.00  0.00    +0.000 NA
ATOM      6  C   UNL     1       2.659   6.875  18.842  0.00  0.00    +0.000 A 
ATOM      7  C   UNL     1       2.445   5.908  19.804  0.00  0.00    +0.000 A 
ATOM      8  S   UNL     1       3.472   4.553  19.502  0.00  0.00    +0.000 S 
ATOM      9  H   UNL     1       5.529   3.919  17.920  0.00  0.00    +0.000 HD
ENDROOT
BRANCH   6  10
ATOM     10  C   UNL     1       2.038   8.196  18.736  0.00  0.00    +0.000 A 
ATOM     11  C   UNL     1       1.991   9.018  17.627  0.00  0.00    +0.000 A 
ATOM     12  N   UNL     1       1.276  10.139  17.969  0.00  0.00    +0.000 N 
ATOM     13  C   UNL     1       0.874  10.060  19.272  0.00  0.00    +0.000 A 
ATOM     14  N   UNL     1       0.159  11.013  19.901  0.00  0.00    +0.000 NA
ATOM     15  C   UNL     1      -0.124  10.696  21.185  0.00  0.00    +0.000 A 
ATOM     16  C   UNL     1       0.257   9.532  21.835  0.00  0.00    +0.000 A 
ATOM     17  C   UNL     1       1.001   8.583  21.136  0.00  0.00    +0.000 A 
ATOM     18  C   UNL     1       1.329   8.855  19.791  0.00  0.00    +0.000 A 
ATOM     19  H   UNL     1       1.053  10.918  17.368  0.00  0.00    +0.000 HD
ENDBRANCH   6  10
BRANCH   1  20
ATOM     20  C   UNL     1       7.162   4.769  16.119  0.00  0.00    +0.000 C 
BRANCH  20  25
ATOM     21  C   UNL     1       6.079   3.545  12.678  0.00  0.00    +0.000 A 
ATOM     22  C   UNL     1       6.861   4.345  11.845  0.00  0.00    +0.000 A 
ATOM     23  C   UNL     1       7.750   5.278  12.386  0.00  0.00    +0.000 A 
ATOM     24  C   UNL     1       7.861   5.409  13.769  0.00  0.00    +0.000 A 
ATOM     25  C   UNL     1       7.087   4.611  14.621  0.00  0.00    +0.000 A 
ATOM     26  C   UNL     1       6.190   3.685  14.063  0.00  0.00    +0.000 A 
BRANCH  21  28
ATOM     27  C   UNL     1       4.172   3.230  11.298  0.00  0.00    +0.000 C 
ATOM     28  O   UNL     1       5.255   2.668  12.027  0.00  0.00    +0.000 OA
ENDBRANCH  21  28
ENDBRANCH  20  25
ENDBRANCH   1  20
TORSDOF 4
ENDMDL
MODEL 3
REMARK VINA RESULT:      -8.3      2.987      9.124
REMARK  Name = 
REMARK  5 active torsions:
REMARK  status: ('A' for Active; 'I' for Inactive)
REMARK    1  A    between atoms: C_1  and  O_2
REMARK    2  A    between atoms: O_2  and  C_3
REMARK    3  A    between atoms: C_7  and  C_8
REMARK    4  A    between atoms: C_8  and  C_9
REMARK    5  A    between atoms: C_14  and  C_15
REMARK                            x       y       z     vdW  Elec       q    Type
REMARK                         _______ _______ _______ _____ _____    ______ ____
ROOT
ATOM      1  C   UNL     1       1.584   7.371  20.434  0.00  0.00    +0.000 C 
ATOM      2  O   UNL     1       2.330   8.026  19.711  0.00  0.00    +0.000 OA
ATOM      3  N   UNL     1       1.697   6.029  20.748  0.00  0.00    +0.000 N 
ATOM      4  C   UNL     1       2.731   5.294  20.237  0.00  0.00    +0.000 A 
ATOM      5  N   UNL     1       3.795   5.741  19.636  0.00  0.00    +0.000 NA
ATOM      6  C   UNL     1       4.522   4.699  19.112  0.00  0.00    +0.000 A 
ATOM      7  C   UNL     1       4.024   3.445  19.408  0.00  0.00    +0.000 A 
ATOM      8  S   UNL     1       2.600   3.600  20.372  0.00  0.00    +0.000 S 
ATOM      9  H   UNL     1       0.943   5.528  21.192  0.00  0.00    +0.000 HD
ENDROOT
BRANCH   6  10
ATOM     10  C   UNL     1       5.685   5.037  18.290  0.00  0.00    +0.000 A 
ATOM     11  C   UNL     1       6.881   5.585  18.710  0.00  0.00    +0.000 A 
ATOM     12  N   UNL     1       7.696   5.696  17.610  0.00  0.00    +0.000 N 
ATOM     13  C   UNL     1       7.047   5.243  16.497  0.00  0.00    +0.000 A 
ATOM     14  N   UNL     1       7.586   5.230  15.261  0.00  0.00    +0.000 NA
ATOM     15  C   UNL     1       6.747   4.724  14.328  0.00  0.00    +0.000 A 
ATOM     16  C   UNL     1       5.462   4.258  14.561  0.00  0.00    +0.000 A 
ATOM     17  C   UNL     1       4.955   4.301  15.859  0.00  0.00    +0.000 A 
ATOM     18  C   UNL     1       5.781   4.818  16.879  0.00  0.00    +0.000 A 
ATOM     19  H   UNL     1       8.643   6.044  17.594  0.00  0.00    +0.000 HD
ENDBRANCH   6  10
BRANCH   1  20
ATOM     20  C   UNL     1       0.381   8.038  21.069  0.00  0.00    +0.000 C 
BRANCH  20  25
ATOM     21  C   UNL     1       0.670  11.834  20.924  0.00  0.00    +0.000 A 
ATOM     22  C   UNL     1      -0.102  12.123  19.798  0.00  0.00    +0.000 A 
ATOM     23  C   UNL     1      -0.729  11.099  19.084  0.00  0.00    +0.000 A 
ATOM     24  C   UNL     1      -0.587   9.776  19.500  0.00  0.00    +0.000 A 
ATOM     25  C   UNL     1       0.181   9.467  20.630  0.00  0.00    +0.000 A 
ATOM     26  C   UNL     1       0.814  10.507  21.332  0.00  0.00    +0.000 A 
BRANCH  21  28
ATOM     27  C   UNL     1       1.755  13.935  20.691  0.00  0.00    +0.000 C 
ATOM     28  O   UNL     1       1.225  12.923  21.538  0.00  0.00    +0.000 OA
ENDBRANCH  21  28
ENDBRANCH  20  25
ENDBRANCH   1  20
TORSDOF 4
ENDMDL
MODEL 4
REMARK VINA RESULT:      -8.3      2.960      9.083
REMARK  Name = 
REMARK  5 active torsions:
REMARK  status: ('A' for Active; 'I' for Inactive)
REMARK    1  A    between atoms: C_1  and  O_2
REMARK    2  A    between atoms: O_2  and  C_3
REMARK    3  A    between atoms: C_7  and  C_8
REMARK    4  A    between atoms: C_8  and  C_9
REMARK    5  A    between atoms: C_14  and  C_15
REMARK                            x       y       z     vdW  Elec       q    Type
REMARK                         _______ _______ _______ _____ _____    ______ ____
ROOT
ATOM      1  C   UNL     1       1.619   7.342  20.508  0.00  0.00    +0.000 C 
ATOM      2  O   UNL     1       2.350   8.016  19.787  0.00  0.00    +0.000 OA
ATOM      3  N   UNL     1       1.745   5.995  20.792  0.00  0.00    +0.000 N 
ATOM      4  C   UNL     1       2.774   5.276  20.251  0.00  0.00    +0.000 A 
ATOM      5  N   UNL     1       3.826   5.742  19.642  0.00  0.00    +0.000 NA
ATOM      6  C   UNL     1       4.551   4.715  19.086  0.00  0.00    +0.000 A 
ATOM      7  C   UNL     1       4.064   3.452  19.363  0.00  0.00    +0.000 A 
ATOM      8  S   UNL     1       2.655   3.579  20.353  0.00  0.00    +0.000 S 
ATOM      9  H   UNL     1       1.000   5.480  21.238  0.00  0.00    +0.000 HD
ENDROOT
BRANCH   6  10
ATOM     10  C   UNL     1       5.698   5.077  18.252  0.00  0.00    +0.000 A 
ATOM     11  C   UNL     1       6.878   5.671  18.657  0.00  0.00    +0.000 A 
ATOM     12  N   UNL     1       7.684   5.790  17.552  0.00  0.00    +0.000 N 
ATOM     13  C   UNL     1       7.047   5.295  16.450  0.00  0.00    +0.000 A 
ATOM     14  N   UNL     1       7.581   5.277  15.213  0.00  0.00    +0.000 NA
ATOM     15  C   UNL     1       6.756   4.727  14.293  0.00  0.00    +0.000 A 
ATOM     16  C   UNL     1       5.488   4.222  14.540  0.00  0.00    +0.000 A 
ATOM     17  C   UNL     1       4.985   4.272  15.838  0.00  0.00    +0.000 A 
ATOM     18  C   UNL     1       5.797   4.835  16.845  0.00  0.00    +0.000 A 
ATOM     19  H   UNL     1       8.619   6.169  17.526  0.00  0.00    +0.000 HD
ENDBRANCH   6  10
BRANCH   1  20
ATOM     20  C   UNL     1       0.423   7.990  21.176  0.00  0.00    +0.000 C 
BRANCH  20  25
ATOM     21  C   UNL     1      -0.798  10.995  19.179  0.00  0.00    +0.000 A 
ATOM     22  C   UNL     1      -0.329  12.051  19.961  0.00  0.00    +0.000 A 
ATOM     23  C   UNL     1       0.392  11.802  21.131  0.00  0.00    +0.000 A 
ATOM     24  C   UNL     1       0.650  10.490  21.522  0.00  0.00    +0.000 A 
ATOM     25  C   UNL     1       0.191   9.416  20.747  0.00  0.00    +0.000 A 
ATOM     26  C   UNL     1      -0.542   9.681  19.578  0.00  0.00    +0.000 A 
BRANCH  21  28
ATOM     27  C   UNL     1      -2.881  11.588  18.203  0.00  0.00    +0.000 C 
ATOM     28  O   UNL     1      -1.484  11.369  18.056  0.00  0.00    +0.000 OA
ENDBRANCH  21  28
ENDBRANCH  20  25
ENDBRANCH   1  20
TORSDOF 4
ENDMDL
MODEL 5
REMARK VINA RESULT:      -8.2      1.165      1.797
REMARK  Name = 
REMARK  5 active torsions:
REMARK  status: ('A' for Active; 'I' for Inactive)
REMARK    1  A    between atoms: C_1  and  O_2
REMARK    2  A    between atoms: O_2  and  C_3
REMARK    3  A    between atoms: C_7  and  C_8
REMARK    4  A    between atoms: C_8  and  C_9
REMARK    5  A    between atoms: C_14  and  C_15
REMARK                            x       y       z     vdW  Elec       q    Type
REMARK                         _______ _______ _______ _____ _____    ______ ____
ROOT
ATOM      1  C   UNL     1       2.375   5.195  19.568  0.00  0.00    +0.000 C 
ATOM      2  O   UNL     1       1.716   5.186  20.604  0.00  0.00    +0.000 OA
ATOM      3  N   UNL     1       2.626   6.283  18.751  0.00  0.00    +0.000 N 
ATOM      4  C   UNL     1       2.121   7.511  19.076  0.00  0.00    +0.000 A 
ATOM      5  N   UNL     1       1.585   7.869  20.207  0.00  0.00    +0.000 NA
ATOM      6  C   UNL     1       1.039   9.125  20.101  0.00  0.00    +0.000 A 
ATOM      7  C   UNL     1       1.252   9.743  18.884  0.00  0.00    +0.000 A 
ATOM      8  S   UNL     1       2.166   8.700  17.856  0.00  0.00    +0.000 S 
ATOM      9  H   UNL     1       3.015   6.167  17.828  0.00  0.00    +0.000 HD
ENDROOT
BRANCH   6  10
ATOM     10  C   UNL     1       0.281   9.628  21.247  0.00  0.00    +0.000 A 
ATOM     11  C   UNL     1      -0.270   8.893  22.279  0.00  0.00    +0.000 A 
ATOM     12  N   UNL     1      -0.856   9.775  23.152  0.00  0.00    +0.000 N 
ATOM     13  C   UNL     1      -0.703  11.055  22.700  0.00  0.00    +0.000 A 
ATOM     14  N   UNL     1      -1.177  12.143  23.337  0.00  0.00    +0.000 NA
ATOM     15  C   UNL     1      -0.888  13.297  22.693  0.00  0.00    +0.000 A 
ATOM     16  C   UNL     1      -0.186  13.406  21.502  0.00  0.00    +0.000 A 
ATOM     17  C   UNL     1       0.276  12.245  20.885  0.00  0.00    +0.000 A 
ATOM     18  C   UNL     1       0.006  11.008  21.507  0.00  0.00    +0.000 A 
ATOM     19  H   UNL     1      -1.326   9.547  24.015  0.00  0.00    +0.000 HD
ENDBRANCH   6  10
BRANCH   1  20
ATOM     20  C   UNL     1       2.996   3.908  19.064  0.00  0.00    +0.000 C 
BRANCH  20  25
ATOM     21  C   UNL     1       6.608   4.717  18.164  0.00  0.00    +0.000 A 
ATOM     22  C   UNL     1       6.615   4.444  16.795  0.00  0.00    +0.000 A 
ATOM     23  C   UNL     1       5.455   4.007  16.152  0.00  0.00    +0.000 A 
ATOM     24  C   UNL     1       4.277   3.845  16.879  0.00  0.00    +0.000 A 
ATOM     25  C   UNL     1       4.249   4.118  18.253  0.00  0.00    +0.000 A 
ATOM     26  C   UNL     1       5.427   4.547  18.889  0.00  0.00    +0.000 A 
BRANCH  21  28
ATOM     27  C   UNL     1       8.016   6.548  18.717  0.00  0.00    +0.000 C 
ATOM     28  O   UNL     1       7.803   5.143  18.673  0.00  0.00    +0.000 OA
ENDBRANCH  21  28
ENDBRANCH  20  25
ENDBRANCH   1  20
TORSDOF 4
ENDMDL
MODEL 6
REMARK VINA RESULT:      -8.2      2.945      3.740
REMARK  Name = 
REMARK  5 active torsions:
REMARK  status: ('A' for Active; 'I' for Inactive)
REMARK    1  A    between atoms: C_1  and  O_2
REMARK    2  A    between atoms: O_2  and  C_3
REMARK    3  A    between atoms: C_7  and  C_8
REMARK    4  A    between atoms: C_8  and  C_9
REMARK    5  A    between atoms: C_14  and  C_15
REMARK                            x       y       z     vdW  Elec       q    Type
REMARK                         _______ _______ _______ _____ _____    ______ ____
ROOT
ATOM      1  C   UNL     1       2.594   6.870  19.213  0.00  0.00    +0.000 C 
ATOM      2  O   UNL     1       2.296   7.336  18.117  0.00  0.00    +0.000 OA
ATOM      3  N   UNL     1       2.207   7.347  20.453  0.00  0.00    +0.000 N 
ATOM      4  C   UNL     1       1.402   8.448  20.539  0.00  0.00    +0.000 A 
ATOM      5  N   UNL     1       0.742   9.020  19.573  0.00  0.00    +0.000 NA
ATOM      6  C   UNL     1       0.184  10.199  20.008  0.00  0.00    +0.000 A 
ATOM      7  C   UNL     1       0.367  10.460  21.352  0.00  0.00    +0.000 A 
ATOM      8  S   UNL     1       1.270   9.177  22.073  0.00  0.00    +0.000 S 
ATOM      9  H   UNL     1       2.646   7.022  21.301  0.00  0.00    +0.000 HD
ENDROOT
BRANCH   6  10
ATOM     10  C   UNL     1      -0.485  11.034  19.009  0.00  0.00    +0.000 A 
ATOM     11  C   UNL     1      -0.124  12.301  18.595  0.00  0.00    +0.000 A 
ATOM     12  N   UNL     1      -1.008  12.687  17.618  0.00  0.00    +0.000 N 
ATOM     13  C   UNL     1      -1.931  11.703  17.404  0.00  0.00    +0.000 A 
ATOM     14  N   UNL     1      -2.934  11.790  16.509  0.00  0.00    +0.000 NA
ATOM     15  C   UNL     1      -3.708  10.680  16.478  0.00  0.00    +0.000 A 
ATOM     16  C   UNL     1      -3.534   9.549  17.262  0.00  0.00    +0.000 A 
ATOM     17  C   UNL     1      -2.482   9.519  18.175  0.00  0.00    +0.000 A 
ATOM     18  C   UNL     1      -1.638  10.646  18.256  0.00  0.00    +0.000 A 
ATOM     19  H   UNL     1      -0.998  13.556  17.105  0.00  0.00    +0.000 HD
ENDBRANCH   6  10
BRANCH   1  20
ATOM     20  C   UNL     1       3.492   5.652  19.290  0.00  0.00    +0.000 C 
BRANCH  20  25
ATOM     21  C   UNL     1       6.404   6.138  16.883  0.00  0.00    +0.000 A 
ATOM     22  C   UNL     1       6.132   5.162  15.925  0.00  0.00    +0.000 A 
ATOM     23  C   UNL     1       5.003   4.347  16.042  0.00  0.00    +0.000 A 
ATOM     24  C   UNL     1       4.137   4.511  17.122  0.00  0.00    +0.000 A 
ATOM     25  C   UNL     1       4.392   5.489  18.092  0.00  0.00    +0.000 A 
ATOM     26  C   UNL     1       5.537   6.294  17.967  0.00  0.00    +0.000 A 
BRANCH  21  28
ATOM     27  C   UNL     1       7.810   7.927  17.567  0.00  0.00    +0.000 C 
ATOM     28  O   UNL     1       7.534   6.874  16.653  0.00  0.00    +0.000 OA
ENDBRANCH  21  28
ENDBRANCH  20  25
ENDBRANCH   1  20
TORSDOF 4
ENDMDL
MODEL 7
REMARK VINA RESULT:      -8.2      2.708      9.075
REMARK  Name = 
REMARK  5 active torsions:
REMARK  status: ('A' for Active; 'I' for Inactive)
REMARK    1  A    between atoms: C_1  and  O_2
REMARK    2  A    between atoms: O_2  and  C_3
REMARK    3  A    between atoms: C_7  and  C_8
REMARK    4  A    between atoms: C_8  and  C_9
REMARK    5  A    between atoms: C_14  and  C_15
REMARK                            x       y       z     vdW  Elec       q    Type
REMARK                         _______ _______ _______ _____ _____    ______ ____
ROOT
ATOM      1  C   UNL     1       1.673   8.756  18.213  0.00  0.00    +0.000 C 
ATOM      2  O   UNL     1       2.620   8.823  17.434  0.00  0.00    +0.000 OA
ATOM      3  N   UNL     1       1.483   7.819  19.212  0.00  0.00    +0.000 N 
ATOM      4  C   UNL     1       2.413   6.838  19.414  0.00  0.00    +0.000 A 
ATOM      5  N   UNL     1       3.613   6.775  18.915  0.00  0.00    +0.000 NA
ATOM      6  C   UNL     1       4.188   5.560  19.203  0.00  0.00    +0.000 A 
ATOM      7  C   UNL     1       3.423   4.739  20.008  0.00  0.00    +0.000 A 
ATOM      8  S   UNL     1       1.941   5.533  20.403  0.00  0.00    +0.000 S 
ATOM      9  H   UNL     1       0.594   7.723  19.680  0.00  0.00    +0.000 HD
ENDROOT
BRANCH   6  10
ATOM     10  C   UNL     1       5.492   5.275  18.603  0.00  0.00    +0.000 A 
ATOM     11  C   UNL     1       6.703   5.127  19.253  0.00  0.00    +0.000 A 
ATOM     12  N   UNL     1       7.650   4.829  18.304  0.00  0.00    +0.000 N 
ATOM     13  C   UNL     1       7.078   4.792  17.064  0.00  0.00    +0.000 A 
ATOM     14  N   UNL     1       7.753   4.530  15.928  0.00  0.00    +0.000 NA
ATOM     15  C   UNL     1       6.961   4.542  14.832  0.00  0.00    +0.000 A 
ATOM     16  C   UNL     1       5.597   4.791  14.820  0.00  0.00    +0.000 A 
ATOM     17  C   UNL     1       4.952   5.061  16.026  0.00  0.00    +0.000 A 
ATOM     18  C   UNL     1       5.724   5.065  17.207  0.00  0.00    +0.000 A 
ATOM     19  H   UNL     1       8.628   4.646  18.467  0.00  0.00    +0.000 HD
ENDBRANCH   6  10
BRANCH   1  20
ATOM     20  C   UNL     1       0.549   9.767  18.113  0.00  0.00    +0.000 C 
BRANCH  20  25
ATOM     21  C   UNL     1       0.121  11.588  21.431  0.00  0.00    +0.000 A 
ATOM     22  C   UNL     1       0.776  12.792  21.168  0.00  0.00    +0.000 A 
ATOM     23  C   UNL     1       1.351  13.028  19.916  0.00  0.00    +0.000 A 
ATOM     24  C   UNL     1       1.268  12.058  18.920  0.00  0.00    +0.000 A 
ATOM     25  C   UNL     1       0.611  10.845  19.164  0.00  0.00    +0.000 A 
ATOM     26  C   UNL     1       0.047  10.616  20.431  0.00  0.00    +0.000 A 
BRANCH  21  28
ATOM     27  C   UNL     1      -0.567  10.165  23.204  0.00  0.00    +0.000 C 
ATOM     28  O   UNL     1      -0.404  11.480  22.689  0.00  0.00    +0.000 OA
ENDBRANCH  21  28
ENDBRANCH  20  25
ENDBRANCH   1  20
TORSDOF 4
ENDMDL
MODEL 8
REMARK VINA RESULT:      -8.1      4.401     10.059
REMARK  Name = 
REMARK  5 active torsions:
REMARK  status: ('A' for Active; 'I' for Inactive)
REMARK    1  A    between atoms: C_1  and  O_2
REMARK    2  A    between atoms: O_2  and  C_3
REMARK    3  A    between atoms: C_7  and  C_8
REMARK    4  A    between atoms: C_8  and  C_9
REMARK    5  A    between atoms: C_14  and  C_15
REMARK                            x       y       z     vdW  Elec       q    Type
REMARK                         _______ _______ _______ _____ _____    ______ ____
ROOT
ATOM      1  C   UNL     1      -3.290  10.903  17.422  0.00  0.00    +0.000 C 
ATOM      2  O   UNL     1      -3.175   9.714  17.709  0.00  0.00    +0.000 OA
ATOM      3  N   UNL     1      -2.384  11.914  17.686  0.00  0.00    +0.000 N 
ATOM      4  C   UNL     1      -1.211  11.628  18.328  0.00  0.00    +0.000 A 
ATOM      5  N   UNL     1      -0.702  10.452  18.554  0.00  0.00    +0.000 NA
ATOM      6  C   UNL     1       0.396  10.555  19.374  0.00  0.00    +0.000 A 
ATOM      7  C   UNL     1       0.756  11.850  19.692  0.00  0.00    +0.000 A 
ATOM      8  S   UNL     1      -0.329  12.957  18.930  0.00  0.00    +0.000 S 
ATOM      9  H   UNL     1      -2.637  12.886  17.586  0.00  0.00    +0.000 HD
ENDROOT
BRANCH   6  10
ATOM     10  C   UNL     1       1.012   9.310  19.833  0.00  0.00    +0.000 A 
ATOM     11  C   UNL     1       0.863   8.702  21.064  0.00  0.00    +0.000 A 
ATOM     12  N   UNL     1       1.589   7.536  21.043  0.00  0.00    +0.000 N 
ATOM     13  C   UNL     1       2.206   7.389  19.834  0.00  0.00    +0.000 A 
ATOM     14  N   UNL     1       2.996   6.346  19.511  0.00  0.00    +0.000 NA
ATOM     15  C   UNL     1       3.482   6.426  18.251  0.00  0.00    +0.000 A 
ATOM     16  C   UNL     1       3.228   7.446  17.348  0.00  0.00    +0.000 A 
ATOM     17  C   UNL     1       2.408   8.503  17.739  0.00  0.00    +0.000 A 
ATOM     18  C   UNL     1       1.870   8.479  19.043  0.00  0.00    +0.000 A 
ATOM     19  H   UNL     1       1.666   6.861  21.789  0.00  0.00    +0.000 HD
ENDBRANCH   6  10
BRANCH   1  20
ATOM     20  C   UNL     1      -4.541  11.385  16.715  0.00  0.00    +0.000 C 
BRANCH  20  25
ATOM     21  C   UNL     1      -6.552  11.923  19.906  0.00  0.00    +0.000 A 
ATOM     22  C   UNL     1      -7.572  12.758  19.447  0.00  0.00    +0.000 A 
ATOM     23  C   UNL     1      -7.624  13.145  18.106  0.00  0.00    +0.000 A 
ATOM     24  C   UNL     1      -6.653  12.692  17.215  0.00  0.00    +0.000 A 
ATOM     25  C   UNL     1      -5.624  11.850  17.655  0.00  0.00    +0.000 A 
ATOM     26  C   UNL     1      -5.578  11.477  19.010  0.00  0.00    +0.000 A 
BRANCH  21  28
ATOM     27  C   UNL     1      -7.913  11.489  21.803  0.00  0.00    +0.000 C 
ATOM     28  O   UNL     1      -6.615  11.612  21.236  0.00  0.00    +0.000 OA
ENDBRANCH  21  28
ENDBRANCH  20  25
ENDBRANCH   1  20
TORSDOF 4
ENDMDL
MODEL 9
REMARK VINA RESULT:      -8.1      3.096      4.461
REMARK  Name = 
REMARK  5 active torsions:
REMARK  status: ('A' for Active; 'I' for Inactive)
REMARK    1  A    between atoms: C_1  and  O_2
REMARK    2  A    between atoms: O_2  and  C_3
REMARK    3  A    between atoms: C_7  and  C_8
REMARK    4  A    between atoms: C_8  and  C_9
REMARK    5  A    between atoms: C_14  and  C_15
REMARK                            x       y       z     vdW  Elec       q    Type
REMARK                         _______ _______ _______ _____ _____    ______ ____
ROOT
ATOM      1  C   UNL     1       2.418   8.293  18.145  0.00  0.00    +0.000 C 
ATOM      2  O   UNL     1       1.770   8.825  17.248  0.00  0.00    +0.000 OA
ATOM      3  N   UNL     1       2.163   8.352  19.503  0.00  0.00    +0.000 N 
ATOM      4  C   UNL     1       1.087   9.058  19.965  0.00  0.00    +0.000 A 
ATOM      5  N   UNL     1       0.097   9.534  19.266  0.00  0.00    +0.000 NA
ATOM      6  C   UNL     1      -0.703  10.329  20.050  0.00  0.00    +0.000 A 
ATOM      7  C   UNL     1      -0.341  10.373  21.383  0.00  0.00    +0.000 A 
ATOM      8  S   UNL     1       1.048   9.380  21.638  0.00  0.00    +0.000 S 
ATOM      9  H   UNL     1       2.846   8.046  20.180  0.00  0.00    +0.000 HD
ENDROOT
BRANCH   6  10
ATOM     10  C   UNL     1      -1.791  11.050  19.387  0.00  0.00    +0.000 A 
ATOM     11  C   UNL     1      -2.475  12.155  19.854  0.00  0.00    +0.000 A 
ATOM     12  N   UNL     1      -3.383  12.520  18.891  0.00  0.00    +0.000 N 
ATOM     13  C   UNL     1      -3.304  11.669  17.825  0.00  0.00    +0.000 A 
ATOM     14  N   UNL     1      -4.074  11.766  16.723  0.00  0.00    +0.000 NA
ATOM     15  C   UNL     1      -3.798  10.811  15.805  0.00  0.00    +0.000 A 
ATOM     16  C   UNL     1      -2.839   9.818  15.932  0.00  0.00    +0.000 A 
ATOM     17  C   UNL     1      -2.076   9.764  17.097  0.00  0.00    +0.000 A 
ATOM     18  C   UNL     1      -2.316  10.732  18.094  0.00  0.00    +0.000 A 
ATOM     19  H   UNL     1      -4.019  13.302  18.928  0.00  0.00    +0.000 HD
ENDBRANCH   6  10
BRANCH   1  20
ATOM     20  C   UNL     1       3.650   7.482  17.799  0.00  0.00    +0.000 C 
BRANCH  20  25
ATOM     21  C   UNL     1       2.350   3.920  18.170  0.00  0.00    +0.000 A 
ATOM     22  C   UNL     1       3.386   3.326  18.892  0.00  0.00    +0.000 A 
ATOM     23  C   UNL     1       4.504   4.071  19.273  0.00  0.00    +0.000 A 
ATOM     24  C   UNL     1       4.589   5.420  18.934  0.00  0.00    +0.000 A 
ATOM     25  C   UNL     1       3.557   6.035  18.213  0.00  0.00    +0.000 A 
ATOM     26  C   UNL     1       2.443   5.271  17.827  0.00  0.00    +0.000 A 
BRANCH  21  28
ATOM     27  C   UNL     1       0.822   2.259  18.910  0.00  0.00    +0.000 C 
ATOM     28  O   UNL     1       1.310   3.088  17.863  0.00  0.00    +0.000 OA
ENDBRANCH  21  28
ENDBRANCH  20  25
ENDBRANCH   1  20
TORSDOF 4
ENDMDL
