MODEL 1
REMARK VINA RESULT:      -8.4      0.000      0.000
REMARK  Name = 
REMARK  10 active torsions:
REMARK  status: ('A' for Active; 'I' for Inactive)
REMARK    1  A    between atoms: C_1  and  C_2
REMARK    2  A    between atoms: C_4  and  C_5
REMARK    3  A    between atoms: C_6  and  S_7
REMARK    4  A    between atoms: S_7  and  N_10
REMARK    5  A    between atoms: N_10  and  C_11
REMARK    6  A    between atoms: C_11  and  C_12
REMARK    7  A    between atoms: C_11  and  C_24
REMARK    8  A    between atoms: C_12  and  N_13
REMARK    9  A    between atoms: C_17  and  C_18
REMARK   10  A    between atoms: C_28  and  C_29
REMARK                            x       y       z     vdW  Elec       q    Type
REMARK                         _______ _______ _______ _____ _____    ______ ____
ROOT
ATOM      1  C   UNL     1       2.757   5.092  20.271  0.00  0.00    +0.000 C 
ENDROOT
BRANCH   1   2
ATOM      2  C   UNL     1       1.630   4.263  19.589  0.00  0.00    +0.000 C 
ATOM      3  F   UNL     1       0.466   4.332  20.259  0.00  0.00    +0.000 F 
ATOM      4  F   UNL     1       1.435   4.672  18.320  0.00  0.00    +0.000 F 
ATOM      5  F   UNL     1       1.908   2.938  19.519  0.00  0.00    +0.000 F 
ENDBRANCH   1   2
BRANCH   1   6
ATOM      6  N   UNL     1       3.795   5.633  19.277  0.00  0.00    +0.000 NA
ATOM      7  H   UNL     1       4.082   6.598  19.462  0.00  0.00    +0.000 HD
BRANCH   6   8
ATOM      8  S   UNL     1       5.280   4.783  19.072  0.00  0.00    +0.000 S 
ATOM      9  O   UNL     1       5.033   3.442  19.544  0.00  0.00    +0.000 OA
ATOM     10  O   UNL     1       6.274   5.590  19.750  0.00  0.00    +0.000 OA
BRANCH   8  16
ATOM     11  C   UNL     1       6.878   4.338  13.168  0.00  0.00    +0.000 C 
ATOM     12  C   UNL     1       6.395   4.534  14.575  0.00  0.00    +0.000 A 
ATOM     13  C   UNL     1       5.336   3.790  15.089  0.00  0.00    +0.000 A 
ATOM     14  C   UNL     1       4.947   3.891  16.443  0.00  0.00    +0.000 A 
ATOM     15  C   UNL     1       3.820   2.992  16.882  0.00  0.00    +0.000 C 
ATOM     16  C   UNL     1       5.643   4.786  17.304  0.00  0.00    +0.000 A 
ATOM     17  C   UNL     1       6.674   5.606  16.768  0.00  0.00    +0.000 A 
ATOM     18  C   UNL     1       7.497   6.620  17.520  0.00  0.00    +0.000 C 
ATOM     19  C   UNL     1       7.023   5.460  15.406  0.00  0.00    +0.000 A 
ENDBRANCH   8  16
ENDBRANCH   6   8
ENDBRANCH   1   6
BRANCH   1  20
ATOM     20  C   UNL     1       1.978   6.206  21.025  0.00  0.00    +0.000 C 
BRANCH  20  21
ATOM     21  N   UNL     1       1.654   7.458  20.369  0.00  0.00    +0.000 N 
ATOM     22  C   UNL     1       2.096   7.783  19.106  0.00  0.00    +0.000 A 
ATOM     23  C   UNL     1       1.635   9.041  18.801  0.00  0.00    +0.000 A 
ATOM     24  C   UNL     1       0.919   9.521  19.933  0.00  0.00    +0.000 A 
ATOM     25  C   UNL     1       0.190  10.695  20.220  0.00  0.00    +0.000 A 
ATOM     26  C   UNL     1      -0.347  10.884  21.500  0.00  0.00    +0.000 A 
ATOM     27  C   UNL     1      -0.092   9.963  22.512  0.00  0.00    +0.000 A 
ATOM     28  C   UNL     1       0.644   8.805  22.260  0.00  0.00    +0.000 A 
ATOM     29  C   UNL     1       1.067   8.562  20.945  0.00  0.00    +0.000 A 
BRANCH  25  30
ATOM     30  C   UNL     1       0.001  11.656  19.178  0.00  0.00    +0.000 C 
ATOM     31  N   UNL     1      -0.146  12.443  18.336  0.00  0.00    +0.000 NA
ENDBRANCH  25  30
ENDBRANCH  20  21
ENDBRANCH   1  20
TORSDOF 7
ENDMDL
MODEL 2
REMARK VINA RESULT:      -8.2      4.544      8.982
REMARK  Name = 
REMARK  10 active torsions:
REMARK  status: ('A' for Active; 'I' for Inactive)
REMARK    1  A    between atoms: C_1  and  C_2
REMARK    2  A    between atoms: C_4  and  C_5
REMARK    3  A    between atoms: C_6  and  S_7
REMARK    4  A    between atoms: S_7  and  N_10
REMARK    5  A    between atoms: N_10  and  C_11
REMARK    6  A    between atoms: C_11  and  C_12
REMARK    7  A    between atoms: C_11  and  C_24
REMARK    8  A    between atoms: C_12  and  N_13
REMARK    9  A    between atoms: C_17  and  C_18
REMARK   10  A    between atoms: C_28  and  C_29
REMARK                            x       y       z     vdW  Elec       q    Type
REMARK                         _______ _______ _______ _____ _____    ______ ____
ROOT
ATOM      1  C   UNL     1      -0.264   9.669  20.541  0.00  0.00    +0.000 C 
ENDROOT
BRANCH   1   2
ATOM      2  C   UNL     1      -0.351   9.338  22.059  0.00  0.00    +0.000 C 
ATOM      3  F   UNL     1      -1.020  10.277  22.751  0.00  0.00    +0.000 F 
ATOM      4  F   UNL     1      -0.937   8.141  22.256  0.00  0.00    +0.000 F 
ATOM      5  F   UNL     1       0.861   9.266  22.662  0.00  0.00    +0.000 F 
ENDBRANCH   1   2
BRANCH   1   6
ATOM      6  N   UNL     1      -0.982  10.972  20.165  0.00  0.00    +0.000 NA
ATOM      7  H   UNL     1      -0.492  11.818  20.470  0.00  0.00    +0.000 HD
BRANCH   6   8
ATOM      8  S   UNL     1      -1.355  11.274  18.509  0.00  0.00    +0.000 S 
ATOM      9  O   UNL     1      -0.985  10.075  17.798  0.00  0.00    +0.000 OA
ATOM     10  O   UNL     1      -0.675  12.513  18.190  0.00  0.00    +0.000 OA
BRANCH   8  16
ATOM     11  C   UNL     1      -7.283  12.719  17.893  0.00  0.00    +0.000 C 
ATOM     12  C   UNL     1      -5.871  12.249  18.093  0.00  0.00    +0.000 A 
ATOM     13  C   UNL     1      -5.213  11.495  17.125  0.00  0.00    +0.000 A 
ATOM     14  C   UNL     1      -3.852  11.144  17.258  0.00  0.00    +0.000 A 
ATOM     15  C   UNL     1      -3.247  10.371  16.114  0.00  0.00    +0.000 C 
ATOM     16  C   UNL     1      -3.136  11.554  18.419  0.00  0.00    +0.000 A 
ATOM     17  C   UNL     1      -3.822  12.257  19.447  0.00  0.00    +0.000 A 
ATOM     18  C   UNL     1      -3.234  12.747  20.746  0.00  0.00    +0.000 C 
ATOM     19  C   UNL     1      -5.183  12.585  19.258  0.00  0.00    +0.000 A 
ENDBRANCH   8  16
ENDBRANCH   6   8
ENDBRANCH   1   6
BRANCH   1  20
ATOM     20  C   UNL     1       1.266   9.699  20.267  0.00  0.00    +0.000 C 
BRANCH  20  21
ATOM     21  N   UNL     1       1.880   8.726  19.383  0.00  0.00    +0.000 N 
ATOM     22  C   UNL     1       2.215   9.003  18.077  0.00  0.00    +0.000 A 
ATOM     23  C   UNL     1       2.746   7.864  17.521  0.00  0.00    +0.000 A 
ATOM     24  C   UNL     1       2.699   6.842  18.509  0.00  0.00    +0.000 A 
ATOM     25  C   UNL     1       3.123   5.497  18.567  0.00  0.00    +0.000 A 
ATOM     26  C   UNL     1       2.849   4.729  19.706  0.00  0.00    +0.000 A 
ATOM     27  C   UNL     1       2.087   5.259  20.744  0.00  0.00    +0.000 A 
ATOM     28  C   UNL     1       1.637   6.579  20.702  0.00  0.00    +0.000 A 
ATOM     29  C   UNL     1       2.026   7.378  19.617  0.00  0.00    +0.000 A 
BRANCH  25  30
ATOM     30  C   UNL     1       3.846   4.959  17.457  0.00  0.00    +0.000 C 
ATOM     31  N   UNL     1       4.442   4.520  16.560  0.00  0.00    +0.000 NA
ENDBRANCH  25  30
ENDBRANCH  20  21
ENDBRANCH   1  20
TORSDOF 7
ENDMDL
MODEL 3
REMARK VINA RESULT:      -8.1      1.705      2.709
REMARK  Name = 
REMARK  10 active torsions:
REMARK  status: ('A' for Active; 'I' for Inactive)
REMARK    1  A    between atoms: C_1  and  C_2
REMARK    2  A    between atoms: C_4  and  C_5
REMARK    3  A    between atoms: C_6  and  S_7
REMARK    4  A    between atoms: S_7  and  N_10
REMARK    5  A    between atoms: N_10  and  C_11
REMARK    6  A    between atoms: C_11  and  C_12
REMARK    7  A    between atoms: C_11  and  C_24
REMARK    8  A    between atoms: C_12  and  N_13
REMARK    9  A    between atoms: C_17  and  C_18
REMARK   10  A    between atoms: C_28  and  C_29
REMARK                            x       y       z     vdW  Elec       q    Type
REMARK                         _______ _______ _______ _____ _____    ______ ____
ROOT
ATOM      1  C   UNL     1       3.151   4.742  19.329  0.00  0.00    +0.000 C 
ENDROOT
BRANCH   1   2
ATOM      2  C   UNL     1       1.656   4.344  19.157  0.00  0.00    +0.000 C 
ATOM      3  F   UNL     1       0.886   4.799  20.161  0.00  0.00    +0.000 F 
ATOM      4  F   UNL     1       1.171   4.799  17.986  0.00  0.00    +0.000 F 
ATOM      5  F   UNL     1       1.456   3.004  19.152  0.00  0.00    +0.000 F 
ENDBRANCH   1   2
BRANCH   1   6
ATOM      6  N   UNL     1       3.906   4.846  17.996  0.00  0.00    +0.000 NA
ATOM      7  H   UNL     1       3.895   5.785  17.586  0.00  0.00    +0.000 HD
BRANCH   6   8
ATOM      8  S   UNL     1       5.563   4.377  17.934  0.00  0.00    +0.000 S 
ATOM      9  O   UNL     1       5.703   3.591  16.733  0.00  0.00    +0.000 OA
ATOM     10  O   UNL     1       5.825   3.750  19.214  0.00  0.00    +0.000 OA
BRANCH   8  16
ATOM     11  C   UNL     1       8.515   9.751  18.006  0.00  0.00    +0.000 C 
ATOM     12  C   UNL     1       7.886   8.392  17.905  0.00  0.00    +0.000 A 
ATOM     13  C   UNL     1       8.280   7.347  18.737  0.00  0.00    +0.000 A 
ATOM     14  C   UNL     1       7.619   6.100  18.723  0.00  0.00    +0.000 A 
ATOM     15  C   UNL     1       8.112   5.073  19.709  0.00  0.00    +0.000 C 
ATOM     16  C   UNL     1       6.532   5.896  17.826  0.00  0.00    +0.000 A 
ATOM     17  C   UNL     1       6.174   6.933  16.920  0.00  0.00    +0.000 A 
ATOM     18  C   UNL     1       5.072   6.885  15.892  0.00  0.00    +0.000 C 
ATOM     19  C   UNL     1       6.868   8.161  16.981  0.00  0.00    +0.000 A 
ENDBRANCH   8  16
ENDBRANCH   6   8
ENDBRANCH   1   6
BRANCH   1  20
ATOM     20  C   UNL     1       3.078   6.084  20.110  0.00  0.00    +0.000 C 
BRANCH  20  21
ATOM     21  N   UNL     1       2.373   7.225  19.559  0.00  0.00    +0.000 N 
ATOM     22  C   UNL     1       2.589   7.699  18.285  0.00  0.00    +0.000 A 
ATOM     23  C   UNL     1       1.784   8.797  18.094  0.00  0.00    +0.000 A 
ATOM     24  C   UNL     1       1.080   9.028  19.308  0.00  0.00    +0.000 A 
ATOM     25  C   UNL     1       0.098   9.952  19.726  0.00  0.00    +0.000 A 
ATOM     26  C   UNL     1      -0.343   9.946  21.055  0.00  0.00    +0.000 A 
ATOM     27  C   UNL     1       0.242   9.093  21.986  0.00  0.00    +0.000 A 
ATOM     28  C   UNL     1       1.231   8.185  21.604  0.00  0.00    +0.000 A 
ATOM     29  C   UNL     1       1.573   8.110  20.247  0.00  0.00    +0.000 A 
BRANCH  25  30
ATOM     30  C   UNL     1      -0.439  10.863  18.762  0.00  0.00    +0.000 C 
ATOM     31  N   UNL     1      -0.866  11.607  17.978  0.00  0.00    +0.000 NA
ENDBRANCH  25  30
ENDBRANCH  20  21
ENDBRANCH   1  20
TORSDOF 7
ENDMDL
MODEL 4
REMARK VINA RESULT:      -8.1      4.437      9.010
REMARK  Name = 
REMARK  10 active torsions:
REMARK  status: ('A' for Active; 'I' for Inactive)
REMARK    1  A    between atoms: C_1  and  C_2
REMARK    2  A    between atoms: C_4  and  C_5
REMARK    3  A    between atoms: C_6  and  S_7
REMARK    4  A    between atoms: S_7  and  N_10
REMARK    5  A    between atoms: N_10  and  C_11
REMARK    6  A    between atoms: C_11  and  C_12
REMARK    7  A    between atoms: C_11  and  C_24
REMARK    8  A    between atoms: C_12  and  N_13
REMARK    9  A    between atoms: C_17  and  C_18
REMARK   10  A    between atoms: C_28  and  C_29
REMARK                            x       y       z     vdW  Elec       q    Type
REMARK                         _______ _______ _______ _____ _____    ______ ____
ROOT
ATOM      1  C   UNL     1      -0.083   9.677  20.529  0.00  0.00    +0.000 C 
ENDROOT
BRANCH   1   2
ATOM      2  C   UNL     1      -0.368   9.307  22.013  0.00  0.00    +0.000 C 
ATOM      3  F   UNL     1      -1.143  10.217  22.629  0.00  0.00    +0.000 F 
ATOM      4  F   UNL     1      -0.952   8.096  22.101  0.00  0.00    +0.000 F 
ATOM      5  F   UNL     1       0.752   9.240  22.773  0.00  0.00    +0.000 F 
ENDBRANCH   1   2
BRANCH   1   6
ATOM      6  N   UNL     1      -0.548  11.093  20.159  0.00  0.00    +0.000 NA
ATOM      7  H   UNL     1       0.155  11.817  20.327  0.00  0.00    +0.000 HD
BRANCH   6   8
ATOM      8  S   UNL     1      -1.098  11.400  18.555  0.00  0.00    +0.000 S 
ATOM      9  O   UNL     1      -0.766  10.222  17.793  0.00  0.00    +0.000 OA
ATOM     10  O   UNL     1      -0.492  12.664  18.185  0.00  0.00    +0.000 OA
BRANCH   8  16
ATOM     11  C   UNL     1      -7.182  11.705  19.257  0.00  0.00    +0.000 C 
ATOM     12  C   UNL     1      -5.701  11.744  19.017  0.00  0.00    +0.000 A 
ATOM     13  C   UNL     1      -4.845  12.431  19.876  0.00  0.00    +0.000 A 
ATOM     14  C   UNL     1      -3.443  12.381  19.719  0.00  0.00    +0.000 A 
ATOM     15  C   UNL     1      -2.631  13.126  20.747  0.00  0.00    +0.000 C 
ATOM     16  C   UNL     1      -2.886  11.624  18.649  0.00  0.00    +0.000 A 
ATOM     17  C   UNL     1      -3.756  10.984  17.724  0.00  0.00    +0.000 A 
ATOM     18  C   UNL     1      -3.347  10.165  16.526  0.00  0.00    +0.000 C 
ATOM     19  C   UNL     1      -5.151  11.065  17.931  0.00  0.00    +0.000 A 
ENDBRANCH   8  16
ENDBRANCH   6   8
ENDBRANCH   1   6
BRANCH   1  20
ATOM     20  C   UNL     1       1.452   9.472  20.395  0.00  0.00    +0.000 C 
BRANCH  20  21
ATOM     21  N   UNL     1       1.990   8.472  19.494  0.00  0.00    +0.000 N 
ATOM     22  C   UNL     1       2.324   8.740  18.185  0.00  0.00    +0.000 A 
ATOM     23  C   UNL     1       2.774   7.576  17.610  0.00  0.00    +0.000 A 
ATOM     24  C   UNL     1       2.675   6.548  18.589  0.00  0.00    +0.000 A 
ATOM     25  C   UNL     1       3.013   5.179  18.628  0.00  0.00    +0.000 A 
ATOM     26  C   UNL     1       2.706   4.418  19.763  0.00  0.00    +0.000 A 
ATOM     27  C   UNL     1       1.995   4.984  20.817  0.00  0.00    +0.000 A 
ATOM     28  C   UNL     1       1.629   6.330  20.795  0.00  0.00    +0.000 A 
ATOM     29  C   UNL     1       2.053   7.114  19.712  0.00  0.00    +0.000 A 
BRANCH  25  30
ATOM     30  C   UNL     1       3.685   4.608  17.502  0.00  0.00    +0.000 C 
ATOM     31  N   UNL     1       4.229   4.152  16.581  0.00  0.00    +0.000 NA
ENDBRANCH  25  30
ENDBRANCH  20  21
ENDBRANCH   1  20
TORSDOF 7
ENDMDL
MODEL 5
REMARK VINA RESULT:      -8.0      1.054      2.056
REMARK  Name = 
REMARK  10 active torsions:
REMARK  status: ('A' for Active; 'I' for Inactive)
REMARK    1  A    between atoms: C_1  and  C_2
REMARK    2  A    between atoms: C_4  and  C_5
REMARK    3  A    between atoms: C_6  and  S_7
REMARK    4  A    between atoms: S_7  and  N_10
REMARK    5  A    between atoms: N_10  and  C_11
REMARK    6  A    between atoms: C_11  and  C_12
REMARK    7  A    between atoms: C_11  and  C_24
REMARK    8  A    between atoms: C_12  and  N_13
REMARK    9  A    between atoms: C_17  and  C_18
REMARK   10  A    between atoms: C_28  and  C_29
REMARK                            x       y       z     vdW  Elec       q    Type
REMARK                         _______ _______ _______ _____ _____    ______ ____
ROOT
ATOM      1  C   UNL     1       2.936   5.141  20.015  0.00  0.00    +0.000 C 
ENDROOT
BRANCH   1   2
ATOM      2  C   UNL     1       1.908   4.225  20.742  0.00  0.00    +0.000 C 
ATOM      3  F   UNL     1       2.228   4.019  22.032  0.00  0.00    +0.000 F 
ATOM      4  F   UNL     1       0.668   4.747  20.672  0.00  0.00    +0.000 F 
ATOM      5  F   UNL     1       1.824   2.983  20.207  0.00  0.00    +0.000 F 
ENDBRANCH   1   2
BRANCH   1   6
ATOM      6  N   UNL     1       4.199   4.393  19.566  0.00  0.00    +0.000 NA
ATOM      7  H   UNL     1       4.031   3.700  18.832  0.00  0.00    +0.000 HD
BRANCH   6   8
ATOM      8  S   UNL     1       5.548   5.299  18.992  0.00  0.00    +0.000 S 
ATOM      9  O   UNL     1       6.649   4.956  19.858  0.00  0.00    +0.000 OA
ATOM     10  O   UNL     1       5.090   6.674  18.956  0.00  0.00    +0.000 OA
BRANCH   8  16
ATOM     11  C   UNL     1       6.226   3.851  13.072  0.00  0.00    +0.000 C 
ATOM     12  C   UNL     1       6.162   4.125  14.547  0.00  0.00    +0.000 A 
ATOM     13  C   UNL     1       6.933   5.126  15.132  0.00  0.00    +0.000 A 
ATOM     14  C   UNL     1       6.798   5.463  16.497  0.00  0.00    +0.000 A 
ATOM     15  C   UNL     1       7.655   6.600  16.991  0.00  0.00    +0.000 C 
ATOM     16  C   UNL     1       5.863   4.752  17.301  0.00  0.00    +0.000 A 
ATOM     17  C   UNL     1       5.128   3.677  16.729  0.00  0.00    +0.000 A 
ATOM     18  C   UNL     1       4.118   2.805  17.431  0.00  0.00    +0.000 C 
ATOM     19  C   UNL     1       5.301   3.387  15.357  0.00  0.00    +0.000 A 
ENDBRANCH   8  16
ENDBRANCH   6   8
ENDBRANCH   1   6
BRANCH   1  20
ATOM     20  C   UNL     1       2.115   5.739  18.839  0.00  0.00    +0.000 C 
BRANCH  20  21
ATOM     21  N   UNL     1       1.931   7.172  18.716  0.00  0.00    +0.000 N 
ATOM     22  C   UNL     1       2.299   7.885  17.597  0.00  0.00    +0.000 A 
ATOM     23  C   UNL     1       2.014   9.210  17.820  0.00  0.00    +0.000 A 
ATOM     24  C   UNL     1       1.489   9.320  19.138  0.00  0.00    +0.000 A 
ATOM     25  C   UNL     1       0.980  10.380  19.919  0.00  0.00    +0.000 A 
ATOM     26  C   UNL     1       0.600  10.146  21.246  0.00  0.00    +0.000 A 
ATOM     27  C   UNL     1       0.800   8.896  21.825  0.00  0.00    +0.000 A 
ATOM     28  C   UNL     1       1.321   7.836  21.082  0.00  0.00    +0.000 A 
ATOM     29  C   UNL     1       1.578   8.046  19.719  0.00  0.00    +0.000 A 
BRANCH  25  30
ATOM     30  C   UNL     1       0.848  11.671  19.317  0.00  0.00    +0.000 C 
ATOM     31  N   UNL     1       0.751  12.719  18.826  0.00  0.00    +0.000 NA
ENDBRANCH  25  30
ENDBRANCH  20  21
ENDBRANCH   1  20
TORSDOF 7
ENDMDL
MODEL 6
REMARK VINA RESULT:      -8.0      0.385      1.776
REMARK  Name = 
REMARK  10 active torsions:
REMARK  status: ('A' for Active; 'I' for Inactive)
REMARK    1  A    between atoms: C_1  and  C_2
REMARK    2  A    between atoms: C_4  and  C_5
REMARK    3  A    between atoms: C_6  and  S_7
REMARK    4  A    between atoms: S_7  and  N_10
REMARK    5  A    between atoms: N_10  and  C_11
REMARK    6  A    between atoms: C_11  and  C_12
REMARK    7  A    between atoms: C_11  and  C_24
REMARK    8  A    between atoms: C_12  and  N_13
REMARK    9  A    between atoms: C_17  and  C_18
REMARK   10  A    between atoms: C_28  and  C_29
REMARK                            x       y       z     vdW  Elec       q    Type
REMARK                         _______ _______ _______ _____ _____    ______ ____
ROOT
ATOM      1  C   UNL     1       2.596   4.804  20.130  0.00  0.00    +0.000 C 
ENDROOT
BRANCH   1   2
ATOM      2  C   UNL     1       1.438   4.019  19.448  0.00  0.00    +0.000 C 
ATOM      3  F   UNL     1       1.727   2.715  19.291  0.00  0.00    +0.000 F 
ATOM      4  F   UNL     1       0.298   4.138  20.155  0.00  0.00    +0.000 F 
ATOM      5  F   UNL     1       1.155   4.460  18.199  0.00  0.00    +0.000 F 
ENDBRANCH   1   2
BRANCH   1   6
ATOM      6  N   UNL     1       3.660   5.295  19.139  0.00  0.00    +0.000 NA
ATOM      7  H   UNL     1       3.847   6.300  19.194  0.00  0.00    +0.000 HD
BRANCH   6   8
ATOM      8  S   UNL     1       5.225   4.572  19.165  0.00  0.00    +0.000 S 
ATOM      9  O   UNL     1       5.036   3.247  19.702  0.00  0.00    +0.000 OA
ATOM     10  O   UNL     1       6.060   5.507  19.892  0.00  0.00    +0.000 OA
BRANCH   8  16
ATOM     11  C   UNL     1       6.890   4.845  13.269  0.00  0.00    +0.000 C 
ATOM     12  C   UNL     1       6.562   4.673  14.724  0.00  0.00    +0.000 A 
ATOM     13  C   UNL     1       7.346   5.255  15.717  0.00  0.00    +0.000 A 
ATOM     14  C   UNL     1       6.983   5.189  17.081  0.00  0.00    +0.000 A 
ATOM     15  C   UNL     1       7.891   5.905  18.047  0.00  0.00    +0.000 C 
ATOM     16  C   UNL     1       5.795   4.499  17.454  0.00  0.00    +0.000 A 
ATOM     17  C   UNL     1       5.031   3.837  16.453  0.00  0.00    +0.000 A 
ATOM     18  C   UNL     1       3.767   3.044  16.667  0.00  0.00    +0.000 C 
ATOM     19  C   UNL     1       5.440   3.939  15.105  0.00  0.00    +0.000 A 
ENDBRANCH   8  16
ENDBRANCH   6   8
ENDBRANCH   1   6
BRANCH   1  20
ATOM     20  C   UNL     1       1.861   5.955  20.873  0.00  0.00    +0.000 C 
BRANCH  20  21
ATOM     21  N   UNL     1       1.677   7.248  20.241  0.00  0.00    +0.000 N 
ATOM     22  C   UNL     1       2.180   7.555  18.997  0.00  0.00    +0.000 A 
ATOM     23  C   UNL     1       1.853   8.859  18.713  0.00  0.00    +0.000 A 
ATOM     24  C   UNL     1       1.159   9.382  19.840  0.00  0.00    +0.000 A 
ATOM     25  C   UNL     1       0.541  10.615  20.140  0.00  0.00    +0.000 A 
ATOM     26  C   UNL     1      -0.006  10.828  21.411  0.00  0.00    +0.000 A 
ATOM     27  C   UNL     1       0.132   9.863  22.406  0.00  0.00    +0.000 A 
ATOM     28  C   UNL     1       0.757   8.645  22.142  0.00  0.00    +0.000 A 
ATOM     29  C   UNL     1       1.187   8.390  20.831  0.00  0.00    +0.000 A 
BRANCH  25  30
ATOM     30  C   UNL     1       0.474  11.613  19.118  0.00  0.00    +0.000 C 
ATOM     31  N   UNL     1       0.412  12.430  18.293  0.00  0.00    +0.000 NA
ENDBRANCH  25  30
ENDBRANCH  20  21
ENDBRANCH   1  20
TORSDOF 7
ENDMDL
MODEL 7
REMARK VINA RESULT:      -7.9      1.202      2.582
REMARK  Name = 
REMARK  10 active torsions:
REMARK  status: ('A' for Active; 'I' for Inactive)
REMARK    1  A    between atoms: C_1  and  C_2
REMARK    2  A    between atoms: C_4  and  C_5
REMARK    3  A    between atoms: C_6  and  S_7
REMARK    4  A    between atoms: S_7  and  N_10
REMARK    5  A    between atoms: N_10  and  C_11
REMARK    6  A    between atoms: C_11  and  C_12
REMARK    7  A    between atoms: C_11  and  C_24
REMARK    8  A    between atoms: C_12  and  N_13
REMARK    9  A    between atoms: C_17  and  C_18
REMARK   10  A    between atoms: C_28  and  C_29
REMARK                            x       y       z     vdW  Elec       q    Type
REMARK                         _______ _______ _______ _____ _____    ______ ____
ROOT
ATOM      1  C   UNL     1       2.951   4.804  20.365  0.00  0.00    +0.000 C 
ENDROOT
BRANCH   1   2
ATOM      2  C   UNL     1       1.883   3.723  20.703  0.00  0.00    +0.000 C 
ATOM      3  F   UNL     1       0.649   4.079  20.305  0.00  0.00    +0.000 F 
ATOM      4  F   UNL     1       2.205   2.541  20.143  0.00  0.00    +0.000 F 
ATOM      5  F   UNL     1       1.761   3.488  22.032  0.00  0.00    +0.000 F 
ENDBRANCH   1   2
BRANCH   1   6
ATOM      6  N   UNL     1       4.188   4.232  19.660  0.00  0.00    +0.000 NA
ATOM      7  H   UNL     1       3.968   3.607  18.879  0.00  0.00    +0.000 HD
BRANCH   6   8
ATOM      8  S   UNL     1       5.360   5.318  19.015  0.00  0.00    +0.000 S 
ATOM      9  O   UNL     1       6.519   5.195  19.864  0.00  0.00    +0.000 OA
ATOM     10  O   UNL     1       4.685   6.599  18.937  0.00  0.00    +0.000 OA
BRANCH   8  16
ATOM     11  C   UNL     1       6.234   3.834  13.129  0.00  0.00    +0.000 C 
ATOM     12  C   UNL     1       6.118   4.114  14.600  0.00  0.00    +0.000 A 
ATOM     13  C   UNL     1       6.900   5.087  15.216  0.00  0.00    +0.000 A 
ATOM     14  C   UNL     1       6.719   5.431  16.574  0.00  0.00    +0.000 A 
ATOM     15  C   UNL     1       7.595   6.537  17.104  0.00  0.00    +0.000 C 
ATOM     16  C   UNL     1       5.726   4.757  17.339  0.00  0.00    +0.000 A 
ATOM     17  C   UNL     1       4.977   3.708  16.736  0.00  0.00    +0.000 A 
ATOM     18  C   UNL     1       3.908   2.875  17.396  0.00  0.00    +0.000 C 
ATOM     19  C   UNL     1       5.198   3.409  15.373  0.00  0.00    +0.000 A 
ENDBRANCH   8  16
ENDBRANCH   6   8
ENDBRANCH   1   6
BRANCH   1  20
ATOM     20  C   UNL     1       2.162   5.830  19.504  0.00  0.00    +0.000 C 
BRANCH  20  21
ATOM     21  N   UNL     1       1.697   7.078  20.079  0.00  0.00    +0.000 N 
ATOM     22  C   UNL     1       1.127   7.164  21.329  0.00  0.00    +0.000 A 
ATOM     23  C   UNL     1       0.777   8.475  21.551  0.00  0.00    +0.000 A 
ATOM     24  C   UNL     1       1.108   9.211  20.379  0.00  0.00    +0.000 A 
ATOM     25  C   UNL     1       1.037  10.571  20.009  0.00  0.00    +0.000 A 
ATOM     26  C   UNL     1       1.390  10.958  18.710  0.00  0.00    +0.000 A 
ATOM     27  C   UNL     1       1.729  10.000  17.759  0.00  0.00    +0.000 A 
ATOM     28  C   UNL     1       1.785   8.646  18.093  0.00  0.00    +0.000 A 
ATOM     29  C   UNL     1       1.555   8.282  19.428  0.00  0.00    +0.000 A 
BRANCH  25  30
ATOM     30  C   UNL     1       0.622  11.526  20.989  0.00  0.00    +0.000 C 
ATOM     31  N   UNL     1       0.294  12.306  21.786  0.00  0.00    +0.000 NA
ENDBRANCH  25  30
ENDBRANCH  20  21
ENDBRANCH   1  20
TORSDOF 7
ENDMDL
MODEL 8
REMARK VINA RESULT:      -7.9      1.214      2.003
REMARK  Name = 
REMARK  10 active torsions:
REMARK  status: ('A' for Active; 'I' for Inactive)
REMARK    1  A    between atoms: C_1  and  C_2
REMARK    2  A    between atoms: C_4  and  C_5
REMARK    3  A    between atoms: C_6  and  S_7
REMARK    4  A    between atoms: S_7  and  N_10
REMARK    5  A    between atoms: N_10  and  C_11
REMARK    6  A    between atoms: C_11  and  C_12
REMARK    7  A    between atoms: C_11  and  C_24
REMARK    8  A    between atoms: C_12  and  N_13
REMARK    9  A    between atoms: C_17  and  C_18
REMARK   10  A    between atoms: C_28  and  C_29
REMARK                            x       y       z     vdW  Elec       q    Type
REMARK                         _______ _______ _______ _____ _____    ______ ____
ROOT
ATOM      1  C   UNL     1       2.970   4.731  20.334  0.00  0.00    +0.000 C 
ENDROOT
BRANCH   1   2
ATOM      2  C   UNL     1       1.943   3.653  20.789  0.00  0.00    +0.000 C 
ATOM      3  F   UNL     1       1.881   3.537  22.127  0.00  0.00    +0.000 F 
ATOM      4  F   UNL     1       0.714   3.931  20.311  0.00  0.00    +0.000 F 
ATOM      5  F   UNL     1       2.244   2.407  20.349  0.00  0.00    +0.000 F 
ENDBRANCH   1   2
BRANCH   1   6
ATOM      6  N   UNL     1       4.160   4.144  19.562  0.00  0.00    +0.000 NA
ATOM      7  H   UNL     1       3.894   3.638  18.713  0.00  0.00    +0.000 HD
BRANCH   6   8
ATOM      8  S   UNL     1       5.425   5.196  19.050  0.00  0.00    +0.000 S 
ATOM      9  O   UNL     1       6.600   4.781  19.777  0.00  0.00    +0.000 OA
ATOM     10  O   UNL     1       4.911   6.534  19.258  0.00  0.00    +0.000 OA
BRANCH   8  16
ATOM     11  C   UNL     1       6.524   3.852  13.168  0.00  0.00    +0.000 C 
ATOM     12  C   UNL     1       6.160   4.263  14.565  0.00  0.00    +0.000 A 
ATOM     13  C   UNL     1       5.152   3.613  15.272  0.00  0.00    +0.000 A 
ATOM     14  C   UNL     1       4.878   3.920  16.623  0.00  0.00    +0.000 A 
ATOM     15  C   UNL     1       3.796   3.106  17.285  0.00  0.00    +0.000 C 
ATOM     16  C   UNL     1       5.639   4.930  17.277  0.00  0.00    +0.000 A 
ATOM     17  C   UNL     1       6.618   5.651  16.539  0.00  0.00    +0.000 A 
ATOM     18  C   UNL     1       7.495   6.761  17.058  0.00  0.00    +0.000 C 
ATOM     19  C   UNL     1       6.851   5.299  15.191  0.00  0.00    +0.000 A 
ENDBRANCH   8  16
ENDBRANCH   6   8
ENDBRANCH   1   6
BRANCH   1  20
ATOM     20  C   UNL     1       2.109   5.716  19.495  0.00  0.00    +0.000 C 
BRANCH  20  21
ATOM     21  N   UNL     1       1.684   6.987  20.050  0.00  0.00    +0.000 N 
ATOM     22  C   UNL     1       1.096   7.108  21.289  0.00  0.00    +0.000 A 
ATOM     23  C   UNL     1       0.794   8.433  21.493  0.00  0.00    +0.000 A 
ATOM     24  C   UNL     1       1.175   9.145  20.321  0.00  0.00    +0.000 A 
ATOM     25  C   UNL     1       1.165  10.503  19.937  0.00  0.00    +0.000 A 
ATOM     26  C   UNL     1       1.557  10.863  18.642  0.00  0.00    +0.000 A 
ATOM     27  C   UNL     1       1.874   9.883  17.705  0.00  0.00    +0.000 A 
ATOM     28  C   UNL     1       1.870   8.531  18.052  0.00  0.00    +0.000 A 
ATOM     29  C   UNL     1       1.602   8.190  19.386  0.00  0.00    +0.000 A 
BRANCH  25  30
ATOM     30  C   UNL     1       0.771  11.483  20.901  0.00  0.00    +0.000 C 
ATOM     31  N   UNL     1       0.453  12.287  21.678  0.00  0.00    +0.000 NA
ENDBRANCH  25  30
ENDBRANCH  20  21
ENDBRANCH   1  20
TORSDOF 7
ENDMDL
MODEL 9
REMARK VINA RESULT:      -7.9      1.053      1.318
REMARK  Name = 
REMARK  10 active torsions:
REMARK  status: ('A' for Active; 'I' for Inactive)
REMARK    1  A    between atoms: C_1  and  C_2
REMARK    2  A    between atoms: C_4  and  C_5
REMARK    3  A    between atoms: C_6  and  S_7
REMARK    4  A    between atoms: S_7  and  N_10
REMARK    5  A    between atoms: N_10  and  C_11
REMARK    6  A    between atoms: C_11  and  C_12
REMARK    7  A    between atoms: C_11  and  C_24
REMARK    8  A    between atoms: C_12  and  N_13
REMARK    9  A    between atoms: C_17  and  C_18
REMARK   10  A    between atoms: C_28  and  C_29
REMARK                            x       y       z     vdW  Elec       q    Type
REMARK                         _______ _______ _______ _____ _____    ______ ____
ROOT
ATOM      1  C   UNL     1       2.953   5.045  20.034  0.00  0.00    +0.000 C 
ENDROOT
BRANCH   1   2
ATOM      2  C   UNL     1       1.989   4.089  20.794  0.00  0.00    +0.000 C 
ATOM      3  F   UNL     1       0.710   4.503  20.742  0.00  0.00    +0.000 F 
ATOM      4  F   UNL     1       2.069   2.838  20.303  0.00  0.00    +0.000 F 
ATOM      5  F   UNL     1       2.265   3.992  22.118  0.00  0.00    +0.000 F 
ENDBRANCH   1   2
BRANCH   1   6
ATOM      6  N   UNL     1       4.204   4.338  19.494  0.00  0.00    +0.000 NA
ATOM      7  H   UNL     1       4.019   3.718  18.700  0.00  0.00    +0.000 HD
BRANCH   6   8
ATOM      8  S   UNL     1       5.548   5.289  18.984  0.00  0.00    +0.000 S 
ATOM      9  O   UNL     1       6.683   4.793  19.723  0.00  0.00    +0.000 OA
ATOM     10  O   UNL     1       5.133   6.664  19.179  0.00  0.00    +0.000 OA
BRANCH   8  16
ATOM     11  C   UNL     1       6.647   3.878  13.118  0.00  0.00    +0.000 C 
ATOM     12  C   UNL     1       6.277   4.298  14.511  0.00  0.00    +0.000 A 
ATOM     13  C   UNL     1       5.318   3.606  15.246  0.00  0.00    +0.000 A 
ATOM     14  C   UNL     1       5.045   3.928  16.594  0.00  0.00    +0.000 A 
ATOM     15  C   UNL     1       4.021   3.067  17.290  0.00  0.00    +0.000 C 
ATOM     16  C   UNL     1       5.753   4.995  17.215  0.00  0.00    +0.000 A 
ATOM     17  C   UNL     1       6.678   5.755  16.447  0.00  0.00    +0.000 A 
ATOM     18  C   UNL     1       7.496   6.927  16.929  0.00  0.00    +0.000 C 
ATOM     19  C   UNL     1       6.915   5.387  15.103  0.00  0.00    +0.000 A 
ENDBRANCH   8  16
ENDBRANCH   6   8
ENDBRANCH   1   6
BRANCH   1  20
ATOM     20  C   UNL     1       2.053   5.654  18.922  0.00  0.00    +0.000 C 
BRANCH  20  21
ATOM     21  N   UNL     1       1.923   7.091  18.776  0.00  0.00    +0.000 N 
ATOM     22  C   UNL     1       2.375   7.778  17.672  0.00  0.00    +0.000 A 
ATOM     23  C   UNL     1       2.122   9.115  17.867  0.00  0.00    +0.000 A 
ATOM     24  C   UNL     1       1.531   9.256  19.154  0.00  0.00    +0.000 A 
ATOM     25  C   UNL     1       1.018  10.341  19.896  0.00  0.00    +0.000 A 
ATOM     26  C   UNL     1       0.560  10.135  21.203  0.00  0.00    +0.000 A 
ATOM     27  C   UNL     1       0.687   8.885  21.804  0.00  0.00    +0.000 A 
ATOM     28  C   UNL     1       1.211   7.801  21.099  0.00  0.00    +0.000 A 
ATOM     29  C   UNL     1       1.547   7.987  19.750  0.00  0.00    +0.000 A 
BRANCH  25  30
ATOM     30  C   UNL     1       0.961  11.629  19.276  0.00  0.00    +0.000 C 
ATOM     31  N   UNL     1       0.906  12.672  18.767  0.00  0.00    +0.000 NA
ENDBRANCH  25  30
ENDBRANCH  20  21
ENDBRANCH   1  20
TORSDOF 7
ENDMDL
