MODEL 1
REMARK VINA RESULT:      -6.8      0.000      0.000
REMARK  Name = 
REMARK  4 active torsions:
REMARK  status: ('A' for Active; 'I' for Inactive)
REMARK    1  A    between atoms: C_1  and  N_2
REMARK    2  A    between atoms: C_6  and  O_7
REMARK    3  A    between atoms: O_7  and  C_8
REMARK    4  A    between atoms: C_8  and  C_10
REMARK                            x       y       z     vdW  Elec       q    Type
REMARK                         _______ _______ _______ _____ _____    ______ ____
ROOT
ATOM      1  C   UNL     1       5.682   4.580  18.582  0.00  0.00    +0.000 C 
ATOM      2  O   UNL     1       6.469   4.834  19.468  0.00  0.00    +0.000 OA
ENDROOT
BRANCH   1   3
ATOM      3  C   UNL     1       5.967   4.679  17.128  0.00  0.00    +0.000 A 
ATOM      4  C   UNL     1       5.497   3.659  16.287  0.00  0.00    +0.000 A 
ATOM      5  C   UNL     1       5.794   3.673  14.922  0.00  0.00    +0.000 A 
ATOM      6  C   UNL     1       6.560   4.704  14.396  0.00  0.00    +0.000 A 
ATOM      7  C   UNL     1       7.024   5.729  15.214  0.00  0.00    +0.000 A 
ATOM      8  C   UNL     1       6.732   5.723  16.587  0.00  0.00    +0.000 A 
ATOM      9 BR   UNL     1       7.509   7.124  17.610  0.00  0.00    +0.000 Br
ENDBRANCH   1   3
BRANCH   1  10
ATOM     10  O   UNL     1       4.432   4.056  18.735  0.00  0.00    +0.000 OA
BRANCH  10  16
ATOM     11  C   UNL     1       1.494   2.752  21.558  0.00  0.00    +0.000 C 
ATOM     12  N   UNL     1       2.042   3.212  20.283  0.00  0.00    +0.000 NA
ATOM     13  C   UNL     1       0.988   3.318  19.266  0.00  0.00    +0.000 C 
ATOM     14  C   UNL     1       1.545   3.795  17.922  0.00  0.00    +0.000 C 
ATOM     15  C   UNL     1       2.306   5.108  18.070  0.00  0.00    +0.000 C 
ATOM     16  C   UNL     1       3.396   4.980  19.128  0.00  0.00    +0.000 C 
ATOM     17  C   UNL     1       2.747   4.499  20.453  0.00  0.00    +0.000 C 
ENDBRANCH  10  16
ENDBRANCH   1  10
TORSDOF 3
ENDMDL
MODEL 2
REMARK VINA RESULT:      -6.8      1.463      1.658
REMARK  Name = 
REMARK  4 active torsions:
REMARK  status: ('A' for Active; 'I' for Inactive)
REMARK    1  A    between atoms: C_1  and  N_2
REMARK    2  A    between atoms: C_6  and  O_7
REMARK    3  A    between atoms: O_7  and  C_8
REMARK    4  A    between atoms: C_8  and  C_10
REMARK                            x       y       z     vdW  Elec       q    Type
REMARK                         _______ _______ _______ _____ _____    ______ ____
ROOT
ATOM      1  C   UNL     1       4.117   6.169  17.835  0.00  0.00    +0.000 C 
ATOM      2  O   UNL     1       3.847   7.350  17.812  0.00  0.00    +0.000 OA
ENDROOT
BRANCH   1   3
ATOM      3  C   UNL     1       5.142   5.507  16.989  0.00  0.00    +0.000 A 
ATOM      4  C   UNL     1       4.774   5.095  15.698  0.00  0.00    +0.000 A 
ATOM      5  C   UNL     1       5.684   4.412  14.887  0.00  0.00    +0.000 A 
ATOM      6  C   UNL     1       6.959   4.139  15.363  0.00  0.00    +0.000 A 
ATOM      7  C   UNL     1       7.342   4.550  16.636  0.00  0.00    +0.000 A 
ATOM      8  C   UNL     1       6.436   5.237  17.458  0.00  0.00    +0.000 A 
ATOM      9 BR   UNL     1       7.050   5.654  19.208  0.00  0.00    +0.000 Br
ENDBRANCH   1   3
BRANCH   1  10
ATOM     10  O   UNL     1       3.621   5.242  18.704  0.00  0.00    +0.000 OA
BRANCH  10  16
ATOM     11  C   UNL     1       1.893   2.667  21.651  0.00  0.00    +0.000 C 
ATOM     12  N   UNL     1       2.252   3.162  20.323  0.00  0.00    +0.000 NA
ATOM     13  C   UNL     1       1.742   2.269  19.274  0.00  0.00    +0.000 C 
ATOM     14  C   UNL     1       2.114   2.770  17.876  0.00  0.00    +0.000 C 
ATOM     15  C   UNL     1       1.647   4.205  17.658  0.00  0.00    +0.000 C 
ATOM     16  C   UNL     1       2.184   5.117  18.755  0.00  0.00    +0.000 C 
ATOM     17  C   UNL     1       1.761   4.542  20.131  0.00  0.00    +0.000 C 
ENDBRANCH  10  16
ENDBRANCH   1  10
TORSDOF 3
ENDMDL
MODEL 3
REMARK VINA RESULT:      -6.7      2.676      5.566
REMARK  Name = 
REMARK  4 active torsions:
REMARK  status: ('A' for Active; 'I' for Inactive)
REMARK    1  A    between atoms: C_1  and  N_2
REMARK    2  A    between atoms: C_6  and  O_7
REMARK    3  A    between atoms: O_7  and  C_8
REMARK    4  A    between atoms: C_8  and  C_10
REMARK                            x       y       z     vdW  Elec       q    Type
REMARK                         _______ _______ _______ _____ _____    ______ ____
ROOT
ATOM      1  C   UNL     1       3.405   6.041  18.126  0.00  0.00    +0.000 C 
ATOM      2  O   UNL     1       2.867   7.064  17.761  0.00  0.00    +0.000 OA
ENDROOT
BRANCH   1   3
ATOM      3  C   UNL     1       2.709   4.758  18.398  0.00  0.00    +0.000 A 
ATOM      4  C   UNL     1       2.859   3.711  17.475  0.00  0.00    +0.000 A 
ATOM      5  C   UNL     1       2.174   2.507  17.653  0.00  0.00    +0.000 A 
ATOM      6  C   UNL     1       1.340   2.346  18.750  0.00  0.00    +0.000 A 
ATOM      7  C   UNL     1       1.189   3.370  19.681  0.00  0.00    +0.000 A 
ATOM      8  C   UNL     1       1.872   4.583  19.510  0.00  0.00    +0.000 A 
ATOM      9 BR   UNL     1       1.503   5.935  20.795  0.00  0.00    +0.000 Br
ENDBRANCH   1   3
BRANCH   1  10
ATOM     10  O   UNL     1       4.746   5.833  18.255  0.00  0.00    +0.000 OA
BRANCH  10  16
ATOM     11  C   UNL     1       5.528   4.198  14.380  0.00  0.00    +0.000 C 
ATOM     12  N   UNL     1       5.803   4.665  15.738  0.00  0.00    +0.000 NA
ATOM     13  C   UNL     1       7.225   4.502  16.070  0.00  0.00    +0.000 C 
ATOM     14  C   UNL     1       7.531   4.981  17.492  0.00  0.00    +0.000 C 
ATOM     15  C   UNL     1       7.073   6.420  17.703  0.00  0.00    +0.000 C 
ATOM     16  C   UNL     1       5.597   6.571  17.354  0.00  0.00    +0.000 C 
ATOM     17  C   UNL     1       5.376   6.069  15.903  0.00  0.00    +0.000 C 
ENDBRANCH  10  16
ENDBRANCH   1  10
TORSDOF 3
ENDMDL
MODEL 4
REMARK VINA RESULT:      -6.6      2.499      5.852
REMARK  Name = 
REMARK  4 active torsions:
REMARK  status: ('A' for Active; 'I' for Inactive)
REMARK    1  A    between atoms: C_1  and  N_2
REMARK    2  A    between atoms: C_6  and  O_7
REMARK    3  A    between atoms: O_7  and  C_8
REMARK    4  A    between atoms: C_8  and  C_10
REMARK                            x       y       z     vdW  Elec       q    Type
REMARK                         _______ _______ _______ _____ _____    ______ ____
ROOT
ATOM      1  C   UNL     1       3.451   5.715  18.874  0.00  0.00    +0.000 C 
ATOM      2  O   UNL     1       2.940   6.764  18.545  0.00  0.00    +0.000 OA
ENDROOT
BRANCH   1   3
ATOM      3  C   UNL     1       2.753   4.602  19.567  0.00  0.00    +0.000 A 
ATOM      4  C   UNL     1       2.528   4.714  20.947  0.00  0.00    +0.000 A 
ATOM      5  C   UNL     1       1.934   3.668  21.656  0.00  0.00    +0.000 A 
ATOM      6  C   UNL     1       1.564   2.509  20.987  0.00  0.00    +0.000 A 
ATOM      7  C   UNL     1       1.770   2.385  19.617  0.00  0.00    +0.000 A 
ATOM      8  C   UNL     1       2.367   3.431  18.897  0.00  0.00    +0.000 A 
ATOM      9 BR   UNL     1       2.683   3.098  17.052  0.00  0.00    +0.000 Br
ENDBRANCH   1   3
BRANCH   1  10
ATOM     10  O   UNL     1       4.719   5.305  18.583  0.00  0.00    +0.000 OA
BRANCH  10  16
ATOM     11  C   UNL     1       5.579   4.347  14.504  0.00  0.00    +0.000 C 
ATOM     12  N   UNL     1       5.832   4.608  15.920  0.00  0.00    +0.000 NA
ATOM     13  C   UNL     1       7.261   4.472  16.231  0.00  0.00    +0.000 C 
ATOM     14  C   UNL     1       7.545   4.738  17.713  0.00  0.00    +0.000 C 
ATOM     15  C   UNL     1       7.009   6.098  18.145  0.00  0.00    +0.000 C 
ATOM     16  C   UNL     1       5.526   6.222  17.815  0.00  0.00    +0.000 C 
ATOM     17  C   UNL     1       5.329   5.943  16.302  0.00  0.00    +0.000 C 
ENDBRANCH  10  16
ENDBRANCH   1  10
TORSDOF 3
ENDMDL
MODEL 5
REMARK VINA RESULT:      -6.6      1.569      2.400
REMARK  Name = 
REMARK  4 active torsions:
REMARK  status: ('A' for Active; 'I' for Inactive)
REMARK    1  A    between atoms: C_1  and  N_2
REMARK    2  A    between atoms: C_6  and  O_7
REMARK    3  A    between atoms: O_7  and  C_8
REMARK    4  A    between atoms: C_8  and  C_10
REMARK                            x       y       z     vdW  Elec       q    Type
REMARK                         _______ _______ _______ _____ _____    ______ ____
ROOT
ATOM      1  C   UNL     1       5.206   4.113  17.449  0.00  0.00    +0.000 C 
ATOM      2  O   UNL     1       5.005   3.627  16.357  0.00  0.00    +0.000 OA
ENDROOT
BRANCH   1   3
ATOM      3  C   UNL     1       6.203   5.173  17.745  0.00  0.00    +0.000 A 
ATOM      4  C   UNL     1       7.110   4.959  18.794  0.00  0.00    +0.000 A 
ATOM      5  C   UNL     1       8.026   5.951  19.152  0.00  0.00    +0.000 A 
ATOM      6  C   UNL     1       8.036   7.157  18.465  0.00  0.00    +0.000 A 
ATOM      7  C   UNL     1       7.150   7.381  17.415  0.00  0.00    +0.000 A 
ATOM      8  C   UNL     1       6.227   6.391  17.048  0.00  0.00    +0.000 A 
ATOM      9 BR   UNL     1       5.008   6.859  15.666  0.00  0.00    +0.000 Br
ENDBRANCH   1   3
BRANCH   1  10
ATOM     10  O   UNL     1       4.496   3.869  18.588  0.00  0.00    +0.000 OA
BRANCH  10  16
ATOM     11  C   UNL     1       1.623   2.906  21.607  0.00  0.00    +0.000 C 
ATOM     12  N   UNL     1       2.136   3.255  20.284  0.00  0.00    +0.000 NA
ATOM     13  C   UNL     1       1.044   3.357  19.307  0.00  0.00    +0.000 C 
ATOM     14  C   UNL     1       1.565   3.718  17.913  0.00  0.00    +0.000 C 
ATOM     15  C   UNL     1       2.401   4.993  17.945  0.00  0.00    +0.000 C 
ATOM     16  C   UNL     1       3.528   4.871  18.964  0.00  0.00    +0.000 C 
ATOM     17  C   UNL     1       2.915   4.509  20.342  0.00  0.00    +0.000 C 
ENDBRANCH  10  16
ENDBRANCH   1  10
TORSDOF 3
ENDMDL
MODEL 6
REMARK VINA RESULT:      -6.6      2.656      5.790
REMARK  Name = 
REMARK  4 active torsions:
REMARK  status: ('A' for Active; 'I' for Inactive)
REMARK    1  A    between atoms: C_1  and  N_2
REMARK    2  A    between atoms: C_6  and  O_7
REMARK    3  A    between atoms: O_7  and  C_8
REMARK    4  A    between atoms: C_8  and  C_10
REMARK                            x       y       z     vdW  Elec       q    Type
REMARK                         _______ _______ _______ _____ _____    ______ ____
ROOT
ATOM      1  C   UNL     1       4.284   3.233  18.436  0.00  0.00    +0.000 C 
ATOM      2  O   UNL     1       4.157   2.799  17.311  0.00  0.00    +0.000 OA
ENDROOT
BRANCH   1   3
ATOM      3  C   UNL     1       3.234   3.215  19.485  0.00  0.00    +0.000 A 
ATOM      4  C   UNL     1       3.511   2.556  20.693  0.00  0.00    +0.000 A 
ATOM      5  C   UNL     1       2.534   2.457  21.686  0.00  0.00    +0.000 A 
ATOM      6  C   UNL     1       1.280   3.013  21.474  0.00  0.00    +0.000 A 
ATOM      7  C   UNL     1       0.993   3.679  20.287  0.00  0.00    +0.000 A 
ATOM      8  C   UNL     1       1.968   3.784  19.284  0.00  0.00    +0.000 A 
ATOM      9 BR   UNL     1       1.417   4.630  17.672  0.00  0.00    +0.000 Br
ENDBRANCH   1   3
BRANCH   1  10
ATOM     10  O   UNL     1       5.431   3.719  18.991  0.00  0.00    +0.000 OA
BRANCH  10  16
ATOM     11  C   UNL     1       5.266   6.324  15.602  0.00  0.00    +0.000 C 
ATOM     12  N   UNL     1       5.821   5.669  16.785  0.00  0.00    +0.000 NA
ATOM     13  C   UNL     1       7.189   6.135  17.051  0.00  0.00    +0.000 C 
ATOM     14  C   UNL     1       7.788   5.454  18.284  0.00  0.00    +0.000 C 
ATOM     15  C   UNL     1       6.894   5.632  19.507  0.00  0.00    +0.000 C 
ATOM     16  C   UNL     1       5.480   5.144  19.213  0.00  0.00    +0.000 C 
ATOM     17  C   UNL     1       4.949   5.884  17.958  0.00  0.00    +0.000 C 
ENDBRANCH  10  16
ENDBRANCH   1  10
TORSDOF 3
ENDMDL
MODEL 7
REMARK VINA RESULT:      -6.5      2.596      5.936
REMARK  Name = 
REMARK  4 active torsions:
REMARK  status: ('A' for Active; 'I' for Inactive)
REMARK    1  A    between atoms: C_1  and  N_2
REMARK    2  A    between atoms: C_6  and  O_7
REMARK    3  A    between atoms: O_7  and  C_8
REMARK    4  A    between atoms: C_8  and  C_10
REMARK                            x       y       z     vdW  Elec       q    Type
REMARK                         _______ _______ _______ _____ _____    ______ ____
ROOT
ATOM      1  C   UNL     1       4.044   2.609  18.407  0.00  0.00    +0.000 C 
ATOM      2  O   UNL     1       3.892   1.809  17.509  0.00  0.00    +0.000 OA
ENDROOT
BRANCH   1   3
ATOM      3  C   UNL     1       3.056   2.893  19.478  0.00  0.00    +0.000 A 
ATOM      4  C   UNL     1       3.273   2.337  20.748  0.00  0.00    +0.000 A 
ATOM      5  C   UNL     1       2.340   2.521  21.771  0.00  0.00    +0.000 A 
ATOM      6  C   UNL     1       1.190   3.259  21.527  0.00  0.00    +0.000 A 
ATOM      7  C   UNL     1       0.964   3.826  20.277  0.00  0.00    +0.000 A 
ATOM      8  C   UNL     1       1.896   3.645  19.243  0.00  0.00    +0.000 A 
ATOM      9 BR   UNL     1       1.422   4.386  17.557  0.00  0.00    +0.000 Br
ENDBRANCH   1   3
BRANCH   1  10
ATOM     10  O   UNL     1       5.177   3.320  18.675  0.00  0.00    +0.000 OA
BRANCH  10  16
ATOM     11  C   UNL     1       5.993   4.007  14.533  0.00  0.00    +0.000 C 
ATOM     12  N   UNL     1       6.195   4.041  15.980  0.00  0.00    +0.000 NA
ATOM     13  C   UNL     1       7.456   4.714  16.318  0.00  0.00    +0.000 C 
ATOM     14  C   UNL     1       7.686   4.754  17.832  0.00  0.00    +0.000 C 
ATOM     15  C   UNL     1       6.505   5.391  18.557  0.00  0.00    +0.000 C 
ATOM     16  C   UNL     1       5.206   4.680  18.194  0.00  0.00    +0.000 C 
ATOM     17  C   UNL     1       5.050   4.689  16.651  0.00  0.00    +0.000 C 
ENDBRANCH  10  16
ENDBRANCH   1  10
TORSDOF 3
ENDMDL
MODEL 8
REMARK VINA RESULT:      -6.4      2.347      5.585
REMARK  Name = 
REMARK  4 active torsions:
REMARK  status: ('A' for Active; 'I' for Inactive)
REMARK    1  A    between atoms: C_1  and  N_2
REMARK    2  A    between atoms: C_6  and  O_7
REMARK    3  A    between atoms: O_7  and  C_8
REMARK    4  A    between atoms: C_8  and  C_10
REMARK                            x       y       z     vdW  Elec       q    Type
REMARK                         _______ _______ _______ _____ _____    ______ ____
ROOT
ATOM      1  C   UNL     1       2.068   4.409  17.691  0.00  0.00    +0.000 C 
ATOM      2  O   UNL     1       1.158   4.191  16.920  0.00  0.00    +0.000 OA
ENDROOT
BRANCH   1   3
ATOM      3  C   UNL     1       2.094   4.009  19.121  0.00  0.00    +0.000 A 
ATOM      4  C   UNL     1       1.948   2.648  19.434  0.00  0.00    +0.000 A 
ATOM      5  C   UNL     1       1.902   2.229  20.766  0.00  0.00    +0.000 A 
ATOM      6  C   UNL     1       1.999   3.167  21.784  0.00  0.00    +0.000 A 
ATOM      7  C   UNL     1       2.154   4.518  21.491  0.00  0.00    +0.000 A 
ATOM      8  C   UNL     1       2.202   4.948  20.157  0.00  0.00    +0.000 A 
ATOM      9 BR   UNL     1       2.315   6.828  19.891  0.00  0.00    +0.000 Br
ENDBRANCH   1   3
BRANCH   1  10
ATOM     10  O   UNL     1       3.277   4.958  17.382  0.00  0.00    +0.000 OA
BRANCH  10  16
ATOM     11  C   UNL     1       7.109   5.686  19.140  0.00  0.00    +0.000 C 
ATOM     12  N   UNL     1       6.105   5.530  18.089  0.00  0.00    +0.000 NA
ATOM     13  C   UNL     1       6.695   5.751  16.762  0.00  0.00    +0.000 C 
ATOM     14  C   UNL     1       5.655   5.597  15.649  0.00  0.00    +0.000 C 
ATOM     15  C   UNL     1       4.955   4.244  15.726  0.00  0.00    +0.000 C 
ATOM     16  C   UNL     1       4.349   4.031  17.109  0.00  0.00    +0.000 C 
ATOM     17  C   UNL     1       5.466   4.201  18.172  0.00  0.00    +0.000 C 
ENDBRANCH  10  16
ENDBRANCH   1  10
TORSDOF 3
ENDMDL
MODEL 9
REMARK VINA RESULT:      -6.4      1.986      2.893
REMARK  Name = 
REMARK  4 active torsions:
REMARK  status: ('A' for Active; 'I' for Inactive)
REMARK    1  A    between atoms: C_1  and  N_2
REMARK    2  A    between atoms: C_6  and  O_7
REMARK    3  A    between atoms: O_7  and  C_8
REMARK    4  A    between atoms: C_8  and  C_10
REMARK                            x       y       z     vdW  Elec       q    Type
REMARK                         _______ _______ _______ _____ _____    ______ ____
ROOT
ATOM      1  C   UNL     1       4.901   4.116  19.066  0.00  0.00    +0.000 C 
ATOM      2  O   UNL     1       4.989   3.063  19.659  0.00  0.00    +0.000 OA
ENDROOT
BRANCH   1   3
ATOM      3  C   UNL     1       5.513   4.410  17.745  0.00  0.00    +0.000 A 
ATOM      4  C   UNL     1       4.892   3.896  16.596  0.00  0.00    +0.000 A 
ATOM      5  C   UNL     1       5.463   4.090  15.336  0.00  0.00    +0.000 A 
ATOM      6  C   UNL     1       6.652   4.796  15.222  0.00  0.00    +0.000 A 
ATOM      7  C   UNL     1       7.275   5.321  16.350  0.00  0.00    +0.000 A 
ATOM      8  C   UNL     1       6.709   5.131  17.620  0.00  0.00    +0.000 A 
ATOM      9 BR   UNL     1       7.708   5.811  19.087  0.00  0.00    +0.000 Br
ENDBRANCH   1   3
BRANCH   1  10
ATOM     10  O   UNL     1       4.147   5.192  19.433  0.00  0.00    +0.000 OA
BRANCH  10  16
ATOM     11  C   UNL     1       2.301   8.668  17.758  0.00  0.00    +0.000 C 
ATOM     12  N   UNL     1       2.572   7.608  18.728  0.00  0.00    +0.000 NA
ATOM     13  C   UNL     1       1.717   7.752  19.914  0.00  0.00    +0.000 C 
ATOM     14  C   UNL     1       1.990   6.652  20.943  0.00  0.00    +0.000 C 
ATOM     15  C   UNL     1       1.852   5.265  20.325  0.00  0.00    +0.000 C 
ATOM     16  C   UNL     1       2.745   5.134  19.096  0.00  0.00    +0.000 C 
ATOM     17  C   UNL     1       2.401   6.279  18.108  0.00  0.00    +0.000 C 
ENDBRANCH  10  16
ENDBRANCH   1  10
TORSDOF 3
ENDMDL
