MODEL 1
REMARK VINA RESULT:      -6.2      0.000      0.000
REMARK  Name = 
REMARK  8 active torsions:
REMARK  status: ('A' for Active; 'I' for Inactive)
REMARK    1  A    between atoms: C_1  and  O_2
REMARK    2  A    between atoms: O_2  and  C_3
REMARK    3  A    between atoms: C_5  and  C_6
REMARK    4  A    between atoms: C_6  and  C_7
REMARK    5  A    between atoms: C_9  and  C_10
REMARK    6  A    between atoms: C_10  and  O_12
REMARK    7  A    between atoms: C_17  and  O_18
REMARK    8  A    between atoms: O_18  and  C_19
REMARK                            x       y       z     vdW  Elec       q    Type
REMARK                         _______ _______ _______ _____ _____    ______ ____
ROOT
ATOM      1  C   UNL     1       4.053   3.399  19.237  0.00  0.00    +0.000 A 
ATOM      2  C   UNL     1       4.581   3.864  18.023  0.00  0.00    +0.000 A 
ATOM      3  C   UNL     1       4.321   5.158  17.535  0.00  0.00    +0.000 A 
ATOM      4  C   UNL     1       3.519   6.013  18.314  0.00  0.00    +0.000 A 
ATOM      5 BR   UNL     1       3.272   7.827  17.758  0.00  0.00    +0.000 Br
ATOM      6  C   UNL     1       2.907   5.525  19.493  0.00  0.00    +0.000 A 
ATOM      7 BR   UNL     1       1.666   6.608  20.481  0.00  0.00    +0.000 Br
ATOM      8  C   UNL     1       3.171   4.217  19.959  0.00  0.00    +0.000 A 
ENDROOT
BRANCH   1  10
ATOM      9  C   UNL     1       3.848   1.063  18.851  0.00  0.00    +0.000 C 
ATOM     10  O   UNL     1       4.300   2.126  19.685  0.00  0.00    +0.000 OA
ENDBRANCH   1  10
BRANCH   8  11
ATOM     11  O   UNL     1       2.453   3.817  21.062  0.00  0.00    +0.000 OA
ATOM     12  C   UNL     1       1.299   3.016  20.854  0.00  0.00    +0.000 C 
ENDBRANCH   8  11
BRANCH   3  13
ATOM     13  C   UNL     1       4.817   5.499  16.144  0.00  0.00    +0.000 C 
BRANCH  13  14
ATOM     14  C   UNL     1       5.336   4.384  15.278  0.00  0.00    +0.000 C 
ATOM     15  C   UNL     1       6.809   4.220  14.993  0.00  0.00    +0.000 C 
ATOM     16  C   UNL     1       5.854   4.541  13.859  0.00  0.00    +0.000 C 
BRANCH  16  17
ATOM     17  C   UNL     1       5.630   3.547  12.769  0.00  0.00    +0.000 C 
ATOM     18  O   UNL     1       4.581   3.520  12.155  0.00  0.00    +0.000 OA
BRANCH  17  19
ATOM     19  O   UNL     1       6.666   2.721  12.498  0.00  0.00    +0.000 OA
ATOM     20  H   UNL     1       7.105   2.361  13.286  0.00  0.00    +0.000 HD
ENDBRANCH  17  19
ENDBRANCH  16  17
ENDBRANCH  13  14
ENDBRANCH   3  13
TORSDOF 6
ENDMDL
MODEL 2
REMARK VINA RESULT:      -5.9      3.303      6.655
REMARK  Name = 
REMARK  8 active torsions:
REMARK  status: ('A' for Active; 'I' for Inactive)
REMARK    1  A    between atoms: C_1  and  O_2
REMARK    2  A    between atoms: O_2  and  C_3
REMARK    3  A    between atoms: C_5  and  C_6
REMARK    4  A    between atoms: C_6  and  C_7
REMARK    5  A    between atoms: C_9  and  C_10
REMARK    6  A    between atoms: C_10  and  O_12
REMARK    7  A    between atoms: C_17  and  O_18
REMARK    8  A    between atoms: O_18  and  C_19
REMARK                            x       y       z     vdW  Elec       q    Type
REMARK                         _______ _______ _______ _____ _____    ______ ____
ROOT
ATOM      1  C   UNL     1       3.690   7.027  17.547  0.00  0.00    +0.000 A 
ATOM      2  C   UNL     1       2.616   6.188  17.878  0.00  0.00    +0.000 A 
ATOM      3  C   UNL     1       2.694   4.786  17.775  0.00  0.00    +0.000 A 
ATOM      4  C   UNL     1       3.908   4.219  17.344  0.00  0.00    +0.000 A 
ATOM      5 BR   UNL     1       4.101   2.316  17.339  0.00  0.00    +0.000 Br
ATOM      6  C   UNL     1       4.966   5.057  16.921  0.00  0.00    +0.000 A 
ATOM      7 BR   UNL     1       6.567   4.317  16.160  0.00  0.00    +0.000 Br
ATOM      8  C   UNL     1       4.862   6.464  17.020  0.00  0.00    +0.000 A 
ENDROOT
BRANCH   1  10
ATOM      9  C   UNL     1       2.278   8.914  17.851  0.00  0.00    +0.000 C 
ATOM     10  O   UNL     1       3.586   8.391  17.634  0.00  0.00    +0.000 OA
ENDBRANCH   1  10
BRANCH   8  11
ATOM     11  O   UNL     1       5.912   7.181  16.496  0.00  0.00    +0.000 OA
ATOM     12  C   UNL     1       6.962   7.566  17.372  0.00  0.00    +0.000 C 
ENDBRANCH   8  11
BRANCH   3  13
ATOM     13  C   UNL     1       1.426   3.991  18.013  0.00  0.00    +0.000 C 
BRANCH  13  14
ATOM     14  C   UNL     1       1.159   3.469  19.398  0.00  0.00    +0.000 C 
ATOM     15  C   UNL     1       0.699   4.376  20.513  0.00  0.00    +0.000 C 
ATOM     16  C   UNL     1       2.049   3.692  20.608  0.00  0.00    +0.000 C 
BRANCH  16  17
ATOM     17  C   UNL     1       2.295   2.672  21.669  0.00  0.00    +0.000 C 
ATOM     18  O   UNL     1       1.425   2.375  22.464  0.00  0.00    +0.000 OA
BRANCH  17  19
ATOM     19  O   UNL     1       3.517   2.093  21.661  0.00  0.00    +0.000 OA
ATOM     20  H   UNL     1       3.500   1.127  21.560  0.00  0.00    +0.000 HD
ENDBRANCH  17  19
ENDBRANCH  16  17
ENDBRANCH  13  14
ENDBRANCH   3  13
TORSDOF 6
ENDMDL
MODEL 3
REMARK VINA RESULT:      -5.9      3.814      4.611
REMARK  Name = 
REMARK  8 active torsions:
REMARK  status: ('A' for Active; 'I' for Inactive)
REMARK    1  A    between atoms: C_1  and  O_2
REMARK    2  A    between atoms: O_2  and  C_3
REMARK    3  A    between atoms: C_5  and  C_6
REMARK    4  A    between atoms: C_6  and  C_7
REMARK    5  A    between atoms: C_9  and  C_10
REMARK    6  A    between atoms: C_10  and  O_12
REMARK    7  A    between atoms: C_17  and  O_18
REMARK    8  A    between atoms: O_18  and  C_19
REMARK                            x       y       z     vdW  Elec       q    Type
REMARK                         _______ _______ _______ _____ _____    ______ ____
ROOT
ATOM      1  C   UNL     1       2.047   5.641  19.693  0.00  0.00    +0.000 A 
ATOM      2  C   UNL     1       2.823   6.434  18.834  0.00  0.00    +0.000 A 
ATOM      3  C   UNL     1       3.641   5.882  17.832  0.00  0.00    +0.000 A 
ATOM      4  C   UNL     1       3.656   4.482  17.683  0.00  0.00    +0.000 A 
ATOM      5 BR   UNL     1       4.635   3.706  16.234  0.00  0.00    +0.000 Br
ATOM      6  C   UNL     1       2.950   3.669  18.600  0.00  0.00    +0.000 A 
ATOM      7 BR   UNL     1       3.093   1.755  18.535  0.00  0.00    +0.000 Br
ATOM      8  C   UNL     1       2.144   4.244  19.610  0.00  0.00    +0.000 A 
ENDROOT
BRANCH   1  10
ATOM      9  C   UNL     1       1.422   7.601  20.882  0.00  0.00    +0.000 C 
ATOM     10  O   UNL     1       1.273   6.199  20.678  0.00  0.00    +0.000 OA
ENDBRANCH   1  10
BRANCH   8  11
ATOM     11  O   UNL     1       1.578   3.363  20.501  0.00  0.00    +0.000 OA
ATOM     12  C   UNL     1       2.261   3.114  21.720  0.00  0.00    +0.000 C 
ENDBRANCH   8  11
BRANCH   3  13
ATOM     13  C   UNL     1       4.549   6.823  17.065  0.00  0.00    +0.000 C 
BRANCH  13  14
ATOM     14  C   UNL     1       5.878   7.185  17.671  0.00  0.00    +0.000 C 
ATOM     15  C   UNL     1       7.097   7.436  16.817  0.00  0.00    +0.000 C 
ATOM     16  C   UNL     1       7.078   6.260  17.774  0.00  0.00    +0.000 C 
BRANCH  16  17
ATOM     17  C   UNL     1       8.015   6.227  18.934  0.00  0.00    +0.000 C 
ATOM     18  O   UNL     1       8.145   5.221  19.604  0.00  0.00    +0.000 OA
BRANCH  17  19
ATOM     19  O   UNL     1       8.716   7.361  19.162  0.00  0.00    +0.000 OA
ATOM     20  H   UNL     1       9.656   7.217  19.356  0.00  0.00    +0.000 HD
ENDBRANCH  17  19
ENDBRANCH  16  17
ENDBRANCH  13  14
ENDBRANCH   3  13
TORSDOF 6
ENDMDL
MODEL 4
REMARK VINA RESULT:      -5.8      3.701      7.489
REMARK  Name = 
REMARK  8 active torsions:
REMARK  status: ('A' for Active; 'I' for Inactive)
REMARK    1  A    between atoms: C_1  and  O_2
REMARK    2  A    between atoms: O_2  and  C_3
REMARK    3  A    between atoms: C_5  and  C_6
REMARK    4  A    between atoms: C_6  and  C_7
REMARK    5  A    between atoms: C_9  and  C_10
REMARK    6  A    between atoms: C_10  and  O_12
REMARK    7  A    between atoms: C_17  and  O_18
REMARK    8  A    between atoms: O_18  and  C_19
REMARK                            x       y       z     vdW  Elec       q    Type
REMARK                         _______ _______ _______ _____ _____    ______ ____
ROOT
ATOM      1  C   UNL     1       2.585   4.510  20.680  0.00  0.00    +0.000 A 
ATOM      2  C   UNL     1       2.046   5.795  20.846  0.00  0.00    +0.000 A 
ATOM      3  C   UNL     1       2.244   6.823  19.906  0.00  0.00    +0.000 A 
ATOM      4  C   UNL     1       2.994   6.531  18.751  0.00  0.00    +0.000 A 
ATOM      5 BR   UNL     1       3.153   7.857  17.381  0.00  0.00    +0.000 Br
ATOM      6  C   UNL     1       3.618   5.269  18.617  0.00  0.00    +0.000 A 
ATOM      7 BR   UNL     1       4.792   4.901  17.142  0.00  0.00    +0.000 Br
ATOM      8  C   UNL     1       3.417   4.254  19.580  0.00  0.00    +0.000 A 
ENDROOT
BRANCH   1  10
ATOM      9  C   UNL     1       1.219   2.740  21.484  0.00  0.00    +0.000 C 
ATOM     10  O   UNL     1       2.399   3.528  21.619  0.00  0.00    +0.000 OA
ENDBRANCH   1  10
BRANCH   8  11
ATOM     11  O   UNL     1       4.144   3.100  19.397  0.00  0.00    +0.000 OA
ATOM     12  C   UNL     1       3.497   1.992  18.788  0.00  0.00    +0.000 C 
ENDBRANCH   8  11
BRANCH   3  13
ATOM     13  C   UNL     1       1.745   8.209  20.263  0.00  0.00    +0.000 C 
BRANCH  13  14
ATOM     14  C   UNL     1       0.850   8.359  21.462  0.00  0.00    +0.000 C 
ATOM     15  C   UNL     1      -0.649   8.215  21.357  0.00  0.00    +0.000 C 
ATOM     16  C   UNL     1      -0.048   9.551  21.746  0.00  0.00    +0.000 C 
BRANCH  16  17
ATOM     17  C   UNL     1      -0.293  10.112  23.106  0.00  0.00    +0.000 C 
ATOM     18  O   UNL     1      -0.889  11.161  23.251  0.00  0.00    +0.000 OA
BRANCH  17  19
ATOM     19  O   UNL     1       0.158   9.370  24.143  0.00  0.00    +0.000 OA
ATOM     20  H   UNL     1       0.385   8.454  23.910  0.00  0.00    +0.000 HD
ENDBRANCH  17  19
ENDBRANCH  16  17
ENDBRANCH  13  14
ENDBRANCH   3  13
TORSDOF 6
ENDMDL
MODEL 5
REMARK VINA RESULT:      -5.8      3.389      7.180
REMARK  Name = 
REMARK  8 active torsions:
REMARK  status: ('A' for Active; 'I' for Inactive)
REMARK    1  A    between atoms: C_1  and  O_2
REMARK    2  A    between atoms: O_2  and  C_3
REMARK    3  A    between atoms: C_5  and  C_6
REMARK    4  A    between atoms: C_6  and  C_7
REMARK    5  A    between atoms: C_9  and  C_10
REMARK    6  A    between atoms: C_10  and  O_12
REMARK    7  A    between atoms: C_17  and  O_18
REMARK    8  A    between atoms: O_18  and  C_19
REMARK                            x       y       z     vdW  Elec       q    Type
REMARK                         _______ _______ _______ _____ _____    ______ ____
ROOT
ATOM      1  C   UNL     1       1.698   3.831  19.630  0.00  0.00    +0.000 A 
ATOM      2  C   UNL     1       1.651   5.157  20.088  0.00  0.00    +0.000 A 
ATOM      3  C   UNL     1       2.365   6.196  19.463  0.00  0.00    +0.000 A 
ATOM      4  C   UNL     1       3.130   5.884  18.324  0.00  0.00    +0.000 A 
ATOM      5 BR   UNL     1       3.988   7.296  17.359  0.00  0.00    +0.000 Br
ATOM      6  C   UNL     1       3.258   4.539  17.907  0.00  0.00    +0.000 A 
ATOM      7 BR   UNL     1       4.436   4.058  16.469  0.00  0.00    +0.000 Br
ATOM      8  C   UNL     1       2.543   3.507  18.558  0.00  0.00    +0.000 A 
ENDROOT
BRANCH   1  10
ATOM      9  C   UNL     1       1.347   2.603  21.633  0.00  0.00    +0.000 C 
ATOM     10  O   UNL     1       1.012   2.829  20.266  0.00  0.00    +0.000 OA
ENDBRANCH   1  10
BRANCH   8  11
ATOM     11  O   UNL     1       2.812   2.228  18.130  0.00  0.00    +0.000 OA
ATOM     12  C   UNL     1       3.736   1.452  18.879  0.00  0.00    +0.000 C 
ENDBRANCH   8  11
BRANCH   3  13
ATOM     13  C   UNL     1       2.361   7.555  20.134  0.00  0.00    +0.000 C 
BRANCH  13  14
ATOM     14  C   UNL     1       1.130   7.976  20.889  0.00  0.00    +0.000 C 
ATOM     15  C   UNL     1       0.285   9.144  20.441  0.00  0.00    +0.000 C 
ATOM     16  C   UNL     1       1.016   9.210  21.767  0.00  0.00    +0.000 C 
BRANCH  16  17
ATOM     17  C   UNL     1       0.245   9.263  23.043  0.00  0.00    +0.000 C 
ATOM     18  O   UNL     1       0.774   9.618  24.078  0.00  0.00    +0.000 OA
BRANCH  17  19
ATOM     19  O   UNL     1      -1.062   8.927  22.959  0.00  0.00    +0.000 OA
ATOM     20  H   UNL     1      -1.465   9.103  22.092  0.00  0.00    +0.000 HD
ENDBRANCH  17  19
ENDBRANCH  16  17
ENDBRANCH  13  14
ENDBRANCH   3  13
TORSDOF 6
ENDMDL
MODEL 6
REMARK VINA RESULT:      -5.8      3.957      6.864
REMARK  Name = 
REMARK  8 active torsions:
REMARK  status: ('A' for Active; 'I' for Inactive)
REMARK    1  A    between atoms: C_1  and  O_2
REMARK    2  A    between atoms: O_2  and  C_3
REMARK    3  A    between atoms: C_5  and  C_6
REMARK    4  A    between atoms: C_6  and  C_7
REMARK    5  A    between atoms: C_9  and  C_10
REMARK    6  A    between atoms: C_10  and  O_12
REMARK    7  A    between atoms: C_17  and  O_18
REMARK    8  A    between atoms: O_18  and  C_19
REMARK                            x       y       z     vdW  Elec       q    Type
REMARK                         _______ _______ _______ _____ _____    ______ ____
ROOT
ATOM      1  C   UNL     1       3.941   6.080  17.611  0.00  0.00    +0.000 A 
ATOM      2  C   UNL     1       3.229   6.700  18.648  0.00  0.00    +0.000 A 
ATOM      3  C   UNL     1       2.400   5.980  19.528  0.00  0.00    +0.000 A 
ATOM      4  C   UNL     1       2.309   4.585  19.364  0.00  0.00    +0.000 A 
ATOM      5 BR   UNL     1       1.315   3.556  20.634  0.00  0.00    +0.000 Br
ATOM      6  C   UNL     1       2.949   3.962  18.267  0.00  0.00    +0.000 A 
ATOM      7 BR   UNL     1       2.700   2.091  17.912  0.00  0.00    +0.000 Br
ATOM      8  C   UNL     1       3.767   4.706  17.386  0.00  0.00    +0.000 A 
ENDROOT
BRANCH   1  10
ATOM      9  C   UNL     1       6.039   7.120  17.207  0.00  0.00    +0.000 C 
ATOM     10  O   UNL     1       4.727   6.802  16.750  0.00  0.00    +0.000 OA
ENDBRANCH   1  10
BRANCH   8  11
ATOM     11  O   UNL     1       4.265   4.018  16.304  0.00  0.00    +0.000 OA
ATOM     12  C   UNL     1       5.655   3.730  16.277  0.00  0.00    +0.000 C 
ENDBRANCH   8  11
BRANCH   3  13
ATOM     13  C   UNL     1       1.562   6.771  20.513  0.00  0.00    +0.000 C 
BRANCH  13  14
ATOM     14  C   UNL     1       1.703   8.269  20.528  0.00  0.00    +0.000 C 
ATOM     15  C   UNL     1       1.007   9.121  21.562  0.00  0.00    +0.000 C 
ATOM     16  C   UNL     1       0.633   9.258  20.100  0.00  0.00    +0.000 C 
BRANCH  16  17
ATOM     17  C   UNL     1       0.910  10.532  19.375  0.00  0.00    +0.000 C 
ATOM     18  O   UNL     1       1.003  11.585  19.975  0.00  0.00    +0.000 OA
BRANCH  17  19
ATOM     19  O   UNL     1       1.077  10.427  18.037  0.00  0.00    +0.000 OA
ATOM     20  H   UNL     1       1.606   9.661  17.759  0.00  0.00    +0.000 HD
ENDBRANCH  17  19
ENDBRANCH  16  17
ENDBRANCH  13  14
ENDBRANCH   3  13
TORSDOF 6
ENDMDL
MODEL 7
REMARK VINA RESULT:      -5.8      4.301      6.773
REMARK  Name = 
REMARK  8 active torsions:
REMARK  status: ('A' for Active; 'I' for Inactive)
REMARK    1  A    between atoms: C_1  and  O_2
REMARK    2  A    between atoms: O_2  and  C_3
REMARK    3  A    between atoms: C_5  and  C_6
REMARK    4  A    between atoms: C_6  and  C_7
REMARK    5  A    between atoms: C_9  and  C_10
REMARK    6  A    between atoms: C_10  and  O_12
REMARK    7  A    between atoms: C_17  and  O_18
REMARK    8  A    between atoms: O_18  and  C_19
REMARK                            x       y       z     vdW  Elec       q    Type
REMARK                         _______ _______ _______ _____ _____    ______ ____
ROOT
ATOM      1  C   UNL     1       5.312   6.461  17.050  0.00  0.00    +0.000 A 
ATOM      2  C   UNL     1       4.186   7.237  17.362  0.00  0.00    +0.000 A 
ATOM      3  C   UNL     1       3.008   6.678  17.892  0.00  0.00    +0.000 A 
ATOM      4  C   UNL     1       2.981   5.292  18.132  0.00  0.00    +0.000 A 
ATOM      5 BR   UNL     1       1.456   4.522  18.993  0.00  0.00    +0.000 Br
ATOM      6  C   UNL     1       4.075   4.487  17.737  0.00  0.00    +0.000 A 
ATOM      7 BR   UNL     1       3.997   2.573  17.887  0.00  0.00    +0.000 Br
ATOM      8  C   UNL     1       5.245   5.067  17.194  0.00  0.00    +0.000 A 
ENDROOT
BRANCH   1  10
ATOM      9  C   UNL     1       7.456   7.410  17.440  0.00  0.00    +0.000 C 
ATOM     10  O   UNL     1       6.443   7.022  16.515  0.00  0.00    +0.000 OA
ENDBRANCH   1  10
BRANCH   8  11
ATOM     11  O   UNL     1       6.207   4.185  16.761  0.00  0.00    +0.000 OA
ATOM     12  C   UNL     1       6.294   3.921  15.369  0.00  0.00    +0.000 C 
ENDBRANCH   8  11
BRANCH   3  13
ATOM     13  C   UNL     1       1.805   7.587  18.047  0.00  0.00    +0.000 C 
BRANCH  13  14
ATOM     14  C   UNL     1       1.989   8.900  18.757  0.00  0.00    +0.000 C 
ATOM     15  C   UNL     1       0.968   9.421  19.739  0.00  0.00    +0.000 C 
ATOM     16  C   UNL     1       1.228  10.179  18.452  0.00  0.00    +0.000 C 
BRANCH  16  17
ATOM     17  C   UNL     1       1.828  11.544  18.498  0.00  0.00    +0.000 C 
ATOM     18  O   UNL     1       1.719  12.241  19.488  0.00  0.00    +0.000 OA
BRANCH  17  19
ATOM     19  O   UNL     1       2.513  11.927  17.396  0.00  0.00    +0.000 OA
ATOM     20  H   UNL     1       3.413  11.566  17.340  0.00  0.00    +0.000 HD
ENDBRANCH  17  19
ENDBRANCH  16  17
ENDBRANCH  13  14
ENDBRANCH   3  13
TORSDOF 6
ENDMDL
MODEL 8
REMARK VINA RESULT:      -5.7      3.706      6.159
REMARK  Name = 
REMARK  8 active torsions:
REMARK  status: ('A' for Active; 'I' for Inactive)
REMARK    1  A    between atoms: C_1  and  O_2
REMARK    2  A    between atoms: O_2  and  C_3
REMARK    3  A    between atoms: C_5  and  C_6
REMARK    4  A    between atoms: C_6  and  C_7
REMARK    5  A    between atoms: C_9  and  C_10
REMARK    6  A    between atoms: C_10  and  O_12
REMARK    7  A    between atoms: C_17  and  O_18
REMARK    8  A    between atoms: O_18  and  C_19
REMARK                            x       y       z     vdW  Elec       q    Type
REMARK                         _______ _______ _______ _____ _____    ______ ____
ROOT
ATOM      1  C   UNL     1       1.905   3.891  18.470  0.00  0.00    +0.000 A 
ATOM      2  C   UNL     1       1.856   5.257  18.786  0.00  0.00    +0.000 A 
ATOM      3  C   UNL     1       2.800   6.178  18.296  0.00  0.00    +0.000 A 
ATOM      4  C   UNL     1       3.812   5.701  17.442  0.00  0.00    +0.000 A 
ATOM      5 BR   UNL     1       5.019   6.947  16.635  0.00  0.00    +0.000 Br
ATOM      6  C   UNL     1       3.926   4.313  17.191  0.00  0.00    +0.000 A 
ATOM      7 BR   UNL     1       5.399   3.611  16.177  0.00  0.00    +0.000 Br
ATOM      8  C   UNL     1       2.974   3.402  17.704  0.00  0.00    +0.000 A 
ENDROOT
BRANCH   1  10
ATOM      9  C   UNL     1       0.946   2.879  20.395  0.00  0.00    +0.000 C 
ATOM     10  O   UNL     1       0.988   3.005  18.976  0.00  0.00    +0.000 OA
ENDBRANCH   1  10
BRANCH   8  11
ATOM     11  O   UNL     1       3.233   2.071  17.475  0.00  0.00    +0.000 OA
ATOM     12  C   UNL     1       3.777   1.303  18.538  0.00  0.00    +0.000 C 
ENDBRANCH   8  11
BRANCH   3  13
ATOM     13  C   UNL     1       2.739   7.598  18.823  0.00  0.00    +0.000 C 
BRANCH  13  14
ATOM     14  C   UNL     1       1.731   8.539  18.224  0.00  0.00    +0.000 C 
ATOM     15  C   UNL     1       2.122   9.909  17.724  0.00  0.00    +0.000 C 
ATOM     16  C   UNL     1       1.175   9.780  18.900  0.00  0.00    +0.000 C 
BRANCH  16  17
ATOM     17  C   UNL     1      -0.238  10.242  18.775  0.00  0.00    +0.000 C 
ATOM     18  O   UNL     1      -1.066   9.959  19.619  0.00  0.00    +0.000 OA
BRANCH  17  19
ATOM     19  O   UNL     1      -0.517  11.008  17.695  0.00  0.00    +0.000 OA
ATOM     20  H   UNL     1      -1.302  11.570  17.796  0.00  0.00    +0.000 HD
ENDBRANCH  17  19
ENDBRANCH  16  17
ENDBRANCH  13  14
ENDBRANCH   3  13
TORSDOF 6
ENDMDL
MODEL 9
REMARK VINA RESULT:      -5.7      2.659      3.728
REMARK  Name = 
REMARK  8 active torsions:
REMARK  status: ('A' for Active; 'I' for Inactive)
REMARK    1  A    between atoms: C_1  and  O_2
REMARK    2  A    between atoms: O_2  and  C_3
REMARK    3  A    between atoms: C_5  and  C_6
REMARK    4  A    between atoms: C_6  and  C_7
REMARK    5  A    between atoms: C_9  and  C_10
REMARK    6  A    between atoms: C_10  and  O_12
REMARK    7  A    between atoms: C_17  and  O_18
REMARK    8  A    between atoms: O_18  and  C_19
REMARK                            x       y       z     vdW  Elec       q    Type
REMARK                         _______ _______ _______ _____ _____    ______ ____
ROOT
ATOM      1  C   UNL     1       2.888   6.435  18.738  0.00  0.00    +0.000 A 
ATOM      2  C   UNL     1       3.450   5.715  17.673  0.00  0.00    +0.000 A 
ATOM      3  C   UNL     1       3.489   4.308  17.652  0.00  0.00    +0.000 A 
ATOM      4  C   UNL     1       2.920   3.612  18.735  0.00  0.00    +0.000 A 
ATOM      5 BR   UNL     1       2.818   1.703  18.669  0.00  0.00    +0.000 Br
ATOM      6  C   UNL     1       2.434   4.327  19.855  0.00  0.00    +0.000 A 
ATOM      7 BR   UNL     1       1.816   3.405  21.422  0.00  0.00    +0.000 Br
ATOM      8  C   UNL     1       2.416   5.741  19.861  0.00  0.00    +0.000 A 
ENDROOT
BRANCH   1  10
ATOM      9  C   UNL     1       2.201   8.443  17.669  0.00  0.00    +0.000 C 
ATOM     10  O   UNL     1       2.879   7.807  18.749  0.00  0.00    +0.000 OA
ENDBRANCH   1  10
BRANCH   8  11
ATOM     11  O   UNL     1       2.007   6.330  21.035  0.00  0.00    +0.000 OA
ATOM     12  C   UNL     1       1.001   7.330  20.966  0.00  0.00    +0.000 C 
ENDBRANCH   8  11
BRANCH   3  13
ATOM     13  C   UNL     1       4.255   3.641  16.527  0.00  0.00    +0.000 C 
BRANCH  13  14
ATOM     14  C   UNL     1       5.050   4.510  15.592  0.00  0.00    +0.000 C 
ATOM     15  C   UNL     1       5.453   4.035  14.217  0.00  0.00    +0.000 C 
ATOM     16  C   UNL     1       6.519   4.324  15.255  0.00  0.00    +0.000 C 
BRANCH  16  17
ATOM     17  C   UNL     1       7.481   5.445  15.045  0.00  0.00    +0.000 C 
ATOM     18  O   UNL     1       8.016   5.615  13.967  0.00  0.00    +0.000 OA
BRANCH  17  19
ATOM     19  O   UNL     1       7.684   6.258  16.107  0.00  0.00    +0.000 OA
ATOM     20  H   UNL     1       7.401   7.176  15.966  0.00  0.00    +0.000 HD
ENDBRANCH  17  19
ENDBRANCH  16  17
ENDBRANCH  13  14
ENDBRANCH   3  13
TORSDOF 6
ENDMDL
