MODEL 1
REMARK VINA RESULT:      -8.2      0.000      0.000
REMARK  Name = 
REMARK  5 active torsions:
REMARK  status: ('A' for Active; 'I' for Inactive)
REMARK    1  A    between atoms: C_2  and  C_22
REMARK    2  A    between atoms: N_3  and  C_4
REMARK    3  A    between atoms: C_4  and  C_5
REMARK    4  A    between atoms: C_5  and  N_6
REMARK    5  A    between atoms: C_11  and  C_12
REMARK                            x       y       z     vdW  Elec       q    Type
REMARK                         _______ _______ _______ _____ _____    ______ ____
ROOT
ATOM      1  N   UNL     1       3.306   4.561  19.107  0.00  0.00    +0.000 N 
ATOM      2  C   UNL     1       2.404   4.196  20.071  0.00  0.00    +0.000 C 
ATOM      3  O   UNL     1       2.148   3.066  20.454  0.00  0.00    +0.000 OA
ATOM      4  S   UNL     1       1.564   5.612  20.684  0.00  0.00    +0.000 S 
ATOM      5  C   UNL     1       2.334   6.649  19.555  0.00  0.00    +0.000 C 
ATOM      6  C   UNL     1       2.202   7.976  19.426  0.00  0.00    +0.000 C 
ATOM      7  C   UNL     1       3.229   5.866  18.671  0.00  0.00    +0.000 C 
ATOM      8  O   UNL     1       3.778   6.342  17.691  0.00  0.00    +0.000 OA
ENDROOT
BRANCH   6   9
ATOM      9  C   UNL     1       1.310   8.794  20.259  0.00  0.00    +0.000 A 
ATOM     10  C   UNL     1       1.364   8.614  21.650  0.00  0.00    +0.000 A 
ATOM     11  C   UNL     1       0.492   9.311  22.485  0.00  0.00    +0.000 A 
ATOM     12  C   UNL     1      -0.439  10.190  21.938  0.00  0.00    +0.000 A 
ATOM     13  C   UNL     1      -0.493  10.392  20.554  0.00  0.00    +0.000 A 
ATOM     14 CL   UNL     1      -1.676  11.505  19.959  0.00  0.00    +0.000 Cl
ATOM     15  C   UNL     1       0.382   9.699  19.706  0.00  0.00    +0.000 A 
ATOM     16 CL   UNL     1       0.334   9.942  17.986  0.00  0.00    +0.000 Cl
ENDBRANCH   6   9
BRANCH   1  17
ATOM     17  C   UNL     1       4.067   3.539  18.399  0.00  0.00    +0.000 C 
BRANCH  17  18
ATOM     18  C   UNL     1       5.547   3.868  18.173  0.00  0.00    +0.000 C 
BRANCH  18  21
ATOM     19  O   UNL     1       7.485   5.563  17.004  0.00  0.00    +0.000 OA
ATOM     20  C   UNL     1       6.842   4.804  16.293  0.00  0.00    +0.000 C 
ATOM     21  N   UNL     1       5.884   3.942  16.768  0.00  0.00    +0.000 N 
ATOM     22  H   UNL     1       5.407   3.348  16.098  0.00  0.00    +0.000 HD
BRANCH  20  23
ATOM     23  C   UNL     1       7.011   4.719  14.803  0.00  0.00    +0.000 C 
ATOM     24  C   UNL     1       6.262   3.827  14.148  0.00  0.00    +0.000 C 
ATOM     25  O   UNL     1       6.288   3.585  12.812  0.00  0.00    +0.000 OA
ATOM     26  C   UNL     1       7.103   4.464  12.049  0.00  0.00    +0.000 C 
ATOM     27  C   UNL     1       8.071   5.389  12.794  0.00  0.00    +0.000 C 
ATOM     28  O   UNL     1       7.930   5.546  14.202  0.00  0.00    +0.000 OA
ENDBRANCH  20  23
ENDBRANCH  18  21
ENDBRANCH  17  18
ENDBRANCH   1  17
TORSDOF 5
ENDMDL
MODEL 2
REMARK VINA RESULT:      -8.0      5.724      7.500
REMARK  Name = 
REMARK  5 active torsions:
REMARK  status: ('A' for Active; 'I' for Inactive)
REMARK    1  A    between atoms: C_2  and  C_22
REMARK    2  A    between atoms: N_3  and  C_4
REMARK    3  A    between atoms: C_4  and  C_5
REMARK    4  A    between atoms: C_5  and  N_6
REMARK    5  A    between atoms: C_11  and  C_12
REMARK                            x       y       z     vdW  Elec       q    Type
REMARK                         _______ _______ _______ _____ _____    ______ ____
ROOT
ATOM      1  N   UNL     1       7.051   7.119  17.888  0.00  0.00    +0.000 N 
ATOM      2  C   UNL     1       7.432   6.156  18.785  0.00  0.00    +0.000 C 
ATOM      3  O   UNL     1       8.511   6.053  19.345  0.00  0.00    +0.000 OA
ATOM      4  S   UNL     1       6.140   4.985  19.004  0.00  0.00    +0.000 S 
ATOM      5  C   UNL     1       5.167   5.722  17.801  0.00  0.00    +0.000 C 
ATOM      6  C   UNL     1       3.936   5.373  17.402  0.00  0.00    +0.000 C 
ATOM      7  C   UNL     1       5.880   6.875  17.202  0.00  0.00    +0.000 C 
ATOM      8  O   UNL     1       5.469   7.477  16.223  0.00  0.00    +0.000 OA
ENDROOT
BRANCH   6   9
ATOM      9  C   UNL     1       3.197   4.225  17.944  0.00  0.00    +0.000 A 
ATOM     10  C   UNL     1       3.128   3.060  17.165  0.00  0.00    +0.000 A 
ATOM     11  C   UNL     1       2.382   1.966  17.597  0.00  0.00    +0.000 A 
ATOM     12  C   UNL     1       1.699   2.026  18.809  0.00  0.00    +0.000 A 
ATOM     13  C   UNL     1       1.771   3.175  19.604  0.00  0.00    +0.000 A 
ATOM     14 CL   UNL     1       0.896   3.163  21.097  0.00  0.00    +0.000 Cl
ATOM     15  C   UNL     1       2.522   4.280  19.180  0.00  0.00    +0.000 A 
ATOM     16 CL   UNL     1       2.629   5.712  20.160  0.00  0.00    +0.000 Cl
ENDBRANCH   6   9
BRANCH   1  17
ATOM     17  C   UNL     1       7.993   8.156  17.490  0.00  0.00    +0.000 C 
BRANCH  17  18
ATOM     18  C   UNL     1       8.487   9.059  18.626  0.00  0.00    +0.000 C 
BRANCH  18  21
ATOM     19  O   UNL     1       9.234  11.308  20.171  0.00  0.00    +0.000 OA
ATOM     20  C   UNL     1       9.433  11.313  18.965  0.00  0.00    +0.000 C 
ATOM     21  N   UNL     1       9.110  10.269  18.133  0.00  0.00    +0.000 N 
ATOM     22  H   UNL     1       9.319  10.368  17.146  0.00  0.00    +0.000 HD
BRANCH  20  23
ATOM     23  C   UNL     1      10.055  12.467  18.232  0.00  0.00    +0.000 C 
ATOM     24  C   UNL     1       9.632  13.696  18.545  0.00  0.00    +0.000 C 
ATOM     25  O   UNL     1      10.052  14.857  17.980  0.00  0.00    +0.000 OA
ATOM     26  C   UNL     1      11.132  14.734  17.066  0.00  0.00    +0.000 C 
ATOM     27  C   UNL     1      11.528  13.332  16.592  0.00  0.00    +0.000 C 
ATOM     28  O   UNL     1      11.007  12.198  17.278  0.00  0.00    +0.000 OA
ENDBRANCH  20  23
ENDBRANCH  18  21
ENDBRANCH  17  18
ENDBRANCH   1  17
TORSDOF 5
ENDMDL
MODEL 3
REMARK VINA RESULT:      -7.8      1.838      2.775
REMARK  Name = 
REMARK  5 active torsions:
REMARK  status: ('A' for Active; 'I' for Inactive)
REMARK    1  A    between atoms: C_2  and  C_22
REMARK    2  A    between atoms: N_3  and  C_4
REMARK    3  A    between atoms: C_4  and  C_5
REMARK    4  A    between atoms: C_5  and  N_6
REMARK    5  A    between atoms: C_11  and  C_12
REMARK                            x       y       z     vdW  Elec       q    Type
REMARK                         _______ _______ _______ _____ _____    ______ ____
ROOT
ATOM      1  N   UNL     1       2.198   3.823  19.378  0.00  0.00    +0.000 N 
ATOM      2  C   UNL     1       1.960   4.206  18.084  0.00  0.00    +0.000 C 
ATOM      3  O   UNL     1       2.026   3.510  17.084  0.00  0.00    +0.000 OA
ATOM      4  S   UNL     1       1.588   5.922  18.017  0.00  0.00    +0.000 S 
ATOM      5  C   UNL     1       1.885   6.128  19.693  0.00  0.00    +0.000 C 
ATOM      6  C   UNL     1       1.771   7.246  20.423  0.00  0.00    +0.000 C 
ATOM      7  C   UNL     1       2.312   4.844  20.298  0.00  0.00    +0.000 C 
ATOM      8  O   UNL     1       2.726   4.753  21.442  0.00  0.00    +0.000 OA
ENDROOT
BRANCH   6   9
ATOM      9  C   UNL     1       1.376   8.547  19.868  0.00  0.00    +0.000 A 
ATOM     10  C   UNL     1       2.008   8.978  18.692  0.00  0.00    +0.000 A 
ATOM     11  C   UNL     1       1.726  10.234  18.159  0.00  0.00    +0.000 A 
ATOM     12  C   UNL     1       0.811  11.069  18.796  0.00  0.00    +0.000 A 
ATOM     13  C   UNL     1       0.162  10.647  19.961  0.00  0.00    +0.000 A 
ATOM     14 CL   UNL     1      -0.962  11.744  20.686  0.00  0.00    +0.000 Cl
ATOM     15  C   UNL     1       0.436   9.383  20.503  0.00  0.00    +0.000 A 
ATOM     16 CL   UNL     1      -0.368   8.839  21.945  0.00  0.00    +0.000 Cl
ENDBRANCH   6   9
BRANCH   1  17
ATOM     17  C   UNL     1       2.603   2.454  19.669  0.00  0.00    +0.000 C 
BRANCH  17  18
ATOM     18  C   UNL     1       4.111   2.189  19.583  0.00  0.00    +0.000 C 
BRANCH  18  21
ATOM     19  O   UNL     1       5.763   4.478  19.420  0.00  0.00    +0.000 OA
ATOM     20  C   UNL     1       5.486   3.862  18.401  0.00  0.00    +0.000 C 
ATOM     21  N   UNL     1       4.697   2.738  18.380  0.00  0.00    +0.000 N 
ATOM     22  H   UNL     1       4.529   2.294  17.484  0.00  0.00    +0.000 HD
BRANCH  20  23
ATOM     23  C   UNL     1       5.970   4.256  17.036  0.00  0.00    +0.000 C 
ATOM     24  C   UNL     1       6.960   5.152  16.967  0.00  0.00    +0.000 C 
ATOM     25  O   UNL     1       7.514   5.651  15.832  0.00  0.00    +0.000 OA
ATOM     26  C   UNL     1       7.068   5.052  14.623  0.00  0.00    +0.000 C 
ATOM     27  C   UNL     1       5.842   4.134  14.674  0.00  0.00    +0.000 C 
ATOM     28  O   UNL     1       5.365   3.689  15.939  0.00  0.00    +0.000 OA
ENDBRANCH  20  23
ENDBRANCH  18  21
ENDBRANCH  17  18
ENDBRANCH   1  17
TORSDOF 5
ENDMDL
MODEL 4
REMARK VINA RESULT:      -7.8      5.660      7.598
REMARK  Name = 
REMARK  5 active torsions:
REMARK  status: ('A' for Active; 'I' for Inactive)
REMARK    1  A    between atoms: C_2  and  C_22
REMARK    2  A    between atoms: N_3  and  C_4
REMARK    3  A    between atoms: C_4  and  C_5
REMARK    4  A    between atoms: C_5  and  N_6
REMARK    5  A    between atoms: C_11  and  C_12
REMARK                            x       y       z     vdW  Elec       q    Type
REMARK                         _______ _______ _______ _____ _____    ______ ____
ROOT
ATOM      1  N   UNL     1       7.265   6.856  18.013  0.00  0.00    +0.000 N 
ATOM      2  C   UNL     1       7.562   5.924  18.973  0.00  0.00    +0.000 C 
ATOM      3  O   UNL     1       8.604   5.812  19.597  0.00  0.00    +0.000 OA
ATOM      4  S   UNL     1       6.220   4.807  19.169  0.00  0.00    +0.000 S 
ATOM      5  C   UNL     1       5.342   5.519  17.880  0.00  0.00    +0.000 C 
ATOM      6  C   UNL     1       4.123   5.191  17.427  0.00  0.00    +0.000 C 
ATOM      7  C   UNL     1       6.127   6.619  17.272  0.00  0.00    +0.000 C 
ATOM      8  O   UNL     1       5.792   7.188  16.246  0.00  0.00    +0.000 OA
ENDROOT
BRANCH   6   9
ATOM      9  C   UNL     1       3.315   4.095  17.977  0.00  0.00    +0.000 A 
ATOM     10  C   UNL     1       3.402   2.840  17.355  0.00  0.00    +0.000 A 
ATOM     11  C   UNL     1       2.606   1.782  17.789  0.00  0.00    +0.000 A 
ATOM     12  C   UNL     1       1.718   1.968  18.845  0.00  0.00    +0.000 A 
ATOM     13  C   UNL     1       1.631   3.209  19.485  0.00  0.00    +0.000 A 
ATOM     14 CL   UNL     1       0.505   3.353  20.790  0.00  0.00    +0.000 Cl
ATOM     15  C   UNL     1       2.431   4.279  19.059  0.00  0.00    +0.000 A 
ATOM     16 CL   UNL     1       2.343   5.826  19.847  0.00  0.00    +0.000 Cl
ENDBRANCH   6   9
BRANCH   1  17
ATOM     17  C   UNL     1       8.265   7.843  17.624  0.00  0.00    +0.000 C 
BRANCH  17  18
ATOM     18  C   UNL     1       7.839   9.305  17.799  0.00  0.00    +0.000 C 
BRANCH  18  21
ATOM     19  O   UNL     1       8.084  12.096  17.412  0.00  0.00    +0.000 OA
ATOM     20  C   UNL     1       8.960  11.493  18.017  0.00  0.00    +0.000 C 
ATOM     21  N   UNL     1       8.928  10.141  18.258  0.00  0.00    +0.000 N 
ATOM     22  H   UNL     1       9.700   9.734  18.773  0.00  0.00    +0.000 HD
BRANCH  20  23
ATOM     23  C   UNL     1      10.189  12.152  18.572  0.00  0.00    +0.000 C 
ATOM     24  C   UNL     1      10.316  13.471  18.394  0.00  0.00    +0.000 C 
ATOM     25  O   UNL     1      11.361  14.239  18.798  0.00  0.00    +0.000 OA
ATOM     26  C   UNL     1      12.333  13.574  19.592  0.00  0.00    +0.000 C 
ATOM     27  C   UNL     1      12.279  12.045  19.682  0.00  0.00    +0.000 C 
ATOM     28  O   UNL     1      11.117  11.367  19.214  0.00  0.00    +0.000 OA
ENDBRANCH  20  23
ENDBRANCH  18  21
ENDBRANCH  17  18
ENDBRANCH   1  17
TORSDOF 5
ENDMDL
MODEL 5
REMARK VINA RESULT:      -7.7      5.280      9.930
REMARK  Name = 
REMARK  5 active torsions:
REMARK  status: ('A' for Active; 'I' for Inactive)
REMARK    1  A    between atoms: C_2  and  C_22
REMARK    2  A    between atoms: N_3  and  C_4
REMARK    3  A    between atoms: C_4  and  C_5
REMARK    4  A    between atoms: C_5  and  N_6
REMARK    5  A    between atoms: C_11  and  C_12
REMARK                            x       y       z     vdW  Elec       q    Type
REMARK                         _______ _______ _______ _____ _____    ______ ____
ROOT
ATOM      1  N   UNL     1       0.786   9.613  19.496  0.00  0.00    +0.000 N 
ATOM      2  C   UNL     1       0.806   8.925  20.681  0.00  0.00    +0.000 C 
ATOM      3  O   UNL     1       0.303   9.263  21.740  0.00  0.00    +0.000 OA
ATOM      4  S   UNL     1       1.745   7.450  20.511  0.00  0.00    +0.000 S 
ATOM      5  C   UNL     1       2.204   7.839  18.905  0.00  0.00    +0.000 C 
ATOM      6  C   UNL     1       2.954   7.118  18.060  0.00  0.00    +0.000 C 
ATOM      7  C   UNL     1       1.641   9.154  18.517  0.00  0.00    +0.000 C 
ATOM      8  O   UNL     1       1.941   9.727  17.482  0.00  0.00    +0.000 OA
ENDROOT
BRANCH   6   9
ATOM      9  C   UNL     1       3.555   5.822  18.403  0.00  0.00    +0.000 A 
ATOM     10  C   UNL     1       4.856   5.821  18.927  0.00  0.00    +0.000 A 
ATOM     11  C   UNL     1       5.504   4.619  19.204  0.00  0.00    +0.000 A 
ATOM     12  C   UNL     1       4.857   3.410  18.961  0.00  0.00    +0.000 A 
ATOM     13  C   UNL     1       3.553   3.395  18.453  0.00  0.00    +0.000 A 
ATOM     14 CL   UNL     1       2.822   1.850  18.185  0.00  0.00    +0.000 Cl
ATOM     15  C   UNL     1       2.892   4.600  18.175  0.00  0.00    +0.000 A 
ATOM     16 CL   UNL     1       1.269   4.601  17.552  0.00  0.00    +0.000 Cl
ENDBRANCH   6   9
BRANCH   1  17
ATOM     17  C   UNL     1       0.129  10.912  19.420  0.00  0.00    +0.000 C 
BRANCH  17  18
ATOM     18  C   UNL     1      -0.795  11.105  18.213  0.00  0.00    +0.000 C 
BRANCH  18  21
ATOM     19  O   UNL     1      -3.028  11.211  16.480  0.00  0.00    +0.000 OA
ATOM     20  C   UNL     1      -3.195  11.337  17.685  0.00  0.00    +0.000 C 
ATOM     21  N   UNL     1      -2.175  11.295  18.604  0.00  0.00    +0.000 N 
ATOM     22  H   UNL     1      -2.416  11.405  19.583  0.00  0.00    +0.000 HD
BRANCH  20  23
ATOM     23  C   UNL     1      -4.538  11.559  18.318  0.00  0.00    +0.000 C 
ATOM     24  C   UNL     1      -4.567  12.182  19.500  0.00  0.00    +0.000 C 
ATOM     25  O   UNL     1      -5.675  12.452  20.238  0.00  0.00    +0.000 OA
ATOM     26  C   UNL     1      -6.912  12.147  19.611  0.00  0.00    +0.000 C 
ATOM     27  C   UNL     1      -6.893  11.308  18.330  0.00  0.00    +0.000 C 
ATOM     28  O   UNL     1      -5.654  11.102  17.659  0.00  0.00    +0.000 OA
ENDBRANCH  20  23
ENDBRANCH  18  21
ENDBRANCH  17  18
ENDBRANCH   1  17
TORSDOF 5
ENDMDL
MODEL 6
REMARK VINA RESULT:      -7.7      1.429      2.155
REMARK  Name = 
REMARK  5 active torsions:
REMARK  status: ('A' for Active; 'I' for Inactive)
REMARK    1  A    between atoms: C_2  and  C_22
REMARK    2  A    between atoms: N_3  and  C_4
REMARK    3  A    between atoms: C_4  and  C_5
REMARK    4  A    between atoms: C_5  and  N_6
REMARK    5  A    between atoms: C_11  and  C_12
REMARK                            x       y       z     vdW  Elec       q    Type
REMARK                         _______ _______ _______ _____ _____    ______ ____
ROOT
ATOM      1  N   UNL     1       2.858   3.689  20.221  0.00  0.00    +0.000 N 
ATOM      2  C   UNL     1       1.499   3.601  20.371  0.00  0.00    +0.000 C 
ATOM      3  O   UNL     1       0.821   2.587  20.387  0.00  0.00    +0.000 OA
ATOM      4  S   UNL     1       0.795   5.208  20.481  0.00  0.00    +0.000 S 
ATOM      5  C   UNL     1       2.304   5.969  20.195  0.00  0.00    +0.000 C 
ATOM      6  C   UNL     1       2.575   7.281  20.157  0.00  0.00    +0.000 C 
ATOM      7  C   UNL     1       3.358   4.951  19.977  0.00  0.00    +0.000 C 
ATOM      8  O   UNL     1       4.487   5.229  19.608  0.00  0.00    +0.000 OA
ENDROOT
BRANCH   6   9
ATOM      9  C   UNL     1       1.564   8.331  20.341  0.00  0.00    +0.000 A 
ATOM     10  C   UNL     1       1.074   8.550  21.637  0.00  0.00    +0.000 A 
ATOM     11  C   UNL     1       0.063   9.483  21.860  0.00  0.00    +0.000 A 
ATOM     12  C   UNL     1      -0.465  10.203  20.792  0.00  0.00    +0.000 A 
ATOM     13  C   UNL     1       0.025  10.007  19.496  0.00  0.00    +0.000 A 
ATOM     14 CL   UNL     1      -0.684  10.947  18.228  0.00  0.00    +0.000 Cl
ATOM     15  C   UNL     1       1.045   9.073  19.262  0.00  0.00    +0.000 A 
ATOM     16 CL   UNL     1       1.671   8.822  17.660  0.00  0.00    +0.000 Cl
ENDBRANCH   6   9
BRANCH   1  17
ATOM     17  C   UNL     1       3.648   2.480  20.031  0.00  0.00    +0.000 C 
BRANCH  17  18
ATOM     18  C   UNL     1       3.620   1.899  18.613  0.00  0.00    +0.000 C 
BRANCH  18  21
ATOM     19  O   UNL     1       3.001   3.844  16.655  0.00  0.00    +0.000 OA
ATOM     20  C   UNL     1       4.162   3.491  16.806  0.00  0.00    +0.000 C 
ATOM     21  N   UNL     1       4.561   2.558  17.732  0.00  0.00    +0.000 N 
ATOM     22  H   UNL     1       5.549   2.336  17.784  0.00  0.00    +0.000 HD
BRANCH  20  23
ATOM     23  C   UNL     1       5.305   4.028  15.995  0.00  0.00    +0.000 C 
ATOM     24  C   UNL     1       6.395   4.430  16.656  0.00  0.00    +0.000 C 
ATOM     25  O   UNL     1       7.516   4.964  16.105  0.00  0.00    +0.000 OA
ATOM     26  C   UNL     1       7.555   4.966  14.685  0.00  0.00    +0.000 C 
ATOM     27  C   UNL     1       6.266   4.646  13.920  0.00  0.00    +0.000 C 
ATOM     28  O   UNL     1       5.163   4.091  14.629  0.00  0.00    +0.000 OA
ENDBRANCH  20  23
ENDBRANCH  18  21
ENDBRANCH  17  18
ENDBRANCH   1  17
TORSDOF 5
ENDMDL
MODEL 7
REMARK VINA RESULT:      -7.6      5.227     10.392
REMARK  Name = 
REMARK  5 active torsions:
REMARK  status: ('A' for Active; 'I' for Inactive)
REMARK    1  A    between atoms: C_2  and  C_22
REMARK    2  A    between atoms: N_3  and  C_4
REMARK    3  A    between atoms: C_4  and  C_5
REMARK    4  A    between atoms: C_5  and  N_6
REMARK    5  A    between atoms: C_11  and  C_12
REMARK                            x       y       z     vdW  Elec       q    Type
REMARK                         _______ _______ _______ _____ _____    ______ ____
ROOT
ATOM      1  N   UNL     1       0.857   9.561  19.445  0.00  0.00    +0.000 N 
ATOM      2  C   UNL     1       0.889   8.888  20.638  0.00  0.00    +0.000 C 
ATOM      3  O   UNL     1       0.396   9.238  21.697  0.00  0.00    +0.000 OA
ATOM      4  S   UNL     1       1.827   7.410  20.477  0.00  0.00    +0.000 S 
ATOM      5  C   UNL     1       2.269   7.779  18.862  0.00  0.00    +0.000 C 
ATOM      6  C   UNL     1       3.010   7.047  18.019  0.00  0.00    +0.000 C 
ATOM      7  C   UNL     1       1.702   9.089  18.463  0.00  0.00    +0.000 C 
ATOM      8  O   UNL     1       1.991   9.649  17.418  0.00  0.00    +0.000 OA
ENDROOT
BRANCH   6   9
ATOM      9  C   UNL     1       3.615   5.756  18.372  0.00  0.00    +0.000 A 
ATOM     10  C   UNL     1       4.920   5.762  18.886  0.00  0.00    +0.000 A 
ATOM     11  C   UNL     1       5.571   4.563  19.172  0.00  0.00    +0.000 A 
ATOM     12  C   UNL     1       4.923   3.351  18.947  0.00  0.00    +0.000 A 
ATOM     13  C   UNL     1       3.616   3.330  18.449  0.00  0.00    +0.000 A 
ATOM     14 CL   UNL     1       2.884   1.781  18.203  0.00  0.00    +0.000 Cl
ATOM     15  C   UNL     1       2.952   4.531  18.162  0.00  0.00    +0.000 A 
ATOM     16 CL   UNL     1       1.324   4.524  17.551  0.00  0.00    +0.000 Cl
ENDBRANCH   6   9
BRANCH   1  17
ATOM     17  C   UNL     1       0.199  10.858  19.359  0.00  0.00    +0.000 C 
BRANCH  17  18
ATOM     18  C   UNL     1       0.677  11.900  20.376  0.00  0.00    +0.000 C 
BRANCH  18  21
ATOM     19  O   UNL     1       0.763  14.037  22.227  0.00  0.00    +0.000 OA
ATOM     20  C   UNL     1      -0.220  13.310  22.191  0.00  0.00    +0.000 C 
ATOM     21  N   UNL     1      -0.356  12.252  21.326  0.00  0.00    +0.000 N 
ATOM     22  H   UNL     1      -1.212  11.711  21.370  0.00  0.00    +0.000 HD
BRANCH  20  23
ATOM     23  C   UNL     1      -1.408  13.477  23.094  0.00  0.00    +0.000 C 
ATOM     24  C   UNL     1      -1.399  14.512  23.940  0.00  0.00    +0.000 C 
ATOM     25  O   UNL     1      -2.363  14.816  24.847  0.00  0.00    +0.000 OA
ATOM     26  C   UNL     1      -3.536  14.017  24.779  0.00  0.00    +0.000 C 
ATOM     27  C   UNL     1      -3.504  12.748  23.921  0.00  0.00    +0.000 C 
ATOM     28  O   UNL     1      -2.425  12.557  23.012  0.00  0.00    +0.000 OA
ENDBRANCH  20  23
ENDBRANCH  18  21
ENDBRANCH  17  18
ENDBRANCH   1  17
TORSDOF 5
ENDMDL
MODEL 8
REMARK VINA RESULT:      -7.6      5.242     10.471
REMARK  Name = 
REMARK  5 active torsions:
REMARK  status: ('A' for Active; 'I' for Inactive)
REMARK    1  A    between atoms: C_2  and  C_22
REMARK    2  A    between atoms: N_3  and  C_4
REMARK    3  A    between atoms: C_4  and  C_5
REMARK    4  A    between atoms: C_5  and  N_6
REMARK    5  A    between atoms: C_11  and  C_12
REMARK                            x       y       z     vdW  Elec       q    Type
REMARK                         _______ _______ _______ _____ _____    ______ ____
ROOT
ATOM      1  N   UNL     1       0.950   9.780  19.346  0.00  0.00    +0.000 N 
ATOM      2  C   UNL     1       0.931   9.132  20.553  0.00  0.00    +0.000 C 
ATOM      3  O   UNL     1       0.447   9.533  21.599  0.00  0.00    +0.000 OA
ATOM      4  S   UNL     1       1.785   7.601  20.434  0.00  0.00    +0.000 S 
ATOM      5  C   UNL     1       2.264   7.910  18.817  0.00  0.00    +0.000 C 
ATOM      6  C   UNL     1       2.972   7.119  17.998  0.00  0.00    +0.000 C 
ATOM      7  C   UNL     1       1.778   9.241  18.385  0.00  0.00    +0.000 C 
ATOM      8  O   UNL     1       2.109   9.761  17.332  0.00  0.00    +0.000 OA
ENDROOT
BRANCH   6   9
ATOM      9  C   UNL     1       3.499   5.804  18.385  0.00  0.00    +0.000 A 
ATOM     10  C   UNL     1       4.787   5.750  18.940  0.00  0.00    +0.000 A 
ATOM     11  C   UNL     1       5.365   4.523  19.260  0.00  0.00    +0.000 A 
ATOM     12  C   UNL     1       4.663   3.343  19.029  0.00  0.00    +0.000 A 
ATOM     13  C   UNL     1       3.372   3.382  18.492  0.00  0.00    +0.000 A 
ATOM     14 CL   UNL     1       2.570   1.870  18.242  0.00  0.00    +0.000 Cl
ATOM     15  C   UNL     1       2.780   4.612  18.170  0.00  0.00    +0.000 A 
ATOM     16 CL   UNL     1       1.173   4.679  17.509  0.00  0.00    +0.000 Cl
ENDBRANCH   6   9
BRANCH   1  17
ATOM     17  C   UNL     1       0.368  11.111  19.226  0.00  0.00    +0.000 C 
BRANCH  17  18
ATOM     18  C   UNL     1      -1.160  11.166  19.333  0.00  0.00    +0.000 C 
BRANCH  18  21
ATOM     19  O   UNL     1      -3.605  12.512  19.793  0.00  0.00    +0.000 OA
ATOM     20  C   UNL     1      -2.809  12.378  20.712  0.00  0.00    +0.000 C 
ATOM     21  N   UNL     1      -1.601  11.737  20.588  0.00  0.00    +0.000 N 
ATOM     22  H   UNL     1      -1.012  11.673  21.411  0.00  0.00    +0.000 HD
BRANCH  20  23
ATOM     23  C   UNL     1      -3.047  12.902  22.099  0.00  0.00    +0.000 C 
ATOM     24  C   UNL     1      -2.389  14.008  22.462  0.00  0.00    +0.000 C 
ATOM     25  O   UNL     1      -2.452  14.618  23.673  0.00  0.00    +0.000 OA
ATOM     26  C   UNL     1      -3.410  14.083  24.575  0.00  0.00    +0.000 C 
ATOM     27  C   UNL     1      -4.064  12.740  24.232  0.00  0.00    +0.000 C 
ATOM     28  O   UNL     1      -3.911  12.215  22.918  0.00  0.00    +0.000 OA
ENDBRANCH  20  23
ENDBRANCH  18  21
ENDBRANCH  17  18
ENDBRANCH   1  17
TORSDOF 5
ENDMDL
MODEL 9
REMARK VINA RESULT:      -7.6      5.054     10.182
REMARK  Name = 
REMARK  5 active torsions:
REMARK  status: ('A' for Active; 'I' for Inactive)
REMARK    1  A    between atoms: C_2  and  C_22
REMARK    2  A    between atoms: N_3  and  C_4
REMARK    3  A    between atoms: C_4  and  C_5
REMARK    4  A    between atoms: C_5  and  N_6
REMARK    5  A    between atoms: C_11  and  C_12
REMARK                            x       y       z     vdW  Elec       q    Type
REMARK                         _______ _______ _______ _____ _____    ______ ____
ROOT
ATOM      1  N   UNL     1       1.048   9.766  19.173  0.00  0.00    +0.000 N 
ATOM      2  C   UNL     1       0.959   9.148  20.393  0.00  0.00    +0.000 C 
ATOM      3  O   UNL     1       0.440   9.586  21.406  0.00  0.00    +0.000 OA
ATOM      4  S   UNL     1       1.777   7.594  20.347  0.00  0.00    +0.000 S 
ATOM      5  C   UNL     1       2.336   7.851  18.747  0.00  0.00    +0.000 C 
ATOM      6  C   UNL     1       3.058   7.024  17.978  0.00  0.00    +0.000 C 
ATOM      7  C   UNL     1       1.903   9.183  18.262  0.00  0.00    +0.000 C 
ATOM      8  O   UNL     1       2.293   9.669  17.213  0.00  0.00    +0.000 OA
ENDROOT
BRANCH   6   9
ATOM      9  C   UNL     1       3.533   5.706  18.419  0.00  0.00    +0.000 A 
ATOM     10  C   UNL     1       4.804   5.630  19.011  0.00  0.00    +0.000 A 
ATOM     11  C   UNL     1       5.335   4.398  19.383  0.00  0.00    +0.000 A 
ATOM     12  C   UNL     1       4.604   3.232  19.168  0.00  0.00    +0.000 A 
ATOM     13  C   UNL     1       3.329   3.294  18.594  0.00  0.00    +0.000 A 
ATOM     14 CL   UNL     1       2.487   1.799  18.367  0.00  0.00    +0.000 Cl
ATOM     15  C   UNL     1       2.784   4.530  18.220  0.00  0.00    +0.000 A 
ATOM     16 CL   UNL     1       1.199   4.626  17.512  0.00  0.00    +0.000 Cl
ENDBRANCH   6   9
BRANCH   1  17
ATOM     17  C   UNL     1       0.506  11.107  18.995  0.00  0.00    +0.000 C 
BRANCH  17  18
ATOM     18  C   UNL     1      -0.985  11.166  18.644  0.00  0.00    +0.000 C 
BRANCH  18  21
ATOM     19  O   UNL     1      -1.513  13.682  19.826  0.00  0.00    +0.000 OA
ATOM     20  C   UNL     1      -2.007  12.673  20.310  0.00  0.00    +0.000 C 
ATOM     21  N   UNL     1      -1.813  11.411  19.806  0.00  0.00    +0.000 N 
ATOM     22  H   UNL     1      -2.270  10.637  20.276  0.00  0.00    +0.000 HD
BRANCH  20  23
ATOM     23  C   UNL     1      -2.888  12.683  21.526  0.00  0.00    +0.000 C 
ATOM     24  C   UNL     1      -2.384  12.179  22.657  0.00  0.00    +0.000 C 
ATOM     25  O   UNL     1      -3.030  12.077  23.847  0.00  0.00    +0.000 OA
ATOM     26  C   UNL     1      -4.311  12.687  23.899  0.00  0.00    +0.000 C 
ATOM     27  C   UNL     1      -4.957  13.138  22.585  0.00  0.00    +0.000 C 
ATOM     28  O   UNL     1      -4.159  13.194  21.407  0.00  0.00    +0.000 OA
ENDBRANCH  20  23
ENDBRANCH  18  21
ENDBRANCH  17  18
ENDBRANCH   1  17
TORSDOF 5
ENDMDL
