MODEL 1
REMARK VINA RESULT:      -7.4      0.000      0.000
REMARK  Name = 
REMARK  6 active torsions:
REMARK  status: ('A' for Active; 'I' for Inactive)
REMARK    1  A    between atoms: C_1  and  O_2
REMARK    2  A    between atoms: O_2  and  C_3
REMARK    3  A    between atoms: C_8  and  C_9
REMARK    4  A    between atoms: N_13  and  C_14
REMARK    5  A    between atoms: C_14  and  C_15
REMARK    6  A    between atoms: C_15  and  N_16
REMARK                            x       y       z     vdW  Elec       q    Type
REMARK                         _______ _______ _______ _____ _____    ______ ____
ROOT
ATOM      1  C   UNL     1       4.622   5.538  16.736  0.00  0.00    +0.000 A 
ATOM      2  N   UNL     1       4.381   6.813  17.019  0.00  0.00    +0.000 NA
ATOM      3  C   UNL     1       3.832   6.864  18.266  0.00  0.00    +0.000 A 
ATOM      4  C   UNL     1       3.683   5.600  18.768  0.00  0.00    +0.000 A 
ATOM      5  N   UNL     1       4.152   4.756  17.787  0.00  0.00    +0.000 N 
ENDROOT
BRANCH   1  11
ATOM      6  C   UNL     1       6.764   5.103  15.449  0.00  0.00    +0.000 A 
ATOM      7  C   UNL     1       7.439   4.581  14.328  0.00  0.00    +0.000 A 
ATOM      8  C   UNL     1       6.700   4.027  13.304  0.00  0.00    +0.000 A 
ATOM      9  C   UNL     1       5.310   4.030  13.344  0.00  0.00    +0.000 A 
ATOM     10  C   UNL     1       4.628   4.609  14.399  0.00  0.00    +0.000 A 
ATOM     11  C   UNL     1       5.338   5.084  15.517  0.00  0.00    +0.000 A 
ATOM     12  C   UNL     1       4.738   3.331  12.149  0.00  0.00    +0.000 C 
ATOM     13  C   UNL     1       5.967   2.559  11.647  0.00  0.00    +0.000 C 
ATOM     14  C   UNL     1       7.197   3.386  12.048  0.00  0.00    +0.000 C 
BRANCH   6  16
ATOM     15  C   UNL     1       7.721   4.615  17.568  0.00  0.00    +0.000 C 
ATOM     16  O   UNL     1       7.466   5.566  16.539  0.00  0.00    +0.000 OA
ENDBRANCH   6  16
ENDBRANCH   1  11
BRANCH   5  17
ATOM     17  C   UNL     1       4.031   3.313  17.907  0.00  0.00    +0.000 C 
BRANCH  17  18
ATOM     18  C   UNL     1       2.634   2.730  17.635  0.00  0.00    +0.000 C 
BRANCH  18  19
ATOM     19  N   UNL     1       2.071   2.028  18.812  0.00  0.00    +0.000 NA
ATOM     20  C   UNL     1       0.698   2.444  19.144  0.00  0.00    +0.000 C 
ATOM     21  C   UNL     1       0.855   3.596  20.112  0.00  0.00    +0.000 C 
ATOM     22  C   UNL     1       2.013   3.136  20.967  0.00  0.00    +0.000 C 
ATOM     23  C   UNL     1       2.875   2.302  20.024  0.00  0.00    +0.000 C 
ENDBRANCH  18  19
ENDBRANCH  17  18
ENDBRANCH   5  17
TORSDOF 5
ENDMDL
MODEL 2
REMARK VINA RESULT:      -7.2      2.614      4.127
REMARK  Name = 
REMARK  6 active torsions:
REMARK  status: ('A' for Active; 'I' for Inactive)
REMARK    1  A    between atoms: C_1  and  O_2
REMARK    2  A    between atoms: O_2  and  C_3
REMARK    3  A    between atoms: C_8  and  C_9
REMARK    4  A    between atoms: N_13  and  C_14
REMARK    5  A    between atoms: C_14  and  C_15
REMARK    6  A    between atoms: C_15  and  N_16
REMARK                            x       y       z     vdW  Elec       q    Type
REMARK                         _______ _______ _______ _____ _____    ______ ____
ROOT
ATOM      1  C   UNL     1       3.952   3.907  19.043  0.00  0.00    +0.000 A 
ATOM      2  N   UNL     1       3.906   2.707  19.612  0.00  0.00    +0.000 NA
ATOM      3  C   UNL     1       2.904   2.726  20.536  0.00  0.00    +0.000 A 
ATOM      4  C   UNL     1       2.331   3.967  20.586  0.00  0.00    +0.000 A 
ATOM      5  N   UNL     1       3.016   4.726  19.665  0.00  0.00    +0.000 N 
ENDROOT
BRANCH   1  11
ATOM      6  C   UNL     1       6.176   4.675  18.094  0.00  0.00    +0.000 A 
ATOM      7  C   UNL     1       7.033   4.897  16.998  0.00  0.00    +0.000 A 
ATOM      8  C   UNL     1       6.560   4.665  15.724  0.00  0.00    +0.000 A 
ATOM      9  C   UNL     1       5.243   4.271  15.513  0.00  0.00    +0.000 A 
ATOM     10  C   UNL     1       4.363   4.124  16.571  0.00  0.00    +0.000 A 
ATOM     11  C   UNL     1       4.830   4.241  17.893  0.00  0.00    +0.000 A 
ATOM     12  C   UNL     1       4.981   4.033  14.058  0.00  0.00    +0.000 C 
ATOM     13  C   UNL     1       6.415   3.922  13.519  0.00  0.00    +0.000 C 
ATOM     14  C   UNL     1       7.293   4.794  14.429  0.00  0.00    +0.000 C 
BRANCH   6  16
ATOM     15  C   UNL     1       7.656   5.767  19.597  0.00  0.00    +0.000 C 
ATOM     16  O   UNL     1       6.640   4.791  19.385  0.00  0.00    +0.000 OA
ENDBRANCH   6  16
ENDBRANCH   1  11
BRANCH   5  17
ATOM     17  C   UNL     1       2.774   6.153  19.527  0.00  0.00    +0.000 C 
BRANCH  17  18
ATOM     18  C   UNL     1       1.745   6.757  20.498  0.00  0.00    +0.000 C 
BRANCH  18  19
ATOM     19  N   UNL     1       1.890   8.224  20.643  0.00  0.00    +0.000 NA
ATOM     20  C   UNL     1       1.157   8.777  21.794  0.00  0.00    +0.000 C 
ATOM     21  C   UNL     1      -0.214   9.130  21.261  0.00  0.00    +0.000 C 
ATOM     22  C   UNL     1       0.112   9.694  19.896  0.00  0.00    +0.000 C 
ATOM     23  C   UNL     1       1.354   8.926  19.454  0.00  0.00    +0.000 C 
ENDBRANCH  18  19
ENDBRANCH  17  18
ENDBRANCH   5  17
TORSDOF 5
ENDMDL
MODEL 3
REMARK VINA RESULT:      -7.1      1.880      3.677
REMARK  Name = 
REMARK  6 active torsions:
REMARK  status: ('A' for Active; 'I' for Inactive)
REMARK    1  A    between atoms: C_1  and  O_2
REMARK    2  A    between atoms: O_2  and  C_3
REMARK    3  A    between atoms: C_8  and  C_9
REMARK    4  A    between atoms: N_13  and  C_14
REMARK    5  A    between atoms: C_14  and  C_15
REMARK    6  A    between atoms: C_15  and  N_16
REMARK                            x       y       z     vdW  Elec       q    Type
REMARK                         _______ _______ _______ _____ _____    ______ ____
ROOT
ATOM      1  C   UNL     1       4.401   3.595  18.805  0.00  0.00    +0.000 A 
ATOM      2  N   UNL     1       4.954   2.767  19.684  0.00  0.00    +0.000 NA
ATOM      3  C   UNL     1       3.972   2.352  20.534  0.00  0.00    +0.000 A 
ATOM      4  C   UNL     1       2.787   2.956  20.218  0.00  0.00    +0.000 A 
ATOM      5  N   UNL     1       3.063   3.770  19.143  0.00  0.00    +0.000 N 
ENDROOT
BRANCH   1  11
ATOM      6  C   UNL     1       6.204   5.075  17.808  0.00  0.00    +0.000 A 
ATOM      7  C   UNL     1       6.947   5.530  16.700  0.00  0.00    +0.000 A 
ATOM      8  C   UNL     1       6.629   5.056  15.445  0.00  0.00    +0.000 A 
ATOM      9  C   UNL     1       5.560   4.187  15.260  0.00  0.00    +0.000 A 
ATOM     10  C   UNL     1       4.769   3.791  16.325  0.00  0.00    +0.000 A 
ATOM     11  C   UNL     1       5.123   4.159  17.636  0.00  0.00    +0.000 A 
ATOM     12  C   UNL     1       5.445   3.776  13.824  0.00  0.00    +0.000 C 
ATOM     13  C   UNL     1       6.832   4.174  13.296  0.00  0.00    +0.000 C 
ATOM     14  C   UNL     1       7.296   5.367  14.144  0.00  0.00    +0.000 C 
BRANCH   6  16
ATOM     15  C   UNL     1       7.930   5.760  19.290  0.00  0.00    +0.000 C 
ATOM     16  O   UNL     1       6.557   5.440  19.088  0.00  0.00    +0.000 OA
ENDBRANCH   6  16
ENDBRANCH   1  11
BRANCH   5  17
ATOM     17  C   UNL     1       2.067   4.681  18.606  0.00  0.00    +0.000 C 
BRANCH  17  18
ATOM     18  C   UNL     1       1.594   5.796  19.555  0.00  0.00    +0.000 C 
BRANCH  18  19
ATOM     19  N   UNL     1       2.508   6.962  19.566  0.00  0.00    +0.000 NA
ATOM     20  C   UNL     1       1.864   8.211  20.004  0.00  0.00    +0.000 C 
ATOM     21  C   UNL     1       1.331   8.848  18.739  0.00  0.00    +0.000 C 
ATOM     22  C   UNL     1       2.440   8.568  17.751  0.00  0.00    +0.000 C 
ATOM     23  C   UNL     1       3.028   7.236  18.207  0.00  0.00    +0.000 C 
ENDBRANCH  18  19
ENDBRANCH  17  18
ENDBRANCH   5  17
TORSDOF 5
ENDMDL
MODEL 4
REMARK VINA RESULT:      -6.9      2.090      5.472
REMARK  Name = 
REMARK  6 active torsions:
REMARK  status: ('A' for Active; 'I' for Inactive)
REMARK    1  A    between atoms: C_1  and  O_2
REMARK    2  A    between atoms: O_2  and  C_3
REMARK    3  A    between atoms: C_8  and  C_9
REMARK    4  A    between atoms: N_13  and  C_14
REMARK    5  A    between atoms: C_14  and  C_15
REMARK    6  A    between atoms: C_15  and  N_16
REMARK                            x       y       z     vdW  Elec       q    Type
REMARK                         _______ _______ _______ _____ _____    ______ ____
ROOT
ATOM      1  C   UNL     1       5.199   4.293  16.328  0.00  0.00    +0.000 A 
ATOM      2  N   UNL     1       5.997   3.530  15.590  0.00  0.00    +0.000 NA
ATOM      3  C   UNL     1       6.618   4.336  14.682  0.00  0.00    +0.000 A 
ATOM      4  C   UNL     1       6.177   5.624  14.816  0.00  0.00    +0.000 A 
ATOM      5  N   UNL     1       5.253   5.593  15.836  0.00  0.00    +0.000 N 
ENDROOT
BRANCH   1  11
ATOM      6  C   UNL     1       5.063   3.729  18.797  0.00  0.00    +0.000 A 
ATOM      7  C   UNL     1       4.317   3.353  19.932  0.00  0.00    +0.000 A 
ATOM      8  C   UNL     1       2.974   3.078  19.786  0.00  0.00    +0.000 A 
ATOM      9  C   UNL     1       2.371   3.114  18.534  0.00  0.00    +0.000 A 
ATOM     10  C   UNL     1       3.103   3.403  17.397  0.00  0.00    +0.000 A 
ATOM     11  C   UNL     1       4.449   3.800  17.510  0.00  0.00    +0.000 A 
ATOM     12  C   UNL     1       0.904   2.830  18.638  0.00  0.00    +0.000 C 
ATOM     13  C   UNL     1       0.670   3.052  20.140  0.00  0.00    +0.000 C 
ATOM     14  C   UNL     1       1.989   2.701  20.844  0.00  0.00    +0.000 C 
BRANCH   6  16
ATOM     15  C   UNL     1       6.600   5.426  19.430  0.00  0.00    +0.000 C 
ATOM     16  O   UNL     1       6.379   4.116  18.917  0.00  0.00    +0.000 OA
ENDBRANCH   6  16
ENDBRANCH   1  11
BRANCH   5  17
ATOM     17  C   UNL     1       4.465   6.764  16.181  0.00  0.00    +0.000 C 
BRANCH  17  18
ATOM     18  C   UNL     1       4.186   6.970  17.680  0.00  0.00    +0.000 C 
BRANCH  18  19
ATOM     19  N   UNL     1       2.747   6.857  18.013  0.00  0.00    +0.000 NA
ATOM     20  C   UNL     1       1.972   8.066  17.690  0.00  0.00    +0.000 C 
ATOM     21  C   UNL     1       2.026   8.918  18.939  0.00  0.00    +0.000 C 
ATOM     22  C   UNL     1       1.890   7.884  20.034  0.00  0.00    +0.000 C 
ATOM     23  C   UNL     1       2.558   6.636  19.464  0.00  0.00    +0.000 C 
ENDBRANCH  18  19
ENDBRANCH  17  18
ENDBRANCH   5  17
TORSDOF 5
ENDMDL
MODEL 5
REMARK VINA RESULT:      -6.8      2.097      4.065
REMARK  Name = 
REMARK  6 active torsions:
REMARK  status: ('A' for Active; 'I' for Inactive)
REMARK    1  A    between atoms: C_1  and  O_2
REMARK    2  A    between atoms: O_2  and  C_3
REMARK    3  A    between atoms: C_8  and  C_9
REMARK    4  A    between atoms: N_13  and  C_14
REMARK    5  A    between atoms: C_14  and  C_15
REMARK    6  A    between atoms: C_15  and  N_16
REMARK                            x       y       z     vdW  Elec       q    Type
REMARK                         _______ _______ _______ _____ _____    ______ ____
ROOT
ATOM      1  C   UNL     1       4.022   3.773  18.918  0.00  0.00    +0.000 A 
ATOM      2  N   UNL     1       3.849   2.505  19.272  0.00  0.00    +0.000 NA
ATOM      3  C   UNL     1       2.898   2.473  20.249  0.00  0.00    +0.000 A 
ATOM      4  C   UNL     1       2.489   3.743  20.550  0.00  0.00    +0.000 A 
ATOM      5  N   UNL     1       3.224   4.571  19.732  0.00  0.00    +0.000 N 
ENDROOT
BRANCH   1  11
ATOM      6  C   UNL     1       6.167   4.787  18.021  0.00  0.00    +0.000 A 
ATOM      7  C   UNL     1       7.020   5.103  16.946  0.00  0.00    +0.000 A 
ATOM      8  C   UNL     1       6.608   4.819  15.662  0.00  0.00    +0.000 A 
ATOM      9  C   UNL     1       5.350   4.279  15.420  0.00  0.00    +0.000 A 
ATOM     10  C   UNL     1       4.466   4.035  16.456  0.00  0.00    +0.000 A 
ATOM     11  C   UNL     1       4.885   4.204  17.789  0.00  0.00    +0.000 A 
ATOM     12  C   UNL     1       5.152   4.013  13.959  0.00  0.00    +0.000 C 
ATOM     13  C   UNL     1       6.603   4.065  13.456  0.00  0.00    +0.000 C 
ATOM     14  C   UNL     1       7.353   5.030  14.384  0.00  0.00    +0.000 C 
BRANCH   6  16
ATOM     15  C   UNL     1       7.806   5.665  19.500  0.00  0.00    +0.000 C 
ATOM     16  O   UNL     1       6.584   4.955  19.323  0.00  0.00    +0.000 OA
ENDBRANCH   6  16
ENDBRANCH   1  11
BRANCH   5  17
ATOM     17  C   UNL     1       3.158   6.017  19.859  0.00  0.00    +0.000 C 
BRANCH  17  18
ATOM     18  C   UNL     1       2.385   6.755  18.753  0.00  0.00    +0.000 C 
BRANCH  18  19
ATOM     19  N   UNL     1       2.492   8.228  18.868  0.00  0.00    +0.000 NA
ATOM     20  C   UNL     1       1.708   8.790  19.981  0.00  0.00    +0.000 C 
ATOM     21  C   UNL     1       0.349   9.099  19.393  0.00  0.00    +0.000 C 
ATOM     22  C   UNL     1       0.709   9.639  18.027  0.00  0.00    +0.000 C 
ATOM     23  C   UNL     1       1.982   8.890  17.646  0.00  0.00    +0.000 C 
ENDBRANCH  18  19
ENDBRANCH  17  18
ENDBRANCH   5  17
TORSDOF 5
ENDMDL
MODEL 6
REMARK VINA RESULT:      -6.8      2.020      6.552
REMARK  Name = 
REMARK  6 active torsions:
REMARK  status: ('A' for Active; 'I' for Inactive)
REMARK    1  A    between atoms: C_1  and  O_2
REMARK    2  A    between atoms: O_2  and  C_3
REMARK    3  A    between atoms: C_8  and  C_9
REMARK    4  A    between atoms: N_13  and  C_14
REMARK    5  A    between atoms: C_14  and  C_15
REMARK    6  A    between atoms: C_15  and  N_16
REMARK                            x       y       z     vdW  Elec       q    Type
REMARK                         _______ _______ _______ _____ _____    ______ ____
ROOT
ATOM      1  C   UNL     1       5.899   4.954  18.818  0.00  0.00    +0.000 A 
ATOM      2  N   UNL     1       6.619   5.412  19.835  0.00  0.00    +0.000 NA
ATOM      3  C   UNL     1       7.864   5.707  19.361  0.00  0.00    +0.000 A 
ATOM      4  C   UNL     1       7.950   5.392  18.033  0.00  0.00    +0.000 A 
ATOM      5  N   UNL     1       6.716   4.884  17.694  0.00  0.00    +0.000 N 
ENDROOT
BRANCH   1  11
ATOM      6  C   UNL     1       3.467   5.585  18.466  0.00  0.00    +0.000 A 
ATOM      7  C   UNL     1       2.099   5.249  18.462  0.00  0.00    +0.000 A 
ATOM      8  C   UNL     1       1.722   3.987  18.868  0.00  0.00    +0.000 A 
ATOM      9  C   UNL     1       2.664   3.074  19.327  0.00  0.00    +0.000 A 
ATOM     10  C   UNL     1       4.003   3.412  19.413  0.00  0.00    +0.000 A 
ATOM     11  C   UNL     1       4.449   4.647  18.906  0.00  0.00    +0.000 A 
ATOM     12  C   UNL     1       2.022   1.762  19.661  0.00  0.00    +0.000 C 
ATOM     13  C   UNL     1       0.677   1.903  18.932  0.00  0.00    +0.000 C 
ATOM     14  C   UNL     1       0.347   3.403  18.910  0.00  0.00    +0.000 C 
BRANCH   6  16
ATOM     15  C   UNL     1       2.913   7.824  17.898  0.00  0.00    +0.000 C 
ATOM     16  O   UNL     1       3.895   6.795  17.968  0.00  0.00    +0.000 OA
ENDBRANCH   6  16
ENDBRANCH   1  11
BRANCH   5  17
ATOM     17  C   UNL     1       6.466   4.314  16.381  0.00  0.00    +0.000 C 
BRANCH  17  18
ATOM     18  C   UNL     1       7.429   4.750  15.264  0.00  0.00    +0.000 C 
BRANCH  18  19
ATOM     19  N   UNL     1       6.721   5.190  14.040  0.00  0.00    +0.000 NA
ATOM     20  C   UNL     1       5.569   4.342  13.689  0.00  0.00    +0.000 C 
ATOM     21  C   UNL     1       6.128   3.268  12.781  0.00  0.00    +0.000 C 
ATOM     22  C   UNL     1       7.113   4.046  11.938  0.00  0.00    +0.000 C 
ATOM     23  C   UNL     1       7.621   5.147  12.865  0.00  0.00    +0.000 C 
ENDBRANCH  18  19
ENDBRANCH  17  18
ENDBRANCH   5  17
TORSDOF 5
ENDMDL
MODEL 7
REMARK VINA RESULT:      -6.8      2.002      5.294
REMARK  Name = 
REMARK  6 active torsions:
REMARK  status: ('A' for Active; 'I' for Inactive)
REMARK    1  A    between atoms: C_1  and  O_2
REMARK    2  A    between atoms: O_2  and  C_3
REMARK    3  A    between atoms: C_8  and  C_9
REMARK    4  A    between atoms: N_13  and  C_14
REMARK    5  A    between atoms: C_14  and  C_15
REMARK    6  A    between atoms: C_15  and  N_16
REMARK                            x       y       z     vdW  Elec       q    Type
REMARK                         _______ _______ _______ _____ _____    ______ ____
ROOT
ATOM      1  C   UNL     1       4.641   5.646  16.736  0.00  0.00    +0.000 A 
ATOM      2  N   UNL     1       5.512   6.298  15.973  0.00  0.00    +0.000 NA
ATOM      3  C   UNL     1       6.081   5.392  15.127  0.00  0.00    +0.000 A 
ATOM      4  C   UNL     1       5.596   4.139  15.383  0.00  0.00    +0.000 A 
ATOM      5  N   UNL     1       4.709   4.292  16.424  0.00  0.00    +0.000 N 
ENDROOT
BRANCH   1  11
ATOM      6  C   UNL     1       3.749   5.983  19.086  0.00  0.00    +0.000 A 
ATOM      7  C   UNL     1       2.948   6.687  20.006  0.00  0.00    +0.000 A 
ATOM      8  C   UNL     1       2.156   7.719  19.549  0.00  0.00    +0.000 A 
ATOM      9  C   UNL     1       2.103   8.030  18.194  0.00  0.00    +0.000 A 
ATOM     10  C   UNL     1       2.821   7.299  17.265  0.00  0.00    +0.000 A 
ATOM     11  C   UNL     1       3.727   6.312  17.697  0.00  0.00    +0.000 A 
ATOM     12  C   UNL     1       1.218   9.214  17.951  0.00  0.00    +0.000 C 
ATOM     13  C   UNL     1       1.120   9.800  19.368  0.00  0.00    +0.000 C 
ATOM     14  C   UNL     1       1.263   8.619  20.339  0.00  0.00    +0.000 C 
BRANCH   6  16
ATOM     15  C   UNL     1       6.010   5.375  19.483  0.00  0.00    +0.000 C 
ATOM     16  O   UNL     1       4.632   5.018  19.516  0.00  0.00    +0.000 OA
ENDBRANCH   6  16
ENDBRANCH   1  11
BRANCH   5  17
ATOM     17  C   UNL     1       4.086   3.146  17.065  0.00  0.00    +0.000 C 
BRANCH  17  18
ATOM     18  C   UNL     1       2.553   3.196  17.191  0.00  0.00    +0.000 C 
BRANCH  18  19
ATOM     19  N   UNL     1       2.032   2.240  18.195  0.00  0.00    +0.000 NA
ATOM     20  C   UNL     1       0.713   2.613  18.734  0.00  0.00    +0.000 C 
ATOM     21  C   UNL     1       1.007   3.471  19.945  0.00  0.00    +0.000 C 
ATOM     22  C   UNL     1       2.192   2.760  20.558  0.00  0.00    +0.000 C 
ATOM     23  C   UNL     1       2.934   2.162  19.366  0.00  0.00    +0.000 C 
ENDBRANCH  18  19
ENDBRANCH  17  18
ENDBRANCH   5  17
TORSDOF 5
ENDMDL
MODEL 8
REMARK VINA RESULT:      -6.7      1.764      3.597
REMARK  Name = 
REMARK  6 active torsions:
REMARK  status: ('A' for Active; 'I' for Inactive)
REMARK    1  A    between atoms: C_1  and  O_2
REMARK    2  A    between atoms: O_2  and  C_3
REMARK    3  A    between atoms: C_8  and  C_9
REMARK    4  A    between atoms: N_13  and  C_14
REMARK    5  A    between atoms: C_14  and  C_15
REMARK    6  A    between atoms: C_15  and  N_16
REMARK                            x       y       z     vdW  Elec       q    Type
REMARK                         _______ _______ _______ _____ _____    ______ ____
ROOT
ATOM      1  C   UNL     1       4.290   3.569  18.201  0.00  0.00    +0.000 A 
ATOM      2  N   UNL     1       3.880   2.317  18.372  0.00  0.00    +0.000 NA
ATOM      3  C   UNL     1       3.009   2.306  19.422  0.00  0.00    +0.000 A 
ATOM      4  C   UNL     1       2.895   3.561  19.953  0.00  0.00    +0.000 A 
ATOM      5  N   UNL     1       3.731   4.356  19.203  0.00  0.00    +0.000 N 
ENDROOT
BRANCH   1  11
ATOM      6  C   UNL     1       6.483   4.465  17.294  0.00  0.00    +0.000 A 
ATOM      7  C   UNL     1       7.323   4.788  16.211  0.00  0.00    +0.000 A 
ATOM      8  C   UNL     1       6.845   4.635  14.927  0.00  0.00    +0.000 A 
ATOM      9  C   UNL     1       5.537   4.220  14.698  0.00  0.00    +0.000 A 
ATOM     10  C   UNL     1       4.672   3.974  15.749  0.00  0.00    +0.000 A 
ATOM     11  C   UNL     1       5.148   4.009  17.073  0.00  0.00    +0.000 A 
ATOM     12  C   UNL     1       5.269   4.080  13.231  0.00  0.00    +0.000 C 
ATOM     13  C   UNL     1       6.701   4.048  12.675  0.00  0.00    +0.000 C 
ATOM     14  C   UNL     1       7.562   4.877  13.639  0.00  0.00    +0.000 C 
BRANCH   6  16
ATOM     15  C   UNL     1       7.701   5.661  18.946  0.00  0.00    +0.000 C 
ATOM     16  O   UNL     1       6.956   4.501  18.587  0.00  0.00    +0.000 OA
ENDBRANCH   6  16
ENDBRANCH   1  11
BRANCH   5  17
ATOM     17  C   UNL     1       3.977   5.744  19.557  0.00  0.00    +0.000 C 
BRANCH  17  18
ATOM     18  C   UNL     1       3.583   6.788  18.498  0.00  0.00    +0.000 C 
BRANCH  18  19
ATOM     19  N   UNL     1       2.150   7.158  18.568  0.00  0.00    +0.000 NA
ATOM     20  C   UNL     1       1.735   8.105  17.519  0.00  0.00    +0.000 C 
ATOM     21  C   UNL     1       1.949   9.478  18.116  0.00  0.00    +0.000 C 
ATOM     22  C   UNL     1       1.494   9.278  19.545  0.00  0.00    +0.000 C 
ATOM     23  C   UNL     1       1.840   7.824  19.853  0.00  0.00    +0.000 C 
ENDBRANCH  18  19
ENDBRANCH  17  18
ENDBRANCH   5  17
TORSDOF 5
ENDMDL
MODEL 9
REMARK VINA RESULT:      -6.7      2.652      6.904
REMARK  Name = 
REMARK  6 active torsions:
REMARK  status: ('A' for Active; 'I' for Inactive)
REMARK    1  A    between atoms: C_1  and  O_2
REMARK    2  A    between atoms: O_2  and  C_3
REMARK    3  A    between atoms: C_8  and  C_9
REMARK    4  A    between atoms: N_13  and  C_14
REMARK    5  A    between atoms: C_14  and  C_15
REMARK    6  A    between atoms: C_15  and  N_16
REMARK                            x       y       z     vdW  Elec       q    Type
REMARK                         _______ _______ _______ _____ _____    ______ ____
ROOT
ATOM      1  C   UNL     1       3.181   4.637  18.387  0.00  0.00    +0.000 A 
ATOM      2  N   UNL     1       2.521   3.602  17.879  0.00  0.00    +0.000 NA
ATOM      3  C   UNL     1       3.422   2.601  17.667  0.00  0.00    +0.000 A 
ATOM      4  C   UNL     1       4.679   3.018  18.005  0.00  0.00    +0.000 A 
ATOM      5  N   UNL     1       4.535   4.319  18.430  0.00  0.00    +0.000 N 
ENDROOT
BRANCH   1  11
ATOM      6  C   UNL     1       2.098   6.003  20.230  0.00  0.00    +0.000 A 
ATOM      7  C   UNL     1       1.564   7.216  20.708  0.00  0.00    +0.000 A 
ATOM      8  C   UNL     1       1.482   8.292  19.850  0.00  0.00    +0.000 A 
ATOM      9  C   UNL     1       1.866   8.174  18.518  0.00  0.00    +0.000 A 
ATOM     10  C   UNL     1       2.318   6.969  18.010  0.00  0.00    +0.000 A 
ATOM     11  C   UNL     1       2.524   5.877  18.873  0.00  0.00    +0.000 A 
ATOM     12  C   UNL     1       1.733   9.484  17.804  0.00  0.00    +0.000 C 
ATOM     13  C   UNL     1       1.638  10.454  18.991  0.00  0.00    +0.000 C 
ATOM     14  C   UNL     1       0.991   9.672  20.144  0.00  0.00    +0.000 C 
BRANCH   6  16
ATOM     15  C   UNL     1       1.322   3.901  21.020  0.00  0.00    +0.000 C 
ATOM     16  O   UNL     1       2.296   4.939  21.080  0.00  0.00    +0.000 OA
ENDBRANCH   6  16
ENDBRANCH   1  11
BRANCH   5  17
ATOM     17  C   UNL     1       5.687   5.145  18.750  0.00  0.00    +0.000 C 
BRANCH  17  18
ATOM     18  C   UNL     1       7.011   4.743  18.076  0.00  0.00    +0.000 C 
BRANCH  18  19
ATOM     19  N   UNL     1       7.300   5.543  16.864  0.00  0.00    +0.000 NA
ATOM     20  C   UNL     1       6.402   6.698  16.693  0.00  0.00    +0.000 C 
ATOM     21  C   UNL     1       5.241   6.180  15.874  0.00  0.00    +0.000 C 
ATOM     22  C   UNL     1       5.932   5.273  14.881  0.00  0.00    +0.000 C 
ATOM     23  C   UNL     1       7.137   4.726  15.641  0.00  0.00    +0.000 C 
ENDBRANCH  18  19
ENDBRANCH  17  18
ENDBRANCH   5  17
TORSDOF 5
ENDMDL
