MODEL 1
REMARK VINA RESULT:      -7.9      0.000      0.000
REMARK  Name = 
REMARK  9 active torsions:
REMARK  status: ('A' for Active; 'I' for Inactive)
REMARK    1  A    between atoms: C_1  and  C_2
REMARK    2  A    between atoms: C_2  and  C_3
REMARK    3  A    between atoms: C_8  and  C_9
REMARK    4  A    between atoms: N_11  and  C_12
REMARK    5  A    between atoms: C_12  and  C_13
REMARK    6  A    between atoms: C_13  and  N_14
REMARK    7  A    between atoms: N_17  and  C_18
REMARK    8  A    between atoms: C_18  and  C_19
REMARK    9  A    between atoms: C_18  and  C_20
REMARK                            x       y       z     vdW  Elec       q    Type
REMARK                         _______ _______ _______ _____ _____    ______ ____
ROOT
ATOM      1  C   UNL     1       2.979   3.885  18.576  0.00  0.00    +0.000 C 
ATOM      2  C   UNL     1       2.815   4.009  20.124  0.00  0.00    +0.000 C 
ATOM      3  C   UNL     1       1.391   4.039  20.663  0.00  0.00    +0.000 C 
ATOM      4  C   UNL     1       0.595   2.858  20.142  0.00  0.00    +0.000 C 
ATOM      5  C   UNL     1       0.581   2.857  18.623  0.00  0.00    +0.000 C 
ATOM      6  C   UNL     1       2.004   2.770  18.066  0.00  0.00    +0.000 C 
ENDROOT
BRANCH   1   7
ATOM      7  N   UNL     1       4.411   3.647  18.132  0.00  0.00    +0.000 NA
ATOM      8  C   UNL     1       4.799   4.290  16.854  0.00  0.00    +0.000 C 
ATOM      9  C   UNL     1       5.187   5.802  16.910  0.00  0.00    +0.000 C 
ATOM     10  N   UNL     1       5.959   6.286  18.079  0.00  0.00    +0.000 NA
ATOM     11  C   UNL     1       5.674   5.505  19.297  0.00  0.00    +0.000 C 
ATOM     12  C   UNL     1       5.480   3.990  19.088  0.00  0.00    +0.000 C 
BRANCH  10  13
ATOM     13  C   UNL     1       7.378   6.566  17.794  0.00  0.00    +0.000 C 
ATOM     14  C   UNL     1       7.575   8.052  17.421  0.00  0.00    +0.000 C 
ATOM     15  C   UNL     1       8.305   6.307  18.997  0.00  0.00    +0.000 C 
ENDBRANCH  10  13
ENDBRANCH   1   7
BRANCH   1  16
ATOM     16  C   UNL     1       2.526   5.264  17.944  0.00  0.00    +0.000 C 
BRANCH  16  19
ATOM     17  C   UNL     1       2.175   7.557  18.832  0.00  0.00    +0.000 C 
ATOM     18  O   UNL     1       2.933   8.038  17.992  0.00  0.00    +0.000 OA
ATOM     19  N   UNL     1       1.935   6.201  18.897  0.00  0.00    +0.000 N 
ATOM     20  H   UNL     1       1.145   5.843  19.411  0.00  0.00    +0.000 HD
BRANCH  17  26
ATOM     21  C   UNL     1       0.548   9.502  19.457  0.00  0.00    +0.000 A 
ATOM     22  C   UNL     1      -0.112  10.191  20.499  0.00  0.00    +0.000 A 
ATOM     23  C   UNL     1       0.139   9.911  21.840  0.00  0.00    +0.000 A 
ATOM     24  C   UNL     1       1.065   8.933  22.169  0.00  0.00    +0.000 A 
ATOM     25  C   UNL     1       1.714   8.223  21.154  0.00  0.00    +0.000 A 
ATOM     26  C   UNL     1       1.473   8.485  19.788  0.00  0.00    +0.000 A 
BRANCH  21  28
ATOM     27  C   UNL     1      -1.258  10.341  17.956  0.00  0.00    +0.000 C 
ATOM     28  C   UNL     1       0.209   9.940  18.053  0.00  0.00    +0.000 C 
ENDBRANCH  21  28
ENDBRANCH  17  26
ENDBRANCH  16  19
ENDBRANCH   1  16
TORSDOF 6
ENDMDL
MODEL 2
REMARK VINA RESULT:      -7.7      1.776      2.663
REMARK  Name = 
REMARK  9 active torsions:
REMARK  status: ('A' for Active; 'I' for Inactive)
REMARK    1  A    between atoms: C_1  and  C_2
REMARK    2  A    between atoms: C_2  and  C_3
REMARK    3  A    between atoms: C_8  and  C_9
REMARK    4  A    between atoms: N_11  and  C_12
REMARK    5  A    between atoms: C_12  and  C_13
REMARK    6  A    between atoms: C_13  and  N_14
REMARK    7  A    between atoms: N_17  and  C_18
REMARK    8  A    between atoms: C_18  and  C_19
REMARK    9  A    between atoms: C_18  and  C_20
REMARK                            x       y       z     vdW  Elec       q    Type
REMARK                         _______ _______ _______ _____ _____    ______ ____
ROOT
ATOM      1  C   UNL     1       2.630   4.994  19.899  0.00  0.00    +0.000 C 
ATOM      2  C   UNL     1       3.333   3.863  20.715  0.00  0.00    +0.000 C 
ATOM      3  C   UNL     1       2.428   2.860  21.419  0.00  0.00    +0.000 C 
ATOM      4  C   UNL     1       1.429   2.264  20.445  0.00  0.00    +0.000 C 
ATOM      5  C   UNL     1       0.597   3.361  19.801  0.00  0.00    +0.000 C 
ATOM      6  C   UNL     1       1.490   4.346  19.043  0.00  0.00    +0.000 C 
ENDROOT
BRANCH   1   7
ATOM      7  N   UNL     1       3.585   5.822  19.057  0.00  0.00    +0.000 NA
ATOM      8  C   UNL     1       5.024   5.644  19.361  0.00  0.00    +0.000 C 
ATOM      9  C   UNL     1       5.732   4.400  18.738  0.00  0.00    +0.000 C 
ATOM     10  N   UNL     1       5.361   3.997  17.361  0.00  0.00    +0.000 NA
ATOM     11  C   UNL     1       3.967   4.349  17.035  0.00  0.00    +0.000 C 
ATOM     12  C   UNL     1       3.472   5.699  17.592  0.00  0.00    +0.000 C 
BRANCH  10  13
ATOM     13  C   UNL     1       6.377   4.316  16.342  0.00  0.00    +0.000 C 
ATOM     14  C   UNL     1       5.746   4.328  14.932  0.00  0.00    +0.000 C 
ATOM     15  C   UNL     1       7.015   5.705  16.530  0.00  0.00    +0.000 C 
ENDBRANCH  10  13
ENDBRANCH   1   7
BRANCH   1  16
ATOM     16  C   UNL     1       1.964   5.982  20.942  0.00  0.00    +0.000 C 
BRANCH  16  19
ATOM     17  C   UNL     1       0.817   8.183  20.873  0.00  0.00    +0.000 C 
ATOM     18  O   UNL     1      -0.088   7.777  21.600  0.00  0.00    +0.000 OA
ATOM     19  N   UNL     1       1.853   7.363  20.480  0.00  0.00    +0.000 N 
ATOM     20  H   UNL     1       2.701   7.754  20.098  0.00  0.00    +0.000 HD
BRANCH  17  26
ATOM     21  C   UNL     1       0.816  10.104  19.104  0.00  0.00    +0.000 A 
ATOM     22  C   UNL     1       0.661  11.490  18.875  0.00  0.00    +0.000 A 
ATOM     23  C   UNL     1       0.514  12.395  19.922  0.00  0.00    +0.000 A 
ATOM     24  C   UNL     1       0.523  11.932  21.229  0.00  0.00    +0.000 A 
ATOM     25  C   UNL     1       0.653  10.561  21.478  0.00  0.00    +0.000 A 
ATOM     26  C   UNL     1       0.798   9.624  20.433  0.00  0.00    +0.000 A 
BRANCH  21  28
ATOM     27  C   UNL     1       2.493   9.046  17.590  0.00  0.00    +0.000 C 
ATOM     28  C   UNL     1       1.009   9.247  17.876  0.00  0.00    +0.000 C 
ENDBRANCH  21  28
ENDBRANCH  17  26
ENDBRANCH  16  19
ENDBRANCH   1  16
TORSDOF 6
ENDMDL
MODEL 3
REMARK VINA RESULT:      -7.6      1.828      2.904
REMARK  Name = 
REMARK  9 active torsions:
REMARK  status: ('A' for Active; 'I' for Inactive)
REMARK    1  A    between atoms: C_1  and  C_2
REMARK    2  A    between atoms: C_2  and  C_3
REMARK    3  A    between atoms: C_8  and  C_9
REMARK    4  A    between atoms: N_11  and  C_12
REMARK    5  A    between atoms: C_12  and  C_13
REMARK    6  A    between atoms: C_13  and  N_14
REMARK    7  A    between atoms: N_17  and  C_18
REMARK    8  A    between atoms: C_18  and  C_19
REMARK    9  A    between atoms: C_18  and  C_20
REMARK                            x       y       z     vdW  Elec       q    Type
REMARK                         _______ _______ _______ _____ _____    ______ ____
ROOT
ATOM      1  C   UNL     1       2.720   4.962  19.749  0.00  0.00    +0.000 C 
ATOM      2  C   UNL     1       3.362   3.742  20.481  0.00  0.00    +0.000 C 
ATOM      3  C   UNL     1       2.404   2.733  21.102  0.00  0.00    +0.000 C 
ATOM      4  C   UNL     1       1.388   2.259  20.080  0.00  0.00    +0.000 C 
ATOM      5  C   UNL     1       0.614   3.438  19.516  0.00  0.00    +0.000 C 
ATOM      6  C   UNL     1       1.559   4.434  18.839  0.00  0.00    +0.000 C 
ENDROOT
BRANCH   1   7
ATOM      7  N   UNL     1       3.719   5.805  18.977  0.00  0.00    +0.000 NA
ATOM      8  C   UNL     1       5.144   5.576  19.315  0.00  0.00    +0.000 C 
ATOM      9  C   UNL     1       5.841   4.346  18.653  0.00  0.00    +0.000 C 
ATOM     10  N   UNL     1       5.504   4.019  17.248  0.00  0.00    +0.000 NA
ATOM     11  C   UNL     1       4.129   4.423  16.897  0.00  0.00    +0.000 C 
ATOM     12  C   UNL     1       3.649   5.756  17.505  0.00  0.00    +0.000 C 
BRANCH  10  13
ATOM     13  C   UNL     1       6.557   4.361  16.276  0.00  0.00    +0.000 C 
ATOM     14  C   UNL     1       6.028   4.230  14.831  0.00  0.00    +0.000 C 
ATOM     15  C   UNL     1       7.064   5.809  16.409  0.00  0.00    +0.000 C 
ENDBRANCH  10  13
ENDBRANCH   1   7
BRANCH   1  16
ATOM     16  C   UNL     1       2.090   5.899  20.859  0.00  0.00    +0.000 C 
BRANCH  16  19
ATOM     17  C   UNL     1       0.843   8.046  20.801  0.00  0.00    +0.000 C 
ATOM     18  O   UNL     1      -0.100   7.558  21.422  0.00  0.00    +0.000 OA
ATOM     19  N   UNL     1       1.949   7.298  20.460  0.00  0.00    +0.000 N 
ATOM     20  H   UNL     1       2.806   7.748  20.176  0.00  0.00    +0.000 HD
BRANCH  17  26
ATOM     21  C   UNL     1       0.416  10.577  21.280  0.00  0.00    +0.000 A 
ATOM     22  C   UNL     1       0.550  11.902  20.804  0.00  0.00    +0.000 A 
ATOM     23  C   UNL     1       1.016  12.177  19.521  0.00  0.00    +0.000 A 
ATOM     24  C   UNL     1       1.357  11.129  18.680  0.00  0.00    +0.000 A 
ATOM     25  C   UNL     1       1.253   9.811  19.139  0.00  0.00    +0.000 A 
ATOM     26  C   UNL     1       0.789   9.507  20.436  0.00  0.00    +0.000 A 
BRANCH  21  28
ATOM     27  C   UNL     1      -1.253  11.442  22.918  0.00  0.00    +0.000 C 
ATOM     28  C   UNL     1      -0.142  10.427  22.674  0.00  0.00    +0.000 C 
ENDBRANCH  21  28
ENDBRANCH  17  26
ENDBRANCH  16  19
ENDBRANCH   1  16
TORSDOF 6
ENDMDL
MODEL 4
REMARK VINA RESULT:      -7.6      1.523      2.139
REMARK  Name = 
REMARK  9 active torsions:
REMARK  status: ('A' for Active; 'I' for Inactive)
REMARK    1  A    between atoms: C_1  and  C_2
REMARK    2  A    between atoms: C_2  and  C_3
REMARK    3  A    between atoms: C_8  and  C_9
REMARK    4  A    between atoms: N_11  and  C_12
REMARK    5  A    between atoms: C_12  and  C_13
REMARK    6  A    between atoms: C_13  and  N_14
REMARK    7  A    between atoms: N_17  and  C_18
REMARK    8  A    between atoms: C_18  and  C_19
REMARK    9  A    between atoms: C_18  and  C_20
REMARK                            x       y       z     vdW  Elec       q    Type
REMARK                         _______ _______ _______ _____ _____    ______ ____
ROOT
ATOM      1  C   UNL     1       3.180   5.089  18.902  0.00  0.00    +0.000 C 
ATOM      2  C   UNL     1       2.851   4.918  20.419  0.00  0.00    +0.000 C 
ATOM      3  C   UNL     1       1.401   4.622  20.777  0.00  0.00    +0.000 C 
ATOM      4  C   UNL     1       0.885   3.432  19.989  0.00  0.00    +0.000 C 
ATOM      5  C   UNL     1       1.016   3.689  18.497  0.00  0.00    +0.000 C 
ATOM      6  C   UNL     1       2.477   3.932  18.113  0.00  0.00    +0.000 C 
ENDROOT
BRANCH   1   7
ATOM      7  N   UNL     1       4.667   5.168  18.606  0.00  0.00    +0.000 NA
ATOM      8  C   UNL     1       5.260   3.961  17.984  0.00  0.00    +0.000 C 
ATOM      9  C   UNL     1       5.077   3.796  16.442  0.00  0.00    +0.000 C 
ATOM     10  N   UNL     1       5.160   5.006  15.590  0.00  0.00    +0.000 NA
ATOM     11  C   UNL     1       4.724   6.220  16.305  0.00  0.00    +0.000 C 
ATOM     12  C   UNL     1       5.133   6.304  17.789  0.00  0.00    +0.000 C 
BRANCH  10  13
ATOM     13  C   UNL     1       6.405   5.114  14.810  0.00  0.00    +0.000 C 
ATOM     14  C   UNL     1       7.635   4.862  15.710  0.00  0.00    +0.000 C 
ATOM     15  C   UNL     1       6.501   4.085  13.668  0.00  0.00    +0.000 C 
ENDBRANCH  10  13
ENDBRANCH   1   7
BRANCH   1  16
ATOM     16  C   UNL     1       2.546   6.462  18.435  0.00  0.00    +0.000 C 
BRANCH  16  19
ATOM     17  C   UNL     1       1.617   8.571  19.361  0.00  0.00    +0.000 C 
ATOM     18  O   UNL     1       1.896   9.188  18.335  0.00  0.00    +0.000 OA
ATOM     19  N   UNL     1       1.921   7.235  19.506  0.00  0.00    +0.000 N 
ATOM     20  H   UNL     1       1.483   6.683  20.228  0.00  0.00    +0.000 HD
BRANCH  17  26
ATOM     21  C   UNL     1      -0.098  10.290  20.321  0.00  0.00    +0.000 A 
ATOM     22  C   UNL     1      -0.760  10.770  21.475  0.00  0.00    +0.000 A 
ATOM     23  C   UNL     1      -0.444  10.306  22.749  0.00  0.00    +0.000 A 
ATOM     24  C   UNL     1       0.550   9.351  22.899  0.00  0.00    +0.000 A 
ATOM     25  C   UNL     1       1.202   8.847  21.769  0.00  0.00    +0.000 A 
ATOM     26  C   UNL     1       0.896   9.297  20.468  0.00  0.00    +0.000 A 
BRANCH  21  28
ATOM     27  C   UNL     1      -1.779  11.745  19.190  0.00  0.00    +0.000 C 
ATOM     28  C   UNL     1      -0.513  10.914  19.011  0.00  0.00    +0.000 C 
ENDBRANCH  21  28
ENDBRANCH  17  26
ENDBRANCH  16  19
ENDBRANCH   1  16
TORSDOF 6
ENDMDL
MODEL 5
REMARK VINA RESULT:      -7.5      0.750      1.051
REMARK  Name = 
REMARK  9 active torsions:
REMARK  status: ('A' for Active; 'I' for Inactive)
REMARK    1  A    between atoms: C_1  and  C_2
REMARK    2  A    between atoms: C_2  and  C_3
REMARK    3  A    between atoms: C_8  and  C_9
REMARK    4  A    between atoms: N_11  and  C_12
REMARK    5  A    between atoms: C_12  and  C_13
REMARK    6  A    between atoms: C_13  and  N_14
REMARK    7  A    between atoms: N_17  and  C_18
REMARK    8  A    between atoms: C_18  and  C_19
REMARK    9  A    between atoms: C_18  and  C_20
REMARK                            x       y       z     vdW  Elec       q    Type
REMARK                         _______ _______ _______ _____ _____    ______ ____
ROOT
ATOM      1  C   UNL     1       2.964   3.766  18.762  0.00  0.00    +0.000 C 
ATOM      2  C   UNL     1       2.959   4.018  20.303  0.00  0.00    +0.000 C 
ATOM      3  C   UNL     1       1.598   4.086  20.983  0.00  0.00    +0.000 C 
ATOM      4  C   UNL     1       0.768   2.860  20.647  0.00  0.00    +0.000 C 
ATOM      5  C   UNL     1       0.598   2.732  19.143  0.00  0.00    +0.000 C 
ATOM      6  C   UNL     1       1.957   2.607  18.451  0.00  0.00    +0.000 C 
ENDROOT
BRANCH   1   7
ATOM      7  N   UNL     1       4.345   3.499  18.192  0.00  0.00    +0.000 NA
ATOM      8  C   UNL     1       4.604   4.072  16.850  0.00  0.00    +0.000 C 
ATOM      9  C   UNL     1       4.994   5.582  16.787  0.00  0.00    +0.000 C 
ATOM     10  N   UNL     1       5.877   6.125  17.846  0.00  0.00    +0.000 NA
ATOM     11  C   UNL     1       5.714   5.411  19.127  0.00  0.00    +0.000 C 
ATOM     12  C   UNL     1       5.503   3.888  19.019  0.00  0.00    +0.000 C 
BRANCH  10  13
ATOM     13  C   UNL     1       7.260   6.384  17.409  0.00  0.00    +0.000 C 
ATOM     14  C   UNL     1       7.438   6.014  15.920  0.00  0.00    +0.000 C 
ATOM     15  C   UNL     1       7.671   7.864  17.526  0.00  0.00    +0.000 C 
ENDBRANCH  10  13
ENDBRANCH   1   7
BRANCH   1  16
ATOM     16  C   UNL     1       2.428   5.085  18.068  0.00  0.00    +0.000 C 
BRANCH  16  19
ATOM     17  C   UNL     1       2.218   7.448  18.800  0.00  0.00    +0.000 C 
ATOM     18  O   UNL     1       2.893   7.841  17.851  0.00  0.00    +0.000 OA
ATOM     19  N   UNL     1       1.959   6.109  18.999  0.00  0.00    +0.000 N 
ATOM     20  H   UNL     1       1.221   5.815  19.618  0.00  0.00    +0.000 HD
BRANCH  17  26
ATOM     21  C   UNL     1       1.165   9.757  19.414  0.00  0.00    +0.000 A 
ATOM     22  C   UNL     1       0.532  10.531  20.414  0.00  0.00    +0.000 A 
ATOM     23  C   UNL     1       0.382  10.066  21.718  0.00  0.00    +0.000 A 
ATOM     24  C   UNL     1       0.869   8.813  22.054  0.00  0.00    +0.000 A 
ATOM     25  C   UNL     1       1.480   8.021  21.075  0.00  0.00    +0.000 A 
ATOM     26  C   UNL     1       1.638   8.468  19.746  0.00  0.00    +0.000 A 
BRANCH  21  28
ATOM     27  C   UNL     1       2.274  11.573  18.113  0.00  0.00    +0.000 C 
ATOM     28  C   UNL     1       1.295  10.405  18.058  0.00  0.00    +0.000 C 
ENDBRANCH  21  28
ENDBRANCH  17  26
ENDBRANCH  16  19
ENDBRANCH   1  16
TORSDOF 6
ENDMDL
MODEL 6
REMARK VINA RESULT:      -7.4      1.794      2.584
REMARK  Name = 
REMARK  9 active torsions:
REMARK  status: ('A' for Active; 'I' for Inactive)
REMARK    1  A    between atoms: C_1  and  C_2
REMARK    2  A    between atoms: C_2  and  C_3
REMARK    3  A    between atoms: C_8  and  C_9
REMARK    4  A    between atoms: N_11  and  C_12
REMARK    5  A    between atoms: C_12  and  C_13
REMARK    6  A    between atoms: C_13  and  N_14
REMARK    7  A    between atoms: N_17  and  C_18
REMARK    8  A    between atoms: C_18  and  C_19
REMARK    9  A    between atoms: C_18  and  C_20
REMARK                            x       y       z     vdW  Elec       q    Type
REMARK                         _______ _______ _______ _____ _____    ______ ____
ROOT
ATOM      1  C   UNL     1       3.747   5.558  18.223  0.00  0.00    +0.000 C 
ATOM      2  C   UNL     1       3.576   5.351  19.761  0.00  0.00    +0.000 C 
ATOM      3  C   UNL     1       2.161   5.099  20.267  0.00  0.00    +0.000 C 
ATOM      4  C   UNL     1       1.515   3.957  19.506  0.00  0.00    +0.000 C 
ATOM      5  C   UNL     1       1.495   4.256  18.017  0.00  0.00    +0.000 C 
ATOM      6  C   UNL     1       2.915   4.456  17.483  0.00  0.00    +0.000 C 
ENDROOT
BRANCH   1   7
ATOM      7  N   UNL     1       5.195   5.590  17.769  0.00  0.00    +0.000 NA
ATOM      8  C   UNL     1       5.851   4.269  17.632  0.00  0.00    +0.000 C 
ATOM      9  C   UNL     1       5.575   3.473  16.318  0.00  0.00    +0.000 C 
ATOM     10  N   UNL     1       5.485   4.227  15.045  0.00  0.00    +0.000 NA
ATOM     11  C   UNL     1       4.991   5.601  15.247  0.00  0.00    +0.000 C 
ATOM     12  C   UNL     1       5.495   6.312  16.519  0.00  0.00    +0.000 C 
BRANCH  10  13
ATOM     13  C   UNL     1       6.657   4.071  14.165  0.00  0.00    +0.000 C 
ATOM     14  C   UNL     1       6.222   3.598  12.760  0.00  0.00    +0.000 C 
ATOM     15  C   UNL     1       7.434   5.383  13.945  0.00  0.00    +0.000 C 
ENDBRANCH  10  13
ENDBRANCH   1   7
BRANCH   1  16
ATOM     16  C   UNL     1       3.124   6.970  17.866  0.00  0.00    +0.000 C 
BRANCH  16  19
ATOM     17  C   UNL     1       1.812   8.845  18.831  0.00  0.00    +0.000 C 
ATOM     18  O   UNL     1       1.883   9.483  17.782  0.00  0.00    +0.000 OA
ATOM     19  N   UNL     1       2.413   7.612  18.969  0.00  0.00    +0.000 N 
ATOM     20  H   UNL     1       2.153   6.996  19.724  0.00  0.00    +0.000 HD
BRANCH  17  26
ATOM     21  C   UNL     1      -0.068  10.319  19.885  0.00  0.00    +0.000 A 
ATOM     22  C   UNL     1      -0.777  10.655  21.061  0.00  0.00    +0.000 A 
ATOM     23  C   UNL     1      -0.420  10.142  22.305  0.00  0.00    +0.000 A 
ATOM     24  C   UNL     1       0.663   9.282  22.402  0.00  0.00    +0.000 A 
ATOM     25  C   UNL     1       1.366   8.920  21.248  0.00  0.00    +0.000 A 
ATOM     26  C   UNL     1       1.020   9.421  19.976  0.00  0.00    +0.000 A 
BRANCH  21  28
ATOM     27  C   UNL     1      -1.780  10.282  18.072  0.00  0.00    +0.000 C 
ATOM     28  C   UNL     1      -0.539  10.983  18.615  0.00  0.00    +0.000 C 
ENDBRANCH  21  28
ENDBRANCH  17  26
ENDBRANCH  16  19
ENDBRANCH   1  16
TORSDOF 6
ENDMDL
MODEL 7
REMARK VINA RESULT:      -7.4      1.660      2.381
REMARK  Name = 
REMARK  9 active torsions:
REMARK  status: ('A' for Active; 'I' for Inactive)
REMARK    1  A    between atoms: C_1  and  C_2
REMARK    2  A    between atoms: C_2  and  C_3
REMARK    3  A    between atoms: C_8  and  C_9
REMARK    4  A    between atoms: N_11  and  C_12
REMARK    5  A    between atoms: C_12  and  C_13
REMARK    6  A    between atoms: C_13  and  N_14
REMARK    7  A    between atoms: N_17  and  C_18
REMARK    8  A    between atoms: C_18  and  C_19
REMARK    9  A    between atoms: C_18  and  C_20
REMARK                            x       y       z     vdW  Elec       q    Type
REMARK                         _______ _______ _______ _____ _____    ______ ____
ROOT
ATOM      1  C   UNL     1       3.201   5.317  18.883  0.00  0.00    +0.000 C 
ATOM      2  C   UNL     1       2.867   5.139  20.398  0.00  0.00    +0.000 C 
ATOM      3  C   UNL     1       1.410   4.870  20.753  0.00  0.00    +0.000 C 
ATOM      4  C   UNL     1       0.872   3.698  19.954  0.00  0.00    +0.000 C 
ATOM      5  C   UNL     1       1.009   3.965  18.465  0.00  0.00    +0.000 C 
ATOM      6  C   UNL     1       2.475   4.182  18.084  0.00  0.00    +0.000 C 
ENDROOT
BRANCH   1   7
ATOM      7  N   UNL     1       4.689   5.369  18.589  0.00  0.00    +0.000 NA
ATOM      8  C   UNL     1       5.352   4.055  18.415  0.00  0.00    +0.000 C 
ATOM      9  C   UNL     1       5.215   3.371  17.018  0.00  0.00    +0.000 C 
ATOM     10  N   UNL     1       5.263   4.226  15.809  0.00  0.00    +0.000 NA
ATOM     11  C   UNL     1       4.754   5.586  16.068  0.00  0.00    +0.000 C 
ATOM     12  C   UNL     1       5.122   6.186  17.440  0.00  0.00    +0.000 C 
BRANCH  10  13
ATOM     13  C   UNL     1       6.520   4.129  15.047  0.00  0.00    +0.000 C 
ATOM     14  C   UNL     1       6.231   3.914  13.545  0.00  0.00    +0.000 C 
ATOM     15  C   UNL     1       7.385   5.400  15.131  0.00  0.00    +0.000 C 
ENDBRANCH  10  13
ENDBRANCH   1   7
BRANCH   1  16
ATOM     16  C   UNL     1       2.595   6.707  18.428  0.00  0.00    +0.000 C 
BRANCH  16  19
ATOM     17  C   UNL     1       1.410   8.712  19.291  0.00  0.00    +0.000 C 
ATOM     18  O   UNL     1       1.262   9.159  18.155  0.00  0.00    +0.000 OA
ATOM     19  N   UNL     1       2.074   7.526  19.520  0.00  0.00    +0.000 N 
ATOM     20  H   UNL     1       1.983   7.048  20.403  0.00  0.00    +0.000 HD
BRANCH  17  26
ATOM     21  C   UNL     1       0.671  10.874  20.554  0.00  0.00    +0.000 A 
ATOM     22  C   UNL     1      -0.025  11.407  21.664  0.00  0.00    +0.000 A 
ATOM     23  C   UNL     1      -0.546  10.591  22.664  0.00  0.00    +0.000 A 
ATOM     24  C   UNL     1      -0.378   9.217  22.579  0.00  0.00    +0.000 A 
ATOM     25  C   UNL     1       0.289   8.667  21.479  0.00  0.00    +0.000 A 
ATOM     26  C   UNL     1       0.821   9.473  20.450  0.00  0.00    +0.000 A 
BRANCH  21  28
ATOM     27  C   UNL     1       0.093  12.480  18.735  0.00  0.00    +0.000 C 
ATOM     28  C   UNL     1       1.218  11.879  19.571  0.00  0.00    +0.000 C 
ENDBRANCH  21  28
ENDBRANCH  17  26
ENDBRANCH  16  19
ENDBRANCH   1  16
TORSDOF 6
ENDMDL
MODEL 8
REMARK VINA RESULT:      -7.3      1.787      2.758
REMARK  Name = 
REMARK  9 active torsions:
REMARK  status: ('A' for Active; 'I' for Inactive)
REMARK    1  A    between atoms: C_1  and  C_2
REMARK    2  A    between atoms: C_2  and  C_3
REMARK    3  A    between atoms: C_8  and  C_9
REMARK    4  A    between atoms: N_11  and  C_12
REMARK    5  A    between atoms: C_12  and  C_13
REMARK    6  A    between atoms: C_13  and  N_14
REMARK    7  A    between atoms: N_17  and  C_18
REMARK    8  A    between atoms: C_18  and  C_19
REMARK    9  A    between atoms: C_18  and  C_20
REMARK                            x       y       z     vdW  Elec       q    Type
REMARK                         _______ _______ _______ _____ _____    ______ ____
ROOT
ATOM      1  C   UNL     1       2.611   5.097  20.018  0.00  0.00    +0.000 C 
ATOM      2  C   UNL     1       3.265   3.916  20.802  0.00  0.00    +0.000 C 
ATOM      3  C   UNL     1       2.319   2.889  21.412  0.00  0.00    +0.000 C 
ATOM      4  C   UNL     1       1.356   2.359  20.366  0.00  0.00    +0.000 C 
ATOM      5  C   UNL     1       0.566   3.499  19.747  0.00  0.00    +0.000 C 
ATOM      6  C   UNL     1       1.501   4.510  19.080  0.00  0.00    +0.000 C 
ENDROOT
BRANCH   1   7
ATOM      7  N   UNL     1       3.610   5.955  19.263  0.00  0.00    +0.000 NA
ATOM      8  C   UNL     1       5.034   5.596  19.455  0.00  0.00    +0.000 C 
ATOM      9  C   UNL     1       5.586   4.407  18.606  0.00  0.00    +0.000 C 
ATOM     10  N   UNL     1       5.120   4.267  17.207  0.00  0.00    +0.000 NA
ATOM     11  C   UNL     1       3.757   4.797  17.018  0.00  0.00    +0.000 C 
ATOM     12  C   UNL     1       3.426   6.081  17.805  0.00  0.00    +0.000 C 
BRANCH  10  13
ATOM     13  C   UNL     1       6.120   4.648  16.194  0.00  0.00    +0.000 C 
ATOM     14  C   UNL     1       7.548   4.550  16.775  0.00  0.00    +0.000 C 
ATOM     15  C   UNL     1       6.109   3.737  14.952  0.00  0.00    +0.000 C 
ENDBRANCH  10  13
ENDBRANCH   1   7
BRANCH   1  16
ATOM     16  C   UNL     1       1.911   6.037  21.083  0.00  0.00    +0.000 C 
BRANCH  16  19
ATOM     17  C   UNL     1       1.123   8.393  21.116  0.00  0.00    +0.000 C 
ATOM     18  O   UNL     1       1.668   8.598  22.199  0.00  0.00    +0.000 OA
ATOM     19  N   UNL     1       1.171   7.157  20.506  0.00  0.00    +0.000 N 
ATOM     20  H   UNL     1       0.943   7.058  19.529  0.00  0.00    +0.000 HD
BRANCH  17  26
ATOM     21  C   UNL     1       0.370   9.793  19.045  0.00  0.00    +0.000 A 
ATOM     22  C   UNL     1      -0.453  10.841  18.572  0.00  0.00    +0.000 A 
ATOM     23  C   UNL     1      -1.200  11.636  19.438  0.00  0.00    +0.000 A 
ATOM     24  C   UNL     1      -1.137  11.403  20.803  0.00  0.00    +0.000 A 
ATOM     25  C   UNL     1      -0.345  10.357  21.291  0.00  0.00    +0.000 A 
ATOM     26  C   UNL     1       0.416   9.535  20.434  0.00  0.00    +0.000 A 
BRANCH  21  28
ATOM     27  C   UNL     1       2.511   9.703  17.770  0.00  0.00    +0.000 C 
ATOM     28  C   UNL     1       1.155   9.043  17.998  0.00  0.00    +0.000 C 
ENDBRANCH  21  28
ENDBRANCH  17  26
ENDBRANCH  16  19
ENDBRANCH   1  16
TORSDOF 6
ENDMDL
MODEL 9
REMARK VINA RESULT:      -7.3      1.669      2.652
REMARK  Name = 
REMARK  9 active torsions:
REMARK  status: ('A' for Active; 'I' for Inactive)
REMARK    1  A    between atoms: C_1  and  C_2
REMARK    2  A    between atoms: C_2  and  C_3
REMARK    3  A    between atoms: C_8  and  C_9
REMARK    4  A    between atoms: N_11  and  C_12
REMARK    5  A    between atoms: C_12  and  C_13
REMARK    6  A    between atoms: C_13  and  N_14
REMARK    7  A    between atoms: N_17  and  C_18
REMARK    8  A    between atoms: C_18  and  C_19
REMARK    9  A    between atoms: C_18  and  C_20
REMARK                            x       y       z     vdW  Elec       q    Type
REMARK                         _______ _______ _______ _____ _____    ______ ____
ROOT
ATOM      1  C   UNL     1       3.133   5.071  18.881  0.00  0.00    +0.000 C 
ATOM      2  C   UNL     1       2.765   5.269  20.385  0.00  0.00    +0.000 C 
ATOM      3  C   UNL     1       1.337   4.930  20.792  0.00  0.00    +0.000 C 
ATOM      4  C   UNL     1       0.968   3.530  20.339  0.00  0.00    +0.000 C 
ATOM      5  C   UNL     1       1.130   3.400  18.834  0.00  0.00    +0.000 C 
ATOM      6  C   UNL     1       2.575   3.683  18.416  0.00  0.00    +0.000 C 
ENDROOT
BRANCH   1   7
ATOM      7  N   UNL     1       4.616   5.222  18.591  0.00  0.00    +0.000 NA
ATOM      8  C   UNL     1       5.282   4.026  18.024  0.00  0.00    +0.000 C 
ATOM      9  C   UNL     1       5.122   3.786  16.490  0.00  0.00    +0.000 C 
ATOM     10  N   UNL     1       5.144   4.962  15.589  0.00  0.00    +0.000 NA
ATOM     11  C   UNL     1       4.634   6.178  16.248  0.00  0.00    +0.000 C 
ATOM     12  C   UNL     1       5.024   6.348  17.730  0.00  0.00    +0.000 C 
BRANCH  10  13
ATOM     13  C   UNL     1       6.388   5.108  14.812  0.00  0.00    +0.000 C 
ATOM     14  C   UNL     1       7.622   4.888  15.715  0.00  0.00    +0.000 C 
ATOM     15  C   UNL     1       6.517   4.085  13.668  0.00  0.00    +0.000 C 
ENDBRANCH  10  13
ENDBRANCH   1   7
BRANCH   1  16
ATOM     16  C   UNL     1       2.389   6.203  18.061  0.00  0.00    +0.000 C 
BRANCH  16  19
ATOM     17  C   UNL     1       1.944   8.633  18.315  0.00  0.00    +0.000 C 
ATOM     18  O   UNL     1       2.265   8.851  17.149  0.00  0.00    +0.000 OA
ATOM     19  N   UNL     1       1.998   7.365  18.855  0.00  0.00    +0.000 N 
ATOM     20  H   UNL     1       1.513   7.151  19.713  0.00  0.00    +0.000 HD
BRANCH  17  26
ATOM     21  C   UNL     1       0.975   9.714  20.486  0.00  0.00    +0.000 A 
ATOM     22  C   UNL     1       0.677  10.916  21.167  0.00  0.00    +0.000 A 
ATOM     23  C   UNL     1       0.821  12.160  20.558  0.00  0.00    +0.000 A 
ATOM     24  C   UNL     1       1.263  12.229  19.246  0.00  0.00    +0.000 A 
ATOM     25  C   UNL     1       1.585  11.053  18.561  0.00  0.00    +0.000 A 
ATOM     26  C   UNL     1       1.453   9.781  19.157  0.00  0.00    +0.000 A 
BRANCH  21  28
ATOM     27  C   UNL     1      -0.474   8.590  22.177  0.00  0.00    +0.000 C 
ATOM     28  C   UNL     1       0.731   8.438  21.255  0.00  0.00    +0.000 C 
ENDBRANCH  21  28
ENDBRANCH  17  26
ENDBRANCH  16  19
ENDBRANCH   1  16
TORSDOF 6
ENDMDL
