MODEL 1
REMARK VINA RESULT:      -7.6      0.000      0.000
REMARK  Name = 
REMARK  6 active torsions:
REMARK  status: ('A' for Active; 'I' for Inactive)
REMARK    1  A    between atoms: N_3  and  C_4
REMARK    2  A    between atoms: C_7  and  O_8
REMARK    3  A    between atoms: O_8  and  C_9
REMARK    4  A    between atoms: N_20  and  C_21
REMARK    5  A    between atoms: C_21  and  C_22
REMARK    6  A    between atoms: C_29  and  O_30
REMARK                            x       y       z     vdW  Elec       q    Type
REMARK                         _______ _______ _______ _____ _____    ______ ____
ROOT
ATOM      1  O   UNL     1       1.421   9.150  21.216  0.00  0.00    +0.000 OA
ATOM      2  C   UNL     1       1.266   9.270  20.009  0.00  0.00    +0.000 C 
ATOM      3  N   UNL     1       1.753   8.448  18.987  0.00  0.00    +0.000 N 
ATOM      4  C   UNL     1       1.528   9.029  17.691  0.00  0.00    +0.000 C 
ATOM      5  C   UNL     1       0.326   9.926  17.905  0.00  0.00    +0.000 C 
ATOM      6  C   UNL     1       0.451  10.387  19.368  0.00  0.00    +0.000 C 
ATOM      7  C   UNL     1      -0.915  10.402  20.076  0.00  0.00    +0.000 C 
ATOM      8  C   UNL     1      -1.760  11.590  19.640  0.00  0.00    +0.000 C 
ATOM      9  N   UNL     1      -1.103  12.881  19.885  0.00  0.00    +0.000 NA
ATOM     10  C   UNL     1       0.201  12.920  19.203  0.00  0.00    +0.000 C 
ATOM     11  C   UNL     1       1.163  11.745  19.527  0.00  0.00    +0.000 C 
ENDROOT
BRANCH   3  12
ATOM     12  C   UNL     1       2.342   7.176  19.163  0.00  0.00    +0.000 A 
ATOM     13  C   UNL     1       1.927   6.319  20.187  0.00  0.00    +0.000 A 
ATOM     14  C   UNL     1       2.432   5.020  20.281  0.00  0.00    +0.000 A 
ATOM     15  C   UNL     1       3.374   4.556  19.363  0.00  0.00    +0.000 A 
ATOM     16  C   UNL     1       3.852   5.425  18.388  0.00  0.00    +0.000 A 
ATOM     17  C   UNL     1       3.319   6.715  18.272  0.00  0.00    +0.000 A 
BRANCH  15  18
ATOM     18  O   UNL     1       3.774   3.273  19.553  0.00  0.00    +0.000 OA
BRANCH  18  19
ATOM     19  C   UNL     1       3.043   2.218  18.950  0.00  0.00    +0.000 C 
ATOM     20  F   UNL     1       3.773   1.118  18.659  0.00  0.00    +0.000 F 
ATOM     21  F   UNL     1       2.027   1.857  19.763  0.00  0.00    +0.000 F 
ATOM     22  F   UNL     1       2.511   2.670  17.792  0.00  0.00    +0.000 F 
ENDBRANCH  18  19
ENDBRANCH  15  18
ENDBRANCH   3  12
BRANCH  11  23
ATOM     23  O   UNL     1       2.325  11.830  18.694  0.00  0.00    +0.000 OA
ATOM     24  H   UNL     1       2.432  12.744  18.382  0.00  0.00    +0.000 HD
ENDBRANCH  11  23
BRANCH   9  25
ATOM     25  C   UNL     1      -0.941  13.204  21.318  0.00  0.00    +0.000 C 
BRANCH  25  26
ATOM     26  C   UNL     1      -2.225  13.216  22.119  0.00  0.00    +0.000 A 
ATOM     27  C   UNL     1      -2.427  12.276  23.143  0.00  0.00    +0.000 A 
ATOM     28  C   UNL     1      -3.588  12.304  23.913  0.00  0.00    +0.000 A 
ATOM     29  C   UNL     1      -4.562  13.271  23.670  0.00  0.00    +0.000 A 
ATOM     30  C   UNL     1      -4.379  14.203  22.650  0.00  0.00    +0.000 A 
ATOM     31  C   UNL     1      -3.217  14.176  21.876  0.00  0.00    +0.000 A 
ENDBRANCH  25  26
ENDBRANCH   9  25
TORSDOF 6
ENDMDL
MODEL 2
REMARK VINA RESULT:      -7.6      0.104      1.129
REMARK  Name = 
REMARK  6 active torsions:
REMARK  status: ('A' for Active; 'I' for Inactive)
REMARK    1  A    between atoms: N_3  and  C_4
REMARK    2  A    between atoms: C_7  and  O_8
REMARK    3  A    between atoms: O_8  and  C_9
REMARK    4  A    between atoms: N_20  and  C_21
REMARK    5  A    between atoms: C_21  and  C_22
REMARK    6  A    between atoms: C_29  and  O_30
REMARK                            x       y       z     vdW  Elec       q    Type
REMARK                         _______ _______ _______ _____ _____    ______ ____
ROOT
ATOM      1  O   UNL     1       1.402   9.122  21.243  0.00  0.00    +0.000 OA
ATOM      2  C   UNL     1       1.245   9.272  20.040  0.00  0.00    +0.000 C 
ATOM      3  N   UNL     1       1.729   8.475  18.998  0.00  0.00    +0.000 N 
ATOM      4  C   UNL     1       1.503   9.087  17.716  0.00  0.00    +0.000 C 
ATOM      5  C   UNL     1       0.303   9.980  17.954  0.00  0.00    +0.000 C 
ATOM      6  C   UNL     1       0.431  10.405  19.428  0.00  0.00    +0.000 C 
ATOM      7  C   UNL     1      -0.935  10.405  20.138  0.00  0.00    +0.000 C 
ATOM      8  C   UNL     1      -1.779  11.604  19.733  0.00  0.00    +0.000 C 
ATOM      9  N   UNL     1      -1.119  12.888  20.009  0.00  0.00    +0.000 NA
ATOM     10  C   UNL     1       0.184  12.942  19.325  0.00  0.00    +0.000 C 
ATOM     11  C   UNL     1       1.145  11.758  19.619  0.00  0.00    +0.000 C 
ENDROOT
BRANCH   3  12
ATOM     12  C   UNL     1       2.317   7.197  19.140  0.00  0.00    +0.000 A 
ATOM     13  C   UNL     1       1.953   6.345  20.188  0.00  0.00    +0.000 A 
ATOM     14  C   UNL     1       2.453   5.042  20.255  0.00  0.00    +0.000 A 
ATOM     15  C   UNL     1       3.337   4.569  19.285  0.00  0.00    +0.000 A 
ATOM     16  C   UNL     1       3.765   5.434  18.283  0.00  0.00    +0.000 A 
ATOM     17  C   UNL     1       3.237   6.728  18.196  0.00  0.00    +0.000 A 
BRANCH  15  18
ATOM     18  O   UNL     1       3.736   3.282  19.454  0.00  0.00    +0.000 OA
BRANCH  18  19
ATOM     19  C   UNL     1       2.996   2.237  18.846  0.00  0.00    +0.000 C 
ATOM     20  F   UNL     1       2.371   2.581  17.697  0.00  0.00    +0.000 F 
ATOM     21  F   UNL     1       3.818   1.196  18.593  0.00  0.00    +0.000 F 
ATOM     22  F   UNL     1       2.048   1.819  19.715  0.00  0.00    +0.000 F 
ENDBRANCH  18  19
ENDBRANCH  15  18
ENDBRANCH   3  12
BRANCH  11  23
ATOM     23  O   UNL     1       2.306  11.862  18.786  0.00  0.00    +0.000 OA
ATOM     24  H   UNL     1       3.084  11.550  19.277  0.00  0.00    +0.000 HD
ENDBRANCH  11  23
BRANCH   9  25
ATOM     25  C   UNL     1      -0.954  13.175  21.449  0.00  0.00    +0.000 C 
BRANCH  25  26
ATOM     26  C   UNL     1      -2.245  13.248  22.237  0.00  0.00    +0.000 A 
ATOM     27  C   UNL     1      -3.212  14.215  21.918  0.00  0.00    +0.000 A 
ATOM     28  C   UNL     1      -4.421  14.264  22.611  0.00  0.00    +0.000 A 
ATOM     29  C   UNL     1      -4.678  13.349  23.630  0.00  0.00    +0.000 A 
ATOM     30  C   UNL     1      -3.721  12.390  23.963  0.00  0.00    +0.000 A 
ATOM     31  C   UNL     1      -2.509  12.339  23.271  0.00  0.00    +0.000 A 
ENDBRANCH  25  26
ENDBRANCH   9  25
TORSDOF 6
ENDMDL
MODEL 3
REMARK VINA RESULT:      -7.3      2.914      4.501
REMARK  Name = 
REMARK  6 active torsions:
REMARK  status: ('A' for Active; 'I' for Inactive)
REMARK    1  A    between atoms: N_3  and  C_4
REMARK    2  A    between atoms: C_7  and  O_8
REMARK    3  A    between atoms: O_8  and  C_9
REMARK    4  A    between atoms: N_20  and  C_21
REMARK    5  A    between atoms: C_21  and  C_22
REMARK    6  A    between atoms: C_29  and  O_30
REMARK                            x       y       z     vdW  Elec       q    Type
REMARK                         _______ _______ _______ _____ _____    ______ ____
ROOT
ATOM      1  O   UNL     1       2.245  12.184  19.367  0.00  0.00    +0.000 OA
ATOM      2  C   UNL     1       1.084  11.825  19.505  0.00  0.00    +0.000 C 
ATOM      3  N   UNL     1       0.549  10.544  19.341  0.00  0.00    +0.000 N 
ATOM      4  C   UNL     1      -0.888  10.561  19.395  0.00  0.00    +0.000 C 
ATOM      5  C   UNL     1      -1.199  11.785  20.231  0.00  0.00    +0.000 C 
ATOM      6  C   UNL     1      -0.045  12.758  19.924  0.00  0.00    +0.000 C 
ATOM      7  C   UNL     1       0.430  13.490  21.192  0.00  0.00    +0.000 C 
ATOM      8  C   UNL     1      -0.546  14.579  21.611  0.00  0.00    +0.000 C 
ATOM      9  N   UNL     1      -0.771  15.581  20.561  0.00  0.00    +0.000 NA
ATOM     10  C   UNL     1      -1.253  14.926  19.334  0.00  0.00    +0.000 C 
ATOM     11  C   UNL     1      -0.370  13.764  18.803  0.00  0.00    +0.000 C 
ENDROOT
BRANCH   3  12
ATOM     12  C   UNL     1       1.293   9.351  19.197  0.00  0.00    +0.000 A 
ATOM     13  C   UNL     1       1.418   8.442  20.252  0.00  0.00    +0.000 A 
ATOM     14  C   UNL     1       2.056   7.213  20.066  0.00  0.00    +0.000 A 
ATOM     15  C   UNL     1       2.596   6.874  18.826  0.00  0.00    +0.000 A 
ATOM     16  C   UNL     1       2.546   7.803  17.791  0.00  0.00    +0.000 A 
ATOM     17  C   UNL     1       1.875   9.019  17.968  0.00  0.00    +0.000 A 
BRANCH  15  18
ATOM     18  O   UNL     1       3.176   5.647  18.770  0.00  0.00    +0.000 OA
BRANCH  18  19
ATOM     19  C   UNL     1       2.454   4.560  18.217  0.00  0.00    +0.000 C 
ATOM     20  F   UNL     1       1.416   4.914  17.425  0.00  0.00    +0.000 F 
ATOM     21  F   UNL     1       3.295   3.783  17.501  0.00  0.00    +0.000 F 
ATOM     22  F   UNL     1       1.955   3.814  19.229  0.00  0.00    +0.000 F 
ENDBRANCH  18  19
ENDBRANCH  15  18
ENDBRANCH   3  12
BRANCH  11  23
ATOM     23  O   UNL     1      -1.024  13.128  17.698  0.00  0.00    +0.000 OA
ATOM     24  H   UNL     1      -1.980  13.291  17.753  0.00  0.00    +0.000 HD
ENDBRANCH  11  23
BRANCH   9  25
ATOM     25  C   UNL     1       0.415  16.411  20.266  0.00  0.00    +0.000 C 
BRANCH  25  26
ATOM     26  C   UNL     1       0.331  17.214  18.985  0.00  0.00    +0.000 A 
ATOM     27  C   UNL     1       1.413  17.230  18.091  0.00  0.00    +0.000 A 
ATOM     28  C   UNL     1       1.331  17.933  16.890  0.00  0.00    +0.000 A 
ATOM     29  C   UNL     1       0.166  18.628  16.568  0.00  0.00    +0.000 A 
ATOM     30  C   UNL     1      -0.911  18.628  17.453  0.00  0.00    +0.000 A 
ATOM     31  C   UNL     1      -0.831  17.926  18.657  0.00  0.00    +0.000 A 
ENDBRANCH  25  26
ENDBRANCH   9  25
TORSDOF 6
ENDMDL
MODEL 4
REMARK VINA RESULT:      -7.3      0.659      1.277
REMARK  Name = 
REMARK  6 active torsions:
REMARK  status: ('A' for Active; 'I' for Inactive)
REMARK    1  A    between atoms: N_3  and  C_4
REMARK    2  A    between atoms: C_7  and  O_8
REMARK    3  A    between atoms: O_8  and  C_9
REMARK    4  A    between atoms: N_20  and  C_21
REMARK    5  A    between atoms: C_21  and  C_22
REMARK    6  A    between atoms: C_29  and  O_30
REMARK                            x       y       z     vdW  Elec       q    Type
REMARK                         _______ _______ _______ _____ _____    ______ ____
ROOT
ATOM      1  O   UNL     1       1.438   9.041  21.133  0.00  0.00    +0.000 OA
ATOM      2  C   UNL     1       1.290   9.186  19.928  0.00  0.00    +0.000 C 
ATOM      3  N   UNL     1       1.812   8.406  18.891  0.00  0.00    +0.000 N 
ATOM      4  C   UNL     1       1.579   9.011  17.607  0.00  0.00    +0.000 C 
ATOM      5  C   UNL     1       0.347   9.863  17.832  0.00  0.00    +0.000 C 
ATOM      6  C   UNL     1       0.445  10.292  19.308  0.00  0.00    +0.000 C 
ATOM      7  C   UNL     1      -0.927  10.245  20.002  0.00  0.00    +0.000 C 
ATOM      8  C   UNL     1      -1.806  11.416  19.589  0.00  0.00    +0.000 C 
ATOM      9  N   UNL     1      -1.193  12.721  19.872  0.00  0.00    +0.000 NA
ATOM     10  C   UNL     1       0.115  12.819  19.203  0.00  0.00    +0.000 C 
ATOM     11  C   UNL     1       1.111  11.667  19.507  0.00  0.00    +0.000 C 
ENDROOT
BRANCH   3  12
ATOM     12  C   UNL     1       2.440   7.149  19.040  0.00  0.00    +0.000 A 
ATOM     13  C   UNL     1       3.462   6.742  18.176  0.00  0.00    +0.000 A 
ATOM     14  C   UNL     1       4.156   5.551  18.400  0.00  0.00    +0.000 A 
ATOM     15  C   UNL     1       3.834   4.734  19.485  0.00  0.00    +0.000 A 
ATOM     16  C   UNL     1       2.768   5.091  20.304  0.00  0.00    +0.000 A 
ATOM     17  C   UNL     1       2.096   6.302  20.099  0.00  0.00    +0.000 A 
BRANCH  15  18
ATOM     18  O   UNL     1       4.592   3.614  19.601  0.00  0.00    +0.000 OA
BRANCH  18  19
ATOM     19  C   UNL     1       3.979   2.397  19.995  0.00  0.00    +0.000 C 
ATOM     20  F   UNL     1       3.445   2.408  21.237  0.00  0.00    +0.000 F 
ATOM     21  F   UNL     1       3.009   2.079  19.111  0.00  0.00    +0.000 F 
ATOM     22  F   UNL     1       4.911   1.416  19.963  0.00  0.00    +0.000 F 
ENDBRANCH  18  19
ENDBRANCH  15  18
ENDBRANCH   3  12
BRANCH  11  23
ATOM     23  O   UNL     1       2.277  11.810  18.686  0.00  0.00    +0.000 OA
ATOM     24  H   UNL     1       3.010  12.153  19.224  0.00  0.00    +0.000 HD
ENDBRANCH  11  23
BRANCH   9  25
ATOM     25  C   UNL     1      -1.054  13.012  21.314  0.00  0.00    +0.000 C 
BRANCH  25  26
ATOM     26  C   UNL     1      -2.357  13.083  22.079  0.00  0.00    +0.000 A 
ATOM     27  C   UNL     1      -2.538  12.308  23.236  0.00  0.00    +0.000 A 
ATOM     28  C   UNL     1      -3.719  12.396  23.972  0.00  0.00    +0.000 A 
ATOM     29  C   UNL     1      -4.733  13.259  23.561  0.00  0.00    +0.000 A 
ATOM     30  C   UNL     1      -4.570  14.026  22.408  0.00  0.00    +0.000 A 
ATOM     31  C   UNL     1      -3.388  13.939  21.669  0.00  0.00    +0.000 A 
ENDBRANCH  25  26
ENDBRANCH   9  25
TORSDOF 6
ENDMDL
MODEL 5
REMARK VINA RESULT:      -7.2      0.436      1.497
REMARK  Name = 
REMARK  6 active torsions:
REMARK  status: ('A' for Active; 'I' for Inactive)
REMARK    1  A    between atoms: N_3  and  C_4
REMARK    2  A    between atoms: C_7  and  O_8
REMARK    3  A    between atoms: O_8  and  C_9
REMARK    4  A    between atoms: N_20  and  C_21
REMARK    5  A    between atoms: C_21  and  C_22
REMARK    6  A    between atoms: C_29  and  O_30
REMARK                            x       y       z     vdW  Elec       q    Type
REMARK                         _______ _______ _______ _____ _____    ______ ____
ROOT
ATOM      1  O   UNL     1       1.368   9.172  21.342  0.00  0.00    +0.000 OA
ATOM      2  C   UNL     1       1.195   9.343  20.144  0.00  0.00    +0.000 C 
ATOM      3  N   UNL     1       1.662   8.561  19.082  0.00  0.00    +0.000 N 
ATOM      4  C   UNL     1       1.420   9.196  17.814  0.00  0.00    +0.000 C 
ATOM      5  C   UNL     1       0.226  10.087  18.083  0.00  0.00    +0.000 C 
ATOM      6  C   UNL     1       0.376  10.488  19.563  0.00  0.00    +0.000 C 
ATOM      7  C   UNL     1      -0.980  10.479  20.291  0.00  0.00    +0.000 C 
ATOM      8  C   UNL     1      -1.826  11.688  19.918  0.00  0.00    +0.000 C 
ATOM      9  N   UNL     1      -1.158  12.965  20.206  0.00  0.00    +0.000 NA
ATOM     10  C   UNL     1       0.135  13.027  19.505  0.00  0.00    +0.000 C 
ATOM     11  C   UNL     1       1.096  11.835  19.766  0.00  0.00    +0.000 C 
ENDROOT
BRANCH   3  12
ATOM     12  C   UNL     1       2.249   7.280  19.195  0.00  0.00    +0.000 A 
ATOM     13  C   UNL     1       3.249   6.860  18.312  0.00  0.00    +0.000 A 
ATOM     14  C   UNL     1       3.903   5.640  18.503  0.00  0.00    +0.000 A 
ATOM     15  C   UNL     1       3.562   4.810  19.570  0.00  0.00    +0.000 A 
ATOM     16  C   UNL     1       2.516   5.183  20.408  0.00  0.00    +0.000 A 
ATOM     17  C   UNL     1       1.884   6.421  20.238  0.00  0.00    +0.000 A 
BRANCH  15  18
ATOM     18  O   UNL     1       4.281   3.661  19.654  0.00  0.00    +0.000 OA
BRANCH  18  19
ATOM     19  C   UNL     1       3.659   2.425  19.345  0.00  0.00    +0.000 C 
ATOM     20  F   UNL     1       2.569   2.139  20.093  0.00  0.00    +0.000 F 
ATOM     21  F   UNL     1       3.301   2.418  18.043  0.00  0.00    +0.000 F 
ATOM     22  F   UNL     1       4.556   1.431  19.538  0.00  0.00    +0.000 F 
ENDBRANCH  18  19
ENDBRANCH  15  18
ENDBRANCH   3  12
BRANCH  11  23
ATOM     23  O   UNL     1       2.246  11.950  18.918  0.00  0.00    +0.000 OA
ATOM     24  H   UNL     1       2.137  11.369  18.147  0.00  0.00    +0.000 HD
ENDBRANCH  11  23
BRANCH   9  25
ATOM     25  C   UNL     1      -0.973  13.228  21.648  0.00  0.00    +0.000 C 
BRANCH  25  26
ATOM     26  C   UNL     1      -2.253  13.318  22.450  0.00  0.00    +0.000 A 
ATOM     27  C   UNL     1      -3.114  14.415  22.284  0.00  0.00    +0.000 A 
ATOM     28  C   UNL     1      -4.315  14.488  22.988  0.00  0.00    +0.000 A 
ATOM     29  C   UNL     1      -4.671  13.466  23.866  0.00  0.00    +0.000 A 
ATOM     30  C   UNL     1      -3.820  12.377  24.048  0.00  0.00    +0.000 A 
ATOM     31  C   UNL     1      -2.616  12.302  23.345  0.00  0.00    +0.000 A 
ENDBRANCH  25  26
ENDBRANCH   9  25
TORSDOF 6
ENDMDL
MODEL 6
REMARK VINA RESULT:      -7.2      2.942      4.668
REMARK  Name = 
REMARK  6 active torsions:
REMARK  status: ('A' for Active; 'I' for Inactive)
REMARK    1  A    between atoms: N_3  and  C_4
REMARK    2  A    between atoms: C_7  and  O_8
REMARK    3  A    between atoms: O_8  and  C_9
REMARK    4  A    between atoms: N_20  and  C_21
REMARK    5  A    between atoms: C_21  and  C_22
REMARK    6  A    between atoms: C_29  and  O_30
REMARK                            x       y       z     vdW  Elec       q    Type
REMARK                         _______ _______ _______ _____ _____    ______ ____
ROOT
ATOM      1  O   UNL     1       2.291  12.124  19.192  0.00  0.00    +0.000 OA
ATOM      2  C   UNL     1       1.126  11.821  19.404  0.00  0.00    +0.000 C 
ATOM      3  N   UNL     1       0.520  10.567  19.277  0.00  0.00    +0.000 N 
ATOM      4  C   UNL     1      -0.908  10.653  19.424  0.00  0.00    +0.000 C 
ATOM      5  C   UNL     1      -1.105  11.889  20.276  0.00  0.00    +0.000 C 
ATOM      6  C   UNL     1       0.072  12.806  19.894  0.00  0.00    +0.000 C 
ATOM      7  C   UNL     1       0.662  13.512  21.128  0.00  0.00    +0.000 C 
ATOM      8  C   UNL     1      -0.231  14.646  21.607  0.00  0.00    +0.000 C 
ATOM      9  N   UNL     1      -0.476  15.659  20.572  0.00  0.00    +0.000 NA
ATOM     10  C   UNL     1      -1.066  15.030  19.380  0.00  0.00    +0.000 C 
ATOM     11  C   UNL     1      -0.276  13.829  18.795  0.00  0.00    +0.000 C 
ENDROOT
BRANCH   3  12
ATOM     12  C   UNL     1       1.196   9.340  19.087  0.00  0.00    +0.000 A 
ATOM     13  C   UNL     1       1.718   8.985  17.838  0.00  0.00    +0.000 A 
ATOM     14  C   UNL     1       2.483   7.826  17.687  0.00  0.00    +0.000 A 
ATOM     15  C   UNL     1       2.732   6.991  18.777  0.00  0.00    +0.000 A 
ATOM     16  C   UNL     1       2.154   7.294  20.005  0.00  0.00    +0.000 A 
ATOM     17  C   UNL     1       1.415   8.474  20.164  0.00  0.00    +0.000 A 
BRANCH  15  18
ATOM     18  O   UNL     1       3.502   5.907  18.502  0.00  0.00    +0.000 OA
BRANCH  18  19
ATOM     19  C   UNL     1       2.884   4.645  18.313  0.00  0.00    +0.000 C 
ATOM     20  F   UNL     1       2.733   3.914  19.441  0.00  0.00    +0.000 F 
ATOM     21  F   UNL     1       1.670   4.821  17.749  0.00  0.00    +0.000 F 
ATOM     22  F   UNL     1       3.641   3.919  17.458  0.00  0.00    +0.000 F 
ENDBRANCH  18  19
ENDBRANCH  15  18
ENDBRANCH   3  12
BRANCH  11  23
ATOM     23  O   UNL     1      -1.029  13.226  17.736  0.00  0.00    +0.000 OA
ATOM     24  H   UNL     1      -0.962  12.259  17.801  0.00  0.00    +0.000 HD
ENDBRANCH  11  23
BRANCH   9  25
ATOM     25  C   UNL     1       0.728  16.432  20.201  0.00  0.00    +0.000 C 
BRANCH  25  26
ATOM     26  C   UNL     1       0.628  17.177  18.887  0.00  0.00    +0.000 A 
ATOM     27  C   UNL     1      -0.534  17.900  18.572  0.00  0.00    +0.000 A 
ATOM     28  C   UNL     1      -0.619  18.622  17.382  0.00  0.00    +0.000 A 
ATOM     29  C   UNL     1       0.454  18.631  16.494  0.00  0.00    +0.000 A 
ATOM     30  C   UNL     1       1.609  17.908  16.790  0.00  0.00    +0.000 A 
ATOM     31  C   UNL     1       1.697  17.183  17.980  0.00  0.00    +0.000 A 
ENDBRANCH  25  26
ENDBRANCH   9  25
TORSDOF 6
ENDMDL
MODEL 7
REMARK VINA RESULT:      -7.2      1.805      3.058
REMARK  Name = 
REMARK  6 active torsions:
REMARK  status: ('A' for Active; 'I' for Inactive)
REMARK    1  A    between atoms: N_3  and  C_4
REMARK    2  A    between atoms: C_7  and  O_8
REMARK    3  A    between atoms: O_8  and  C_9
REMARK    4  A    between atoms: N_20  and  C_21
REMARK    5  A    between atoms: C_21  and  C_22
REMARK    6  A    between atoms: C_29  and  O_30
REMARK                            x       y       z     vdW  Elec       q    Type
REMARK                         _______ _______ _______ _____ _____    ______ ____
ROOT
ATOM      1  O   UNL     1      -0.474  10.034  21.607  0.00  0.00    +0.000 OA
ATOM      2  C   UNL     1      -0.117  10.832  20.753  0.00  0.00    +0.000 C 
ATOM      3  N   UNL     1       0.805  10.638  19.718  0.00  0.00    +0.000 N 
ATOM      4  C   UNL     1       1.107  11.872  19.043  0.00  0.00    +0.000 C 
ATOM      5  C   UNL     1      -0.129  12.716  19.273  0.00  0.00    +0.000 C 
ATOM      6  C   UNL     1      -0.658  12.252  20.643  0.00  0.00    +0.000 C 
ATOM      7  C   UNL     1      -2.193  12.144  20.649  0.00  0.00    +0.000 C 
ATOM      8  C   UNL     1      -2.852  13.513  20.717  0.00  0.00    +0.000 C 
ATOM      9  N   UNL     1      -2.442  14.288  21.896  0.00  0.00    +0.000 NA
ATOM     10  C   UNL     1      -0.978  14.439  21.916  0.00  0.00    +0.000 C 
ATOM     11  C   UNL     1      -0.167  13.118  21.819  0.00  0.00    +0.000 C 
ENDROOT
BRANCH   3  12
ATOM     12  C   UNL     1       1.347   9.396  19.318  0.00  0.00    +0.000 A 
ATOM     13  C   UNL     1       1.717   9.160  17.990  0.00  0.00    +0.000 A 
ATOM     14  C   UNL     1       2.358   7.973  17.627  0.00  0.00    +0.000 A 
ATOM     15  C   UNL     1       2.631   6.992  18.580  0.00  0.00    +0.000 A 
ATOM     16  C   UNL     1       2.198   7.184  19.888  0.00  0.00    +0.000 A 
ATOM     17  C   UNL     1       1.587   8.388  20.259  0.00  0.00    +0.000 A 
BRANCH  15  18
ATOM     18  O   UNL     1       3.271   5.894  18.104  0.00  0.00    +0.000 OA
BRANCH  18  19
ATOM     19  C   UNL     1       2.542   4.695  17.904  0.00  0.00    +0.000 C 
ATOM     20  F   UNL     1       1.252   4.871  17.538  0.00  0.00    +0.000 F 
ATOM     21  F   UNL     1       3.158   3.948  16.962  0.00  0.00    +0.000 F 
ATOM     22  F   UNL     1       2.543   3.992  19.060  0.00  0.00    +0.000 F 
ENDBRANCH  18  19
ENDBRANCH  15  18
ENDBRANCH   3  12
BRANCH  11  23
ATOM     23  O   UNL     1       1.229  13.418  21.704  0.00  0.00    +0.000 OA
ATOM     24  H   UNL     1       1.525  13.232  20.797  0.00  0.00    +0.000 HD
ENDBRANCH  11  23
BRANCH   9  25
ATOM     25  C   UNL     1      -2.916  13.721  23.175  0.00  0.00    +0.000 C 
BRANCH  25  26
ATOM     26  C   UNL     1      -4.374  13.980  23.487  0.00  0.00    +0.000 A 
ATOM     27  C   UNL     1      -4.867  15.295  23.513  0.00  0.00    +0.000 A 
ATOM     28  C   UNL     1      -6.217  15.542  23.760  0.00  0.00    +0.000 A 
ATOM     29  C   UNL     1      -7.090  14.479  23.983  0.00  0.00    +0.000 A 
ATOM     30  C   UNL     1      -6.611  13.170  23.970  0.00  0.00    +0.000 A 
ATOM     31  C   UNL     1      -5.259  12.920  23.725  0.00  0.00    +0.000 A 
ENDBRANCH  25  26
ENDBRANCH   9  25
TORSDOF 6
ENDMDL
MODEL 8
REMARK VINA RESULT:      -7.1      1.911      3.132
REMARK  Name = 
REMARK  6 active torsions:
REMARK  status: ('A' for Active; 'I' for Inactive)
REMARK    1  A    between atoms: N_3  and  C_4
REMARK    2  A    between atoms: C_7  and  O_8
REMARK    3  A    between atoms: O_8  and  C_9
REMARK    4  A    between atoms: N_20  and  C_21
REMARK    5  A    between atoms: C_21  and  C_22
REMARK    6  A    between atoms: C_29  and  O_30
REMARK                            x       y       z     vdW  Elec       q    Type
REMARK                         _______ _______ _______ _____ _____    ______ ____
ROOT
ATOM      1  O   UNL     1      -0.673  10.325  21.908  0.00  0.00    +0.000 OA
ATOM      2  C   UNL     1      -0.334  11.099  21.025  0.00  0.00    +0.000 C 
ATOM      3  N   UNL     1       0.575  10.881  19.984  0.00  0.00    +0.000 N 
ATOM      4  C   UNL     1       0.858  12.096  19.268  0.00  0.00    +0.000 C 
ATOM      5  C   UNL     1      -0.380  12.939  19.491  0.00  0.00    +0.000 C 
ATOM      6  C   UNL     1      -0.887  12.512  20.881  0.00  0.00    +0.000 C 
ATOM      7  C   UNL     1      -2.421  12.394  20.912  0.00  0.00    +0.000 C 
ATOM      8  C   UNL     1      -3.089  13.760  20.949  0.00  0.00    +0.000 C 
ATOM      9  N   UNL     1      -2.667  14.573  22.098  0.00  0.00    +0.000 NA
ATOM     10  C   UNL     1      -1.204  14.733  22.093  0.00  0.00    +0.000 C 
ATOM     11  C   UNL     1      -0.385  13.416  22.023  0.00  0.00    +0.000 C 
ENDROOT
BRANCH   3  12
ATOM     12  C   UNL     1       1.120   9.631  19.613  0.00  0.00    +0.000 A 
ATOM     13  C   UNL     1       1.515   9.374  18.296  0.00  0.00    +0.000 A 
ATOM     14  C   UNL     1       2.159   8.180  17.963  0.00  0.00    +0.000 A 
ATOM     15  C   UNL     1       2.410   7.213  18.936  0.00  0.00    +0.000 A 
ATOM     16  C   UNL     1       1.953   7.425  20.233  0.00  0.00    +0.000 A 
ATOM     17  C   UNL     1       1.338   8.637  20.574  0.00  0.00    +0.000 A 
BRANCH  15  18
ATOM     18  O   UNL     1       3.055   6.105  18.489  0.00  0.00    +0.000 OA
BRANCH  18  19
ATOM     19  C   UNL     1       2.317   4.919  18.246  0.00  0.00    +0.000 C 
ATOM     20  F   UNL     1       3.020   3.927  17.655  0.00  0.00    +0.000 F 
ATOM     21  F   UNL     1       1.817   4.457  19.412  0.00  0.00    +0.000 F 
ATOM     22  F   UNL     1       1.276   5.218  17.435  0.00  0.00    +0.000 F 
ENDBRANCH  18  19
ENDBRANCH  15  18
ENDBRANCH   3  12
BRANCH  11  23
ATOM     23  O   UNL     1       1.007  13.722  21.880  0.00  0.00    +0.000 OA
ATOM     24  H   UNL     1       1.511  13.261  22.571  0.00  0.00    +0.000 HD
ENDBRANCH  11  23
BRANCH   9  25
ATOM     25  C   UNL     1      -3.120  14.041  23.400  0.00  0.00    +0.000 C 
BRANCH  25  26
ATOM     26  C   UNL     1      -4.618  14.061  23.612  0.00  0.00    +0.000 A 
ATOM     27  C   UNL     1      -5.312  12.864  23.858  0.00  0.00    +0.000 A 
ATOM     28  C   UNL     1      -6.686  12.876  24.095  0.00  0.00    +0.000 A 
ATOM     29  C   UNL     1      -7.383  14.083  24.090  0.00  0.00    +0.000 A 
ATOM     30  C   UNL     1      -6.708  15.276  23.838  0.00  0.00    +0.000 A 
ATOM     31  C   UNL     1      -5.332  15.267  23.599  0.00  0.00    +0.000 A 
ENDBRANCH  25  26
ENDBRANCH   9  25
TORSDOF 6
ENDMDL
MODEL 9
REMARK VINA RESULT:      -7.0      1.705      1.953
REMARK  Name = 
REMARK  6 active torsions:
REMARK  status: ('A' for Active; 'I' for Inactive)
REMARK    1  A    between atoms: N_3  and  C_4
REMARK    2  A    between atoms: C_7  and  O_8
REMARK    3  A    between atoms: O_8  and  C_9
REMARK    4  A    between atoms: N_20  and  C_21
REMARK    5  A    between atoms: C_21  and  C_22
REMARK    6  A    between atoms: C_29  and  O_30
REMARK                            x       y       z     vdW  Elec       q    Type
REMARK                         _______ _______ _______ _____ _____    ______ ____
ROOT
ATOM      1  O   UNL     1       1.330   9.634  22.058  0.00  0.00    +0.000 OA
ATOM      2  C   UNL     1       0.986   9.871  20.909  0.00  0.00    +0.000 C 
ATOM      3  N   UNL     1       1.250   9.127  19.754  0.00  0.00    +0.000 N 
ATOM      4  C   UNL     1       0.849   9.834  18.568  0.00  0.00    +0.000 C 
ATOM      5  C   UNL     1      -0.248  10.756  19.056  0.00  0.00    +0.000 C 
ATOM      6  C   UNL     1       0.142  11.076  20.511  0.00  0.00    +0.000 C 
ATOM      7  C   UNL     1      -1.087  11.083  21.437  0.00  0.00    +0.000 C 
ATOM      8  C   UNL     1      -1.924  12.340  21.251  0.00  0.00    +0.000 C 
ATOM      9  N   UNL     1      -1.163  13.574  21.489  0.00  0.00    +0.000 NA
ATOM     10  C   UNL     1       0.012  13.621  20.602  0.00  0.00    +0.000 C 
ATOM     11  C   UNL     1       0.945  12.382  20.660  0.00  0.00    +0.000 C 
ENDROOT
BRANCH   3  12
ATOM     12  C   UNL     1       1.788   7.820  19.720  0.00  0.00    +0.000 A 
ATOM     13  C   UNL     1       1.475   6.882  20.709  0.00  0.00    +0.000 A 
ATOM     14  C   UNL     1       1.917   5.561  20.606  0.00  0.00    +0.000 A 
ATOM     15  C   UNL     1       2.691   5.153  19.519  0.00  0.00    +0.000 A 
ATOM     16  C   UNL     1       3.072   6.097  18.571  0.00  0.00    +0.000 A 
ATOM     17  C   UNL     1       2.600   7.413  18.657  0.00  0.00    +0.000 A 
BRANCH  15  18
ATOM     18  O   UNL     1       3.042   3.842  19.528  0.00  0.00    +0.000 OA
BRANCH  18  19
ATOM     19  C   UNL     1       2.102   2.866  19.111  0.00  0.00    +0.000 C 
ATOM     20  F   UNL     1       1.128   3.330  18.296  0.00  0.00    +0.000 F 
ATOM     21  F   UNL     1       2.749   1.862  18.481  0.00  0.00    +0.000 F 
ATOM     22  F   UNL     1       1.501   2.351  20.209  0.00  0.00    +0.000 F 
ENDBRANCH  18  19
ENDBRANCH  15  18
ENDBRANCH   3  12
BRANCH  11  23
ATOM     23  O   UNL     1       1.958  12.495  19.653  0.00  0.00    +0.000 OA
ATOM     24  H   UNL     1       2.022  13.419  19.363  0.00  0.00    +0.000 HD
ENDBRANCH  11  23
BRANCH   9  25
ATOM     25  C   UNL     1      -0.750  13.757  22.896  0.00  0.00    +0.000 C 
BRANCH  25  26
ATOM     26  C   UNL     1      -1.672  14.624  23.725  0.00  0.00    +0.000 A 
ATOM     27  C   UNL     1      -1.177  15.309  24.847  0.00  0.00    +0.000 A 
ATOM     28  C   UNL     1      -2.009  16.142  25.593  0.00  0.00    +0.000 A 
ATOM     29  C   UNL     1      -3.345  16.302  25.228  0.00  0.00    +0.000 A 
ATOM     30  C   UNL     1      -3.851  15.620  24.122  0.00  0.00    +0.000 A 
ATOM     31  C   UNL     1      -3.020  14.783  23.374  0.00  0.00    +0.000 A 
ENDBRANCH  25  26
ENDBRANCH   9  25
TORSDOF 6
ENDMDL
