MODEL 1
REMARK VINA RESULT:      -7.2      0.000      0.000
REMARK  Name = 
REMARK  9 active torsions:
REMARK  status: ('A' for Active; 'I' for Inactive)
REMARK    1  A    between atoms: C_1  and  O_2
REMARK    2  A    between atoms: O_2  and  C_3
REMARK    3  A    between atoms: C_5  and  C_6
REMARK    4  A    between atoms: C_8  and  C_9
REMARK    5  A    between atoms: C_11  and  O_12
REMARK    6  A    between atoms: C_20  and  O_21
REMARK    7  A    between atoms: O_21  and  C_22
REMARK    8  A    between atoms: C_23  and  O_24
REMARK    9  A    between atoms: O_24  and  C_25
REMARK                            x       y       z     vdW  Elec       q    Type
REMARK                         _______ _______ _______ _____ _____    ______ ____
ROOT
ATOM      1  C   UNL     1       3.640   4.242  17.072  0.00  0.00    +0.000 C 
ATOM      2  F   UNL     1       2.925   3.315  16.390  0.00  0.00    +0.000 F 
ATOM      3  C   UNL     1       4.929   4.378  16.729  0.00  0.00    +0.000 C 
ENDROOT
BRANCH   3   4
ATOM      4  C   UNL     1       5.880   5.301  17.341  0.00  0.00    +0.000 A 
ATOM      5  C   UNL     1       6.674   4.859  18.410  0.00  0.00    +0.000 A 
ATOM      6  C   UNL     1       7.631   5.706  18.980  0.00  0.00    +0.000 A 
ATOM      7  C   UNL     1       7.799   7.001  18.462  0.00  0.00    +0.000 A 
ATOM      8  C   UNL     1       8.662   8.099  18.714  0.00  0.00    +0.000 A 
ATOM      9  C   UNL     1       8.298   9.092  17.834  0.00  0.00    +0.000 A 
ATOM     10  O   UNL     1       7.256   8.688  17.059  0.00  0.00    +0.000 OA
ATOM     11  C   UNL     1       6.964   7.409  17.427  0.00  0.00    +0.000 A 
ATOM     12  C   UNL     1       5.987   6.606  16.843  0.00  0.00    +0.000 A 
BRANCH   6  13
ATOM     13  O   UNL     1       8.412   5.276  20.020  0.00  0.00    +0.000 OA
ATOM     14  H   UNL     1       9.158   4.766  19.664  0.00  0.00    +0.000 HD
ENDBRANCH   6  13
ENDBRANCH   3   4
BRANCH   1  17
ATOM     15  C   UNL     1       1.903   5.054  20.321  0.00  0.00    +0.000 A 
ATOM     16  C   UNL     1       2.354   4.327  19.204  0.00  0.00    +0.000 A 
ATOM     17  C   UNL     1       2.867   4.979  18.082  0.00  0.00    +0.000 A 
ATOM     18  C   UNL     1       2.814   6.373  18.032  0.00  0.00    +0.000 A 
ATOM     19  C   UNL     1       2.330   7.112  19.121  0.00  0.00    +0.000 A 
ATOM     20  C   UNL     1       1.877   6.462  20.285  0.00  0.00    +0.000 A 
BRANCH  15  22
ATOM     21  C   UNL     1       1.615   2.991  21.475  0.00  0.00    +0.000 C 
ATOM     22  O   UNL     1       1.439   4.405  21.438  0.00  0.00    +0.000 OA
ENDBRANCH  15  22
BRANCH  19  23
ATOM     23  O   UNL     1       2.334   8.469  18.895  0.00  0.00    +0.000 OA
ATOM     24  C   UNL     1       1.575   8.909  17.773  0.00  0.00    +0.000 C 
ENDBRANCH  19  23
BRANCH  20  25
ATOM     25  O   UNL     1       1.399   7.283  21.280  0.00  0.00    +0.000 OA
ATOM     26  C   UNL     1       0.086   7.820  21.153  0.00  0.00    +0.000 C 
ENDBRANCH  20  25
ENDBRANCH   1  17
TORSDOF 6
ENDMDL
MODEL 2
REMARK VINA RESULT:      -6.9      1.610      6.150
REMARK  Name = 
REMARK  9 active torsions:
REMARK  status: ('A' for Active; 'I' for Inactive)
REMARK    1  A    between atoms: C_1  and  O_2
REMARK    2  A    between atoms: O_2  and  C_3
REMARK    3  A    between atoms: C_5  and  C_6
REMARK    4  A    between atoms: C_8  and  C_9
REMARK    5  A    between atoms: C_11  and  O_12
REMARK    6  A    between atoms: C_20  and  O_21
REMARK    7  A    between atoms: O_21  and  C_22
REMARK    8  A    between atoms: C_23  and  O_24
REMARK    9  A    between atoms: O_24  and  C_25
REMARK                            x       y       z     vdW  Elec       q    Type
REMARK                         _______ _______ _______ _____ _____    ______ ____
ROOT
ATOM      1  C   UNL     1       3.315   3.698  18.386  0.00  0.00    +0.000 C 
ATOM      2  F   UNL     1       3.258   2.361  18.175  0.00  0.00    +0.000 F 
ATOM      3  C   UNL     1       2.209   4.277  18.875  0.00  0.00    +0.000 C 
ENDROOT
BRANCH   3   4
ATOM      4  C   UNL     1       2.047   5.699  19.162  0.00  0.00    +0.000 A 
ATOM      5  C   UNL     1       2.238   6.632  18.131  0.00  0.00    +0.000 A 
ATOM      6  C   UNL     1       2.037   7.997  18.366  0.00  0.00    +0.000 A 
ATOM      7  C   UNL     1       1.630   8.424  19.641  0.00  0.00    +0.000 A 
ATOM      8  C   UNL     1       1.283   9.661  20.242  0.00  0.00    +0.000 A 
ATOM      9  C   UNL     1       0.965   9.384  21.552  0.00  0.00    +0.000 A 
ATOM     10  O   UNL     1       1.105   8.056  21.808  0.00  0.00    +0.000 OA
ATOM     11  C   UNL     1       1.492   7.467  20.641  0.00  0.00    +0.000 A 
ATOM     12  C   UNL     1       1.698   6.102  20.457  0.00  0.00    +0.000 A 
BRANCH   6  13
ATOM     13  O   UNL     1       2.215   8.911  17.361  0.00  0.00    +0.000 OA
ATOM     14  H   UNL     1       3.143   9.200  17.358  0.00  0.00    +0.000 HD
ENDBRANCH   6  13
ENDBRANCH   3   4
BRANCH   1  17
ATOM     15  C   UNL     1       6.010   5.496  16.451  0.00  0.00    +0.000 A 
ATOM     16  C   UNL     1       4.935   4.633  16.741  0.00  0.00    +0.000 A 
ATOM     17  C   UNL     1       4.612   4.307  18.059  0.00  0.00    +0.000 A 
ATOM     18  C   UNL     1       5.447   4.751  19.086  0.00  0.00    +0.000 A 
ATOM     19  C   UNL     1       6.546   5.578  18.811  0.00  0.00    +0.000 A 
ATOM     20  C   UNL     1       6.835   5.970  17.489  0.00  0.00    +0.000 A 
BRANCH  15  22
ATOM     21  C   UNL     1       6.786   4.811  14.307  0.00  0.00    +0.000 C 
ATOM     22  O   UNL     1       6.296   5.846  15.156  0.00  0.00    +0.000 OA
ENDBRANCH  15  22
BRANCH  19  23
ATOM     23  O   UNL     1       7.267   5.908  19.935  0.00  0.00    +0.000 OA
ATOM     24  C   UNL     1       8.485   5.192  20.116  0.00  0.00    +0.000 C 
ENDBRANCH  19  23
BRANCH  20  25
ATOM     25  O   UNL     1       7.951   6.759  17.332  0.00  0.00    +0.000 OA
ATOM     26  C   UNL     1       7.835   8.162  17.549  0.00  0.00    +0.000 C 
ENDBRANCH  20  25
ENDBRANCH   1  17
TORSDOF 6
ENDMDL
MODEL 3
REMARK VINA RESULT:      -6.8      1.573      5.880
REMARK  Name = 
REMARK  9 active torsions:
REMARK  status: ('A' for Active; 'I' for Inactive)
REMARK    1  A    between atoms: C_1  and  O_2
REMARK    2  A    between atoms: O_2  and  C_3
REMARK    3  A    between atoms: C_5  and  C_6
REMARK    4  A    between atoms: C_8  and  C_9
REMARK    5  A    between atoms: C_11  and  O_12
REMARK    6  A    between atoms: C_20  and  O_21
REMARK    7  A    between atoms: O_21  and  C_22
REMARK    8  A    between atoms: C_23  and  O_24
REMARK    9  A    between atoms: O_24  and  C_25
REMARK                            x       y       z     vdW  Elec       q    Type
REMARK                         _______ _______ _______ _____ _____    ______ ____
ROOT
ATOM      1  C   UNL     1       3.425   3.641  18.528  0.00  0.00    +0.000 C 
ATOM      2  F   UNL     1       3.425   2.289  18.436  0.00  0.00    +0.000 F 
ATOM      3  C   UNL     1       2.292   4.213  18.958  0.00  0.00    +0.000 C 
ENDROOT
BRANCH   3   4
ATOM      4  C   UNL     1       2.070   5.647  19.117  0.00  0.00    +0.000 A 
ATOM      5  C   UNL     1       1.806   6.162  20.395  0.00  0.00    +0.000 A 
ATOM      6  C   UNL     1       1.641   7.540  20.584  0.00  0.00    +0.000 A 
ATOM      7  C   UNL     1       1.756   8.404  19.482  0.00  0.00    +0.000 A 
ATOM      8  C   UNL     1       1.712   9.806  19.274  0.00  0.00    +0.000 A 
ATOM      9  C   UNL     1       1.903  10.008  17.926  0.00  0.00    +0.000 A 
ATOM     10  O   UNL     1       2.050   8.821  17.280  0.00  0.00    +0.000 OA
ATOM     11  C   UNL     1       1.979   7.844  18.228  0.00  0.00    +0.000 A 
ATOM     12  C   UNL     1       2.131   6.480  17.992  0.00  0.00    +0.000 A 
BRANCH   6  13
ATOM     13  O   UNL     1       1.390   8.047  21.830  0.00  0.00    +0.000 OA
ATOM     14  H   UNL     1       1.289   7.312  22.457  0.00  0.00    +0.000 HD
ENDBRANCH   6  13
ENDBRANCH   3   4
BRANCH   1  17
ATOM     15  C   UNL     1       6.022   5.471  16.494  0.00  0.00    +0.000 A 
ATOM     16  C   UNL     1       4.975   4.590  16.825  0.00  0.00    +0.000 A 
ATOM     17  C   UNL     1       4.699   4.272  18.156  0.00  0.00    +0.000 A 
ATOM     18  C   UNL     1       5.555   4.743  19.152  0.00  0.00    +0.000 A 
ATOM     19  C   UNL     1       6.628   5.589  18.835  0.00  0.00    +0.000 A 
ATOM     20  C   UNL     1       6.869   5.973  17.501  0.00  0.00    +0.000 A 
BRANCH  15  22
ATOM     21  C   UNL     1       6.937   4.846  14.386  0.00  0.00    +0.000 C 
ATOM     22  O   UNL     1       6.262   5.813  15.187  0.00  0.00    +0.000 OA
ENDBRANCH  15  22
BRANCH  19  23
ATOM     23  O   UNL     1       7.376   5.945  19.933  0.00  0.00    +0.000 OA
ATOM     24  C   UNL     1       8.553   5.173  20.152  0.00  0.00    +0.000 C 
ENDBRANCH  19  23
BRANCH  20  25
ATOM     25  O   UNL     1       7.964   6.783  17.302  0.00  0.00    +0.000 OA
ATOM     26  C   UNL     1       7.828   8.184  17.516  0.00  0.00    +0.000 C 
ENDBRANCH  20  25
ENDBRANCH   1  17
TORSDOF 6
ENDMDL
MODEL 4
REMARK VINA RESULT:      -6.6      1.537      2.015
REMARK  Name = 
REMARK  9 active torsions:
REMARK  status: ('A' for Active; 'I' for Inactive)
REMARK    1  A    between atoms: C_1  and  O_2
REMARK    2  A    between atoms: O_2  and  C_3
REMARK    3  A    between atoms: C_5  and  C_6
REMARK    4  A    between atoms: C_8  and  C_9
REMARK    5  A    between atoms: C_11  and  O_12
REMARK    6  A    between atoms: C_20  and  O_21
REMARK    7  A    between atoms: O_21  and  C_22
REMARK    8  A    between atoms: C_23  and  O_24
REMARK    9  A    between atoms: O_24  and  C_25
REMARK                            x       y       z     vdW  Elec       q    Type
REMARK                         _______ _______ _______ _____ _____    ______ ____
ROOT
ATOM      1  C   UNL     1       5.257   4.364  15.807  0.00  0.00    +0.000 C 
ATOM      2  F   UNL     1       4.895   3.601  14.748  0.00  0.00    +0.000 F 
ATOM      3  C   UNL     1       6.422   5.019  15.705  0.00  0.00    +0.000 C 
ENDROOT
BRANCH   3   4
ATOM      4  C   UNL     1       7.007   5.881  16.728  0.00  0.00    +0.000 A 
ATOM      5  C   UNL     1       7.452   5.311  17.930  0.00  0.00    +0.000 A 
ATOM      6  C   UNL     1       8.065   6.106  18.906  0.00  0.00    +0.000 A 
ATOM      7  C   UNL     1       8.243   7.479  18.664  0.00  0.00    +0.000 A 
ATOM      8  C   UNL     1       8.843   8.567  19.347  0.00  0.00    +0.000 A 
ATOM      9  C   UNL     1       8.675   9.672  18.544  0.00  0.00    +0.000 A 
ATOM     10  O   UNL     1       7.999   9.344  17.411  0.00  0.00    +0.000 OA
ATOM     11  C   UNL     1       7.752   8.005  17.474  0.00  0.00    +0.000 A 
ATOM     12  C   UNL     1       7.120   7.256  16.485  0.00  0.00    +0.000 A 
BRANCH   6  13
ATOM     13  O   UNL     1       8.506   5.554  20.079  0.00  0.00    +0.000 OA
ATOM     14  H   UNL     1       8.858   6.258  20.648  0.00  0.00    +0.000 HD
ENDBRANCH   6  13
ENDBRANCH   3   4
BRANCH   1  17
ATOM     15  C   UNL     1       3.514   3.401  19.011  0.00  0.00    +0.000 A 
ATOM     16  C   UNL     1       4.192   3.285  17.783  0.00  0.00    +0.000 A 
ATOM     17  C   UNL     1       4.285   4.369  16.909  0.00  0.00    +0.000 A 
ATOM     18  C   UNL     1       3.590   5.540  17.214  0.00  0.00    +0.000 A 
ATOM     19  C   UNL     1       2.876   5.659  18.415  0.00  0.00    +0.000 A 
ATOM     20  C   UNL     1       2.838   4.593  19.336  0.00  0.00    +0.000 A 
BRANCH  15  22
ATOM     21  C   UNL     1       4.712   1.806  20.312  0.00  0.00    +0.000 C 
ATOM     22  O   UNL     1       3.463   2.344  19.885  0.00  0.00    +0.000 OA
ENDBRANCH  15  22
BRANCH  19  23
ATOM     23  O   UNL     1       2.239   6.871  18.547  0.00  0.00    +0.000 OA
ATOM     24  C   UNL     1       2.849   7.963  17.865  0.00  0.00    +0.000 C 
ENDBRANCH  19  23
BRANCH  20  25
ATOM     25  O   UNL     1       2.086   4.809  20.468  0.00  0.00    +0.000 OA
ATOM     26  C   UNL     1       0.837   4.139  20.599  0.00  0.00    +0.000 C 
ENDBRANCH  20  25
ENDBRANCH   1  17
TORSDOF 6
ENDMDL
MODEL 5
REMARK VINA RESULT:      -6.5      2.305      3.427
REMARK  Name = 
REMARK  9 active torsions:
REMARK  status: ('A' for Active; 'I' for Inactive)
REMARK    1  A    between atoms: C_1  and  O_2
REMARK    2  A    between atoms: O_2  and  C_3
REMARK    3  A    between atoms: C_5  and  C_6
REMARK    4  A    between atoms: C_8  and  C_9
REMARK    5  A    between atoms: C_11  and  O_12
REMARK    6  A    between atoms: C_20  and  O_21
REMARK    7  A    between atoms: O_21  and  C_22
REMARK    8  A    between atoms: C_23  and  O_24
REMARK    9  A    between atoms: O_24  and  C_25
REMARK                            x       y       z     vdW  Elec       q    Type
REMARK                         _______ _______ _______ _____ _____    ______ ____
ROOT
ATOM      1  C   UNL     1       2.329   4.048  20.068  0.00  0.00    +0.000 C 
ATOM      2  F   UNL     1       1.483   3.424  20.923  0.00  0.00    +0.000 F 
ATOM      3  C   UNL     1       3.324   3.307  19.560  0.00  0.00    +0.000 C 
ENDROOT
BRANCH   3   4
ATOM      4  C   UNL     1       4.351   3.779  18.636  0.00  0.00    +0.000 A 
ATOM      5  C   UNL     1       5.535   4.328  19.151  0.00  0.00    +0.000 A 
ATOM      6  C   UNL     1       6.559   4.739  18.290  0.00  0.00    +0.000 A 
ATOM      7  C   UNL     1       6.395   4.584  16.903  0.00  0.00    +0.000 A 
ATOM      8  C   UNL     1       7.186   4.816  15.748  0.00  0.00    +0.000 A 
ATOM      9  C   UNL     1       6.420   4.440  14.668  0.00  0.00    +0.000 A 
ATOM     10  O   UNL     1       5.200   4.001  15.076  0.00  0.00    +0.000 OA
ATOM     11  C   UNL     1       5.189   4.071  16.437  0.00  0.00    +0.000 A 
ATOM     12  C   UNL     1       4.138   3.666  17.257  0.00  0.00    +0.000 A 
BRANCH   6  13
ATOM     13  O   UNL     1       7.718   5.270  18.788  0.00  0.00    +0.000 OA
ATOM     14  H   UNL     1       8.388   5.283  18.085  0.00  0.00    +0.000 HD
ENDBRANCH   6  13
ENDBRANCH   3   4
BRANCH   1  17
ATOM     15  C   UNL     1       1.451   7.662  20.704  0.00  0.00    +0.000 A 
ATOM     16  C   UNL     1       1.468   6.259  20.825  0.00  0.00    +0.000 A 
ATOM     17  C   UNL     1       2.001   5.458  19.814  0.00  0.00    +0.000 A 
ATOM     18  C   UNL     1       2.409   6.060  18.623  0.00  0.00    +0.000 A 
ATOM     19  C   UNL     1       2.361   7.453  18.470  0.00  0.00    +0.000 A 
ATOM     20  C   UNL     1       1.891   8.274  19.514  0.00  0.00    +0.000 A 
BRANCH  15  22
ATOM     21  C   UNL     1      -0.450   8.620  21.771  0.00  0.00    +0.000 C 
ATOM     22  O   UNL     1       0.965   8.446  21.719  0.00  0.00    +0.000 OA
ENDBRANCH  15  22
BRANCH  19  23
ATOM     23  O   UNL     1       2.785   7.874  17.231  0.00  0.00    +0.000 OA
ATOM     24  C   UNL     1       4.088   7.446  16.847  0.00  0.00    +0.000 C 
ENDBRANCH  19  23
BRANCH  20  25
ATOM     25  O   UNL     1       1.863   9.623  19.245  0.00  0.00    +0.000 OA
ATOM     26  C   UNL     1       0.703  10.175  18.632  0.00  0.00    +0.000 C 
ENDBRANCH  20  25
ENDBRANCH   1  17
TORSDOF 6
ENDMDL
MODEL 6
REMARK VINA RESULT:      -6.5      3.817      5.870
REMARK  Name = 
REMARK  9 active torsions:
REMARK  status: ('A' for Active; 'I' for Inactive)
REMARK    1  A    between atoms: C_1  and  O_2
REMARK    2  A    between atoms: O_2  and  C_3
REMARK    3  A    between atoms: C_5  and  C_6
REMARK    4  A    between atoms: C_8  and  C_9
REMARK    5  A    between atoms: C_11  and  O_12
REMARK    6  A    between atoms: C_20  and  O_21
REMARK    7  A    between atoms: O_21  and  C_22
REMARK    8  A    between atoms: C_23  and  O_24
REMARK    9  A    between atoms: O_24  and  C_25
REMARK                            x       y       z     vdW  Elec       q    Type
REMARK                         _______ _______ _______ _____ _____    ______ ____
ROOT
ATOM      1  C   UNL     1       2.561   8.469  18.011  0.00  0.00    +0.000 C 
ATOM      2  F   UNL     1       3.175   9.423  17.271  0.00  0.00    +0.000 F 
ATOM      3  C   UNL     1       3.049   7.225  17.911  0.00  0.00    +0.000 C 
ENDROOT
BRANCH   3   4
ATOM      4  C   UNL     1       2.533   6.049  18.605  0.00  0.00    +0.000 A 
ATOM      5  C   UNL     1       1.797   5.096  17.886  0.00  0.00    +0.000 A 
ATOM      6  C   UNL     1       1.336   3.933  18.515  0.00  0.00    +0.000 A 
ATOM      7  C   UNL     1       1.630   3.723  19.873  0.00  0.00    +0.000 A 
ATOM      8  C   UNL     1       1.401   2.693  20.821  0.00  0.00    +0.000 A 
ATOM      9  C   UNL     1       1.961   3.118  22.003  0.00  0.00    +0.000 A 
ATOM     10  O   UNL     1       2.513   4.351  21.856  0.00  0.00    +0.000 OA
ATOM     11  C   UNL     1       2.329   4.714  20.555  0.00  0.00    +0.000 A 
ATOM     12  C   UNL     1       2.790   5.892  19.973  0.00  0.00    +0.000 A 
BRANCH   6  13
ATOM     13  O   UNL     1       0.623   2.997  17.815  0.00  0.00    +0.000 OA
ATOM     14  H   UNL     1       0.425   3.347  16.930  0.00  0.00    +0.000 HD
ENDBRANCH   6  13
ENDBRANCH   3   4
BRANCH   1  17
ATOM     15  C   UNL     1       0.687   9.842  20.984  0.00  0.00    +0.000 A 
ATOM     16  C   UNL     1       1.594   9.080  20.224  0.00  0.00    +0.000 A 
ATOM     17  C   UNL     1       1.454   8.966  18.840  0.00  0.00    +0.000 A 
ATOM     18  C   UNL     1       0.327   9.519  18.231  0.00  0.00    +0.000 A 
ATOM     19  C   UNL     1      -0.609  10.247  18.979  0.00  0.00    +0.000 A 
ATOM     20  C   UNL     1      -0.435  10.427  20.366  0.00  0.00    +0.000 A 
BRANCH  15  22
ATOM     21  C   UNL     1      -0.142   9.398  23.172  0.00  0.00    +0.000 C 
ATOM     22  O   UNL     1       0.855   9.986  22.338  0.00  0.00    +0.000 OA
ENDBRANCH  15  22
BRANCH  19  23
ATOM     23  O   UNL     1      -1.663  10.706  18.224  0.00  0.00    +0.000 OA
ATOM     24  C   UNL     1      -2.035   9.884  17.121  0.00  0.00    +0.000 C 
ENDBRANCH  19  23
BRANCH  20  25
ATOM     25  O   UNL     1      -1.428  11.135  21.004  0.00  0.00    +0.000 OA
ATOM     26  C   UNL     1      -1.276  12.542  21.159  0.00  0.00    +0.000 C 
ENDBRANCH  20  25
ENDBRANCH   1  17
TORSDOF 6
ENDMDL
MODEL 7
REMARK VINA RESULT:      -6.5      3.876      5.937
REMARK  Name = 
REMARK  9 active torsions:
REMARK  status: ('A' for Active; 'I' for Inactive)
REMARK    1  A    between atoms: C_1  and  O_2
REMARK    2  A    between atoms: O_2  and  C_3
REMARK    3  A    between atoms: C_5  and  C_6
REMARK    4  A    between atoms: C_8  and  C_9
REMARK    5  A    between atoms: C_11  and  O_12
REMARK    6  A    between atoms: C_20  and  O_21
REMARK    7  A    between atoms: O_21  and  C_22
REMARK    8  A    between atoms: C_23  and  O_24
REMARK    9  A    between atoms: O_24  and  C_25
REMARK                            x       y       z     vdW  Elec       q    Type
REMARK                         _______ _______ _______ _____ _____    ______ ____
ROOT
ATOM      1  C   UNL     1       2.339   8.999  17.980  0.00  0.00    +0.000 C 
ATOM      2  F   UNL     1       2.845  10.040  17.275  0.00  0.00    +0.000 F 
ATOM      3  C   UNL     1       2.924   7.808  17.796  0.00  0.00    +0.000 C 
ENDROOT
BRANCH   3   4
ATOM      4  C   UNL     1       2.532   6.557  18.439  0.00  0.00    +0.000 A 
ATOM      5  C   UNL     1       2.697   6.418  19.825  0.00  0.00    +0.000 A 
ATOM      6  C   UNL     1       2.281   5.251  20.475  0.00  0.00    +0.000 A 
ATOM      7  C   UNL     1       1.682   4.223  19.727  0.00  0.00    +0.000 A 
ATOM      8  C   UNL     1       1.100   2.960  20.008  0.00  0.00    +0.000 A 
ATOM      9  C   UNL     1       0.686   2.443  18.802  0.00  0.00    +0.000 A 
ATOM     10  O   UNL     1       0.984   3.297  17.787  0.00  0.00    +0.000 OA
ATOM     11  C   UNL     1       1.574   4.389  18.351  0.00  0.00    +0.000 A 
ATOM     12  C   UNL     1       1.991   5.525  17.661  0.00  0.00    +0.000 A 
BRANCH   6  13
ATOM     13  O   UNL     1       2.435   5.113  21.829  0.00  0.00    +0.000 OA
ATOM     14  H   UNL     1       2.588   5.989  22.220  0.00  0.00    +0.000 HD
ENDBRANCH   6  13
ENDBRANCH   3   4
BRANCH   1  17
ATOM     15  C   UNL     1       0.468  10.189  21.033  0.00  0.00    +0.000 A 
ATOM     16  C   UNL     1       1.431   9.542  20.235  0.00  0.00    +0.000 A 
ATOM     17  C   UNL     1       1.223   9.356  18.868  0.00  0.00    +0.000 A 
ATOM     18  C   UNL     1      -0.011   9.711  18.321  0.00  0.00    +0.000 A 
ATOM     19  C   UNL     1      -0.997  10.319  19.111  0.00  0.00    +0.000 A 
ATOM     20  C   UNL     1      -0.766  10.576  20.477  0.00  0.00    +0.000 A 
BRANCH  15  22
ATOM     21  C   UNL     1       0.095   9.489  23.279  0.00  0.00    +0.000 C 
ATOM     22  O   UNL     1       0.697  10.406  22.368  0.00  0.00    +0.000 OA
ENDBRANCH  15  22
BRANCH  19  23
ATOM     23  O   UNL     1      -2.154  10.587  18.417  0.00  0.00    +0.000 OA
ATOM     24  C   UNL     1      -2.099  11.706  17.536  0.00  0.00    +0.000 C 
ENDBRANCH  19  23
BRANCH  20  25
ATOM     25  O   UNL     1      -1.812  11.151  21.161  0.00  0.00    +0.000 OA
ATOM     26  C   UNL     1      -1.843  12.567  21.302  0.00  0.00    +0.000 C 
ENDBRANCH  20  25
ENDBRANCH   1  17
TORSDOF 6
ENDMDL
MODEL 8
REMARK VINA RESULT:      -6.5      1.468      1.943
REMARK  Name = 
REMARK  9 active torsions:
REMARK  status: ('A' for Active; 'I' for Inactive)
REMARK    1  A    between atoms: C_1  and  O_2
REMARK    2  A    between atoms: O_2  and  C_3
REMARK    3  A    between atoms: C_5  and  C_6
REMARK    4  A    between atoms: C_8  and  C_9
REMARK    5  A    between atoms: C_11  and  O_12
REMARK    6  A    between atoms: C_20  and  O_21
REMARK    7  A    between atoms: O_21  and  C_22
REMARK    8  A    between atoms: C_23  and  O_24
REMARK    9  A    between atoms: O_24  and  C_25
REMARK                            x       y       z     vdW  Elec       q    Type
REMARK                         _______ _______ _______ _____ _____    ______ ____
ROOT
ATOM      1  C   UNL     1       5.378   3.902  15.912  0.00  0.00    +0.000 C 
ATOM      2  F   UNL     1       5.106   2.994  14.944  0.00  0.00    +0.000 F 
ATOM      3  C   UNL     1       6.601   4.452  15.893  0.00  0.00    +0.000 C 
ENDROOT
BRANCH   3   4
ATOM      4  C   UNL     1       7.107   5.436  16.846  0.00  0.00    +0.000 A 
ATOM      5  C   UNL     1       7.538   5.007  18.110  0.00  0.00    +0.000 A 
ATOM      6  C   UNL     1       8.077   5.922  19.022  0.00  0.00    +0.000 A 
ATOM      7  C   UNL     1       8.195   7.273  18.655  0.00  0.00    +0.000 A 
ATOM      8  C   UNL     1       8.715   8.452  19.247  0.00  0.00    +0.000 A 
ATOM      9  C   UNL     1       8.520   9.465  18.338  0.00  0.00    +0.000 A 
ATOM     10  O   UNL     1       7.900   8.996  17.222  0.00  0.00    +0.000 OA
ATOM     11  C   UNL     1       7.718   7.657  17.406  0.00  0.00    +0.000 A 
ATOM     12  C   UNL     1       7.159   6.786  16.475  0.00  0.00    +0.000 A 
BRANCH   6  13
ATOM     13  O   UNL     1       8.505   5.507  20.255  0.00  0.00    +0.000 OA
ATOM     14  H   UNL     1       8.858   4.605  20.180  0.00  0.00    +0.000 HD
ENDBRANCH   6  13
ENDBRANCH   3   4
BRANCH   1  17
ATOM     15  C   UNL     1       2.709   3.319  18.514  0.00  0.00    +0.000 A 
ATOM     16  C   UNL     1       3.551   3.106  17.405  0.00  0.00    +0.000 A 
ATOM     17  C   UNL     1       4.260   4.162  16.829  0.00  0.00    +0.000 A 
ATOM     18  C   UNL     1       4.029   5.458  17.291  0.00  0.00    +0.000 A 
ATOM     19  C   UNL     1       3.162   5.692  18.368  0.00  0.00    +0.000 A 
ATOM     20  C   UNL     1       2.498   4.623  19.001  0.00  0.00    +0.000 A 
BRANCH  15  22
ATOM     21  C   UNL     1       0.682   2.089  18.735  0.00  0.00    +0.000 C 
ATOM     22  O   UNL     1       2.048   2.270  19.102  0.00  0.00    +0.000 OA
ENDBRANCH  15  22
BRANCH  19  23
ATOM     23  O   UNL     1       3.039   7.026  18.681  0.00  0.00    +0.000 OA
ATOM     24  C   UNL     1       2.294   7.810  17.754  0.00  0.00    +0.000 C 
ENDBRANCH  19  23
BRANCH  20  25
ATOM     25  O   UNL     1       1.652   4.971  20.029  0.00  0.00    +0.000 OA
ATOM     26  C   UNL     1       2.125   4.877  21.368  0.00  0.00    +0.000 C 
ENDBRANCH  20  25
ENDBRANCH   1  17
TORSDOF 6
ENDMDL
MODEL 9
REMARK VINA RESULT:      -6.4      1.648      3.248
REMARK  Name = 
REMARK  9 active torsions:
REMARK  status: ('A' for Active; 'I' for Inactive)
REMARK    1  A    between atoms: C_1  and  O_2
REMARK    2  A    between atoms: O_2  and  C_3
REMARK    3  A    between atoms: C_5  and  C_6
REMARK    4  A    between atoms: C_8  and  C_9
REMARK    5  A    between atoms: C_11  and  O_12
REMARK    6  A    between atoms: C_20  and  O_21
REMARK    7  A    between atoms: O_21  and  C_22
REMARK    8  A    between atoms: C_23  and  O_24
REMARK    9  A    between atoms: O_24  and  C_25
REMARK                            x       y       z     vdW  Elec       q    Type
REMARK                         _______ _______ _______ _____ _____    ______ ____
ROOT
ATOM      1  C   UNL     1       5.344   4.458  15.731  0.00  0.00    +0.000 C 
ATOM      2  F   UNL     1       4.997   3.734  14.640  0.00  0.00    +0.000 F 
ATOM      3  C   UNL     1       6.490   5.148  15.653  0.00  0.00    +0.000 C 
ENDROOT
BRANCH   3   4
ATOM      4  C   UNL     1       7.058   5.978  16.712  0.00  0.00    +0.000 A 
ATOM      5  C   UNL     1       7.476   5.374  17.907  0.00  0.00    +0.000 A 
ATOM      6  C   UNL     1       8.072   6.138  18.917  0.00  0.00    +0.000 A 
ATOM      7  C   UNL     1       8.260   7.516  18.716  0.00  0.00    +0.000 A 
ATOM      8  C   UNL     1       8.850   8.583  19.442  0.00  0.00    +0.000 A 
ATOM      9  C   UNL     1       8.703   9.710  18.667  0.00  0.00    +0.000 A 
ATOM     10  O   UNL     1       8.049   9.417  17.512  0.00  0.00    +0.000 OA
ATOM     11  C   UNL     1       7.795   8.077  17.532  0.00  0.00    +0.000 A 
ATOM     12  C   UNL     1       7.181   7.359  16.510  0.00  0.00    +0.000 A 
BRANCH   6  13
ATOM     13  O   UNL     1       8.487   5.551  20.082  0.00  0.00    +0.000 OA
ATOM     14  H   UNL     1       9.389   5.211  19.961  0.00  0.00    +0.000 HD
ENDBRANCH   6  13
ENDBRANCH   3   4
BRANCH   1  17
ATOM     15  C   UNL     1       2.578   5.443  18.101  0.00  0.00    +0.000 A 
ATOM     16  C   UNL     1       3.722   5.534  17.284  0.00  0.00    +0.000 A 
ATOM     17  C   UNL     1       4.378   4.387  16.836  0.00  0.00    +0.000 A 
ATOM     18  C   UNL     1       3.958   3.143  17.310  0.00  0.00    +0.000 A 
ATOM     19  C   UNL     1       2.845   3.037  18.157  0.00  0.00    +0.000 A 
ATOM     20  C   UNL     1       2.134   4.186  18.555  0.00  0.00    +0.000 A 
BRANCH  15  22
ATOM     21  C   UNL     1       2.420   7.237  19.658  0.00  0.00    +0.000 C 
ATOM     22  O   UNL     1       1.913   6.573  18.503  0.00  0.00    +0.000 OA
ENDBRANCH  15  22
BRANCH  19  23
ATOM     23  O   UNL     1       2.581   1.742  18.540  0.00  0.00    +0.000 OA
ATOM     24  C   UNL     1       3.697   1.005  19.029  0.00  0.00    +0.000 C 
ENDBRANCH  19  23
BRANCH  20  25
ATOM     25  O   UNL     1       1.077   3.967  19.408  0.00  0.00    +0.000 OA
ATOM     26  C   UNL     1       1.328   3.900  20.808  0.00  0.00    +0.000 C 
ENDBRANCH  20  25
ENDBRANCH   1  17
TORSDOF 6
ENDMDL
