MODEL 1
REMARK VINA RESULT:      -6.8      0.000      0.000
REMARK  Name = 
REMARK  10 active torsions:
REMARK  status: ('A' for Active; 'I' for Inactive)
REMARK    1  A    between atoms: C_1  and  O_2
REMARK    2  A    between atoms: O_2  and  C_3
REMARK    3  A    between atoms: C_3  and  C_5
REMARK    4  A    between atoms: C_14  and  C_15
REMARK    5  A    between atoms: C_14  and  C_16
REMARK    6  A    between atoms: C_16  and  O_17
REMARK    7  A    between atoms: O_17  and  C_18
REMARK    8  A    between atoms: C_18  and  C_19
REMARK    9  A    between atoms: C_21  and  C_22
REMARK   10  A    between atoms: C_22  and  O_24
REMARK                            x       y       z     vdW  Elec       q    Type
REMARK                         _______ _______ _______ _____ _____    ______ ____
ROOT
ATOM      1  C   UNL     1       1.986   6.116  19.107  0.00  0.00    +0.000 C 
ATOM      2  C   UNL     1       3.220   6.256  18.630  0.00  0.00    +0.000 C 
ATOM      3  C   UNL     1       3.855   7.116  17.640  0.00  0.00    +0.000 C 
ATOM      4  O   UNL     1       3.493   7.946  16.837  0.00  0.00    +0.000 OA
ATOM      5  N   UNL     1       5.045   6.538  17.876  0.00  0.00    +0.000 N 
ATOM      6  C   UNL     1       4.562   5.597  18.880  0.00  0.00    +0.000 C 
ATOM      7  S   UNL     1       5.000   4.055  18.065  0.00  0.00    +0.000 S 
ATOM      8  O   UNL     1       5.476   3.078  19.020  0.00  0.00    +0.000 OA
ATOM      9  O   UNL     1       3.967   3.694  17.104  0.00  0.00    +0.000 OA
ATOM     10  C   UNL     1       6.440   4.701  17.121  0.00  0.00    +0.000 C 
ATOM     11  C   UNL     1       7.744   4.334  17.853  0.00  0.00    +0.000 C 
ATOM     12  C   UNL     1       6.155   6.224  17.006  0.00  0.00    +0.000 C 
ENDROOT
BRANCH   1  13
ATOM     13  C   UNL     1       1.797   5.057  20.110  0.00  0.00    +0.000 C 
ATOM     14  O   UNL     1       2.102   5.171  21.287  0.00  0.00    +0.000 OA
BRANCH  13  16
ATOM     15  C   UNL     1       1.638   2.746  20.141  0.00  0.00    +0.000 C 
ATOM     16  O   UNL     1       1.254   3.972  19.517  0.00  0.00    +0.000 OA
ENDBRANCH  13  16
ENDBRANCH   1  13
BRANCH  12  17
ATOM     17  C   UNL     1       7.213   7.147  17.607  0.00  0.00    +0.000 C 
ATOM     18  O   UNL     1       7.860   6.867  18.611  0.00  0.00    +0.000 OA
BRANCH  17  19
ATOM     19  O   UNL     1       7.323   8.351  17.012  0.00  0.00    +0.000 OA
ATOM     20  H   UNL     1       8.026   8.435  16.340  0.00  0.00    +0.000 HD
ENDBRANCH  17  19
ENDBRANCH  12  17
BRANCH  10  21
ATOM     21  C   UNL     1       6.440   4.012  15.744  0.00  0.00    +0.000 C 
BRANCH  21  22
ATOM     22  O   UNL     1       6.265   5.000  14.706  0.00  0.00    +0.000 OA
BRANCH  22  23
ATOM     23  C   UNL     1       7.101   4.909  13.631  0.00  0.00    +0.000 C 
ATOM     24  C   UNL     1       6.642   3.828  12.697  0.00  0.00    +0.000 C 
ATOM     25  O   UNL     1       8.069   5.617  13.423  0.00  0.00    +0.000 OA
ENDBRANCH  22  23
ENDBRANCH  21  22
ENDBRANCH  10  21
TORSDOF 7
ENDMDL
MODEL 2
REMARK VINA RESULT:      -6.8      0.832      1.064
REMARK  Name = 
REMARK  10 active torsions:
REMARK  status: ('A' for Active; 'I' for Inactive)
REMARK    1  A    between atoms: C_1  and  O_2
REMARK    2  A    between atoms: O_2  and  C_3
REMARK    3  A    between atoms: C_3  and  C_5
REMARK    4  A    between atoms: C_14  and  C_15
REMARK    5  A    between atoms: C_14  and  C_16
REMARK    6  A    between atoms: C_16  and  O_17
REMARK    7  A    between atoms: O_17  and  C_18
REMARK    8  A    between atoms: C_18  and  C_19
REMARK    9  A    between atoms: C_21  and  C_22
REMARK   10  A    between atoms: C_22  and  O_24
REMARK                            x       y       z     vdW  Elec       q    Type
REMARK                         _______ _______ _______ _____ _____    ______ ____
ROOT
ATOM      1  C   UNL     1       1.794   5.765  19.840  0.00  0.00    +0.000 C 
ATOM      2  C   UNL     1       2.908   5.993  19.149  0.00  0.00    +0.000 C 
ATOM      3  C   UNL     1       3.401   7.078  18.311  0.00  0.00    +0.000 C 
ATOM      4  O   UNL     1       2.960   8.114  17.866  0.00  0.00    +0.000 OA
ATOM      5  N   UNL     1       4.552   6.416  18.103  0.00  0.00    +0.000 N 
ATOM      6  C   UNL     1       4.202   5.245  18.898  0.00  0.00    +0.000 C 
ATOM      7  S   UNL     1       4.307   3.985  17.619  0.00  0.00    +0.000 S 
ATOM      8  O   UNL     1       4.876   2.761  18.139  0.00  0.00    +0.000 OA
ATOM      9  O   UNL     1       3.065   3.949  16.859  0.00  0.00    +0.000 OA
ATOM     10  C   UNL     1       5.572   4.824  16.581  0.00  0.00    +0.000 C 
ATOM     11  C   UNL     1       6.959   4.220  16.869  0.00  0.00    +0.000 C 
ATOM     12  C   UNL     1       5.419   6.326  16.951  0.00  0.00    +0.000 C 
ENDROOT
BRANCH   1  13
ATOM     13  C   UNL     1       1.717   4.470  20.535  0.00  0.00    +0.000 C 
ATOM     14  O   UNL     1       2.228   4.251  21.623  0.00  0.00    +0.000 OA
BRANCH  13  16
ATOM     15  C   UNL     1       1.628   2.310  19.704  0.00  0.00    +0.000 C 
ATOM     16  O   UNL     1       1.015   3.599  19.779  0.00  0.00    +0.000 OA
ENDBRANCH  13  16
ENDBRANCH   1  13
BRANCH  12  17
ATOM     17  C   UNL     1       6.664   7.003  17.521  0.00  0.00    +0.000 C 
ATOM     18  O   UNL     1       7.303   7.856  16.916  0.00  0.00    +0.000 OA
BRANCH  17  19
ATOM     19  O   UNL     1       7.078   6.525  18.711  0.00  0.00    +0.000 OA
ATOM     20  H   UNL     1       6.411   6.044  19.236  0.00  0.00    +0.000 HD
ENDBRANCH  17  19
ENDBRANCH  12  17
BRANCH  10  21
ATOM     21  C   UNL     1       5.216   4.557  15.107  0.00  0.00    +0.000 C 
BRANCH  21  22
ATOM     22  O   UNL     1       6.273   3.797  14.482  0.00  0.00    +0.000 OA
BRANCH  22  23
ATOM     23  C   UNL     1       7.015   4.447  13.539  0.00  0.00    +0.000 C 
ATOM     24  C   UNL     1       6.776   3.854  12.181  0.00  0.00    +0.000 C 
ATOM     25  O   UNL     1       7.747   5.398  13.743  0.00  0.00    +0.000 OA
ENDBRANCH  22  23
ENDBRANCH  21  22
ENDBRANCH  10  21
TORSDOF 7
ENDMDL
MODEL 3
REMARK VINA RESULT:      -6.7      1.862      3.046
REMARK  Name = 
REMARK  10 active torsions:
REMARK  status: ('A' for Active; 'I' for Inactive)
REMARK    1  A    between atoms: C_1  and  O_2
REMARK    2  A    between atoms: O_2  and  C_3
REMARK    3  A    between atoms: C_3  and  C_5
REMARK    4  A    between atoms: C_14  and  C_15
REMARK    5  A    between atoms: C_14  and  C_16
REMARK    6  A    between atoms: C_16  and  O_17
REMARK    7  A    between atoms: O_17  and  C_18
REMARK    8  A    between atoms: C_18  and  C_19
REMARK    9  A    between atoms: C_21  and  C_22
REMARK   10  A    between atoms: C_22  and  O_24
REMARK                            x       y       z     vdW  Elec       q    Type
REMARK                         _______ _______ _______ _____ _____    ______ ____
ROOT
ATOM      1  C   UNL     1       2.558   2.533  19.744  0.00  0.00    +0.000 C 
ATOM      2  C   UNL     1       2.700   3.722  19.164  0.00  0.00    +0.000 C 
ATOM      3  C   UNL     1       1.910   4.522  18.238  0.00  0.00    +0.000 C 
ATOM      4  O   UNL     1       0.895   4.374  17.594  0.00  0.00    +0.000 OA
ATOM      5  N   UNL     1       2.831   5.500  18.270  0.00  0.00    +0.000 N 
ATOM      6  C   UNL     1       3.743   4.822  19.184  0.00  0.00    +0.000 C 
ATOM      7  S   UNL     1       5.197   4.734  18.129  0.00  0.00    +0.000 S 
ATOM      8  O   UNL     1       6.407   4.957  18.890  0.00  0.00    +0.000 OA
ATOM      9  O   UNL     1       5.094   3.585  17.241  0.00  0.00    +0.000 OA
ATOM     10  C   UNL     1       4.845   6.241  17.135  0.00  0.00    +0.000 C 
ATOM     11  C   UNL     1       5.677   7.420  17.673  0.00  0.00    +0.000 C 
ATOM     12  C   UNL     1       3.305   6.414  17.255  0.00  0.00    +0.000 C 
ENDROOT
BRANCH   1  13
ATOM     13  C   UNL     1       3.665   2.100  20.610  0.00  0.00    +0.000 C 
ATOM     14  O   UNL     1       4.760   1.756  20.194  0.00  0.00    +0.000 OA
BRANCH  13  16
ATOM     15  C   UNL     1       1.904   2.552  22.047  0.00  0.00    +0.000 C 
ATOM     16  O   UNL     1       3.265   2.142  21.900  0.00  0.00    +0.000 OA
ENDBRANCH  13  16
ENDBRANCH   1  13
BRANCH  12  17
ATOM     17  C   UNL     1       2.827   7.731  17.862  0.00  0.00    +0.000 C 
ATOM     18  O   UNL     1       2.487   7.849  19.034  0.00  0.00    +0.000 OA
BRANCH  17  19
ATOM     19  O   UNL     1       2.708   8.750  16.988  0.00  0.00    +0.000 OA
ATOM     20  H   UNL     1       2.547   9.631  17.375  0.00  0.00    +0.000 HD
ENDBRANCH  17  19
ENDBRANCH  12  17
BRANCH  10  21
ATOM     21  C   UNL     1       5.279   5.955  15.686  0.00  0.00    +0.000 C 
BRANCH  21  22
ATOM     22  O   UNL     1       6.717   5.852  15.621  0.00  0.00    +0.000 OA
BRANCH  22  23
ATOM     23  C   UNL     1       7.234   5.220  14.527  0.00  0.00    +0.000 C 
ATOM     24  C   UNL     1       6.332   4.105  14.088  0.00  0.00    +0.000 C 
ATOM     25  O   UNL     1       8.264   5.524  13.953  0.00  0.00    +0.000 OA
ENDBRANCH  22  23
ENDBRANCH  21  22
ENDBRANCH  10  21
TORSDOF 7
ENDMDL
MODEL 4
REMARK VINA RESULT:      -6.6      2.149      4.764
REMARK  Name = 
REMARK  10 active torsions:
REMARK  status: ('A' for Active; 'I' for Inactive)
REMARK    1  A    between atoms: C_1  and  O_2
REMARK    2  A    between atoms: O_2  and  C_3
REMARK    3  A    between atoms: C_3  and  C_5
REMARK    4  A    between atoms: C_14  and  C_15
REMARK    5  A    between atoms: C_14  and  C_16
REMARK    6  A    between atoms: C_16  and  O_17
REMARK    7  A    between atoms: O_17  and  C_18
REMARK    8  A    between atoms: C_18  and  C_19
REMARK    9  A    between atoms: C_21  and  C_22
REMARK   10  A    between atoms: C_22  and  O_24
REMARK                            x       y       z     vdW  Elec       q    Type
REMARK                         _______ _______ _______ _____ _____    ______ ____
ROOT
ATOM      1  C   UNL     1       1.989   7.959  19.218  0.00  0.00    +0.000 C 
ATOM      2  C   UNL     1       2.519   6.795  18.850  0.00  0.00    +0.000 C 
ATOM      3  C   UNL     1       2.868   5.556  19.533  0.00  0.00    +0.000 C 
ATOM      4  O   UNL     1       2.888   5.159  20.676  0.00  0.00    +0.000 OA
ATOM      5  N   UNL     1       3.293   5.019  18.376  0.00  0.00    +0.000 N 
ATOM      6  C   UNL     1       3.015   6.189  17.552  0.00  0.00    +0.000 C 
ATOM      7  S   UNL     1       4.678   6.522  16.954  0.00  0.00    +0.000 S 
ATOM      8  O   UNL     1       4.658   6.953  15.573  0.00  0.00    +0.000 OA
ATOM      9  O   UNL     1       5.416   7.290  17.948  0.00  0.00    +0.000 OA
ATOM     10  C   UNL     1       5.292   4.790  17.018  0.00  0.00    +0.000 C 
ATOM     11  C   UNL     1       5.233   4.169  15.609  0.00  0.00    +0.000 C 
ATOM     12  C   UNL     1       4.376   4.111  18.074  0.00  0.00    +0.000 C 
ENDROOT
BRANCH   1  13
ATOM     13  C   UNL     1       1.846   8.968  18.157  0.00  0.00    +0.000 C 
ATOM     14  O   UNL     1       2.624   9.089  17.223  0.00  0.00    +0.000 OA
BRANCH  13  16
ATOM     15  C   UNL     1       0.456   9.846  19.789  0.00  0.00    +0.000 C 
ATOM     16  O   UNL     1       0.746   9.714  18.396  0.00  0.00    +0.000 OA
ENDBRANCH  13  16
ENDBRANCH   1  13
BRANCH  12  17
ATOM     17  C   UNL     1       3.568   2.912  17.584  0.00  0.00    +0.000 C 
ATOM     18  O   UNL     1       2.463   3.012  17.061  0.00  0.00    +0.000 OA
BRANCH  17  19
ATOM     19  O   UNL     1       4.112   1.709  17.855  0.00  0.00    +0.000 OA
ATOM     20  H   UNL     1       4.729   1.677  18.610  0.00  0.00    +0.000 HD
ENDBRANCH  17  19
ENDBRANCH  12  17
BRANCH  10  21
ATOM     21  C   UNL     1       6.761   4.833  17.474  0.00  0.00    +0.000 C 
BRANCH  21  22
ATOM     22  O   UNL     1       6.832   4.638  18.902  0.00  0.00    +0.000 OA
BRANCH  22  23
ATOM     23  C   UNL     1       7.683   5.455  19.588  0.00  0.00    +0.000 C 
ATOM     24  C   UNL     1       8.152   6.580  18.712  0.00  0.00    +0.000 C 
ATOM     25  O   UNL     1       8.004   5.327  20.755  0.00  0.00    +0.000 OA
ENDBRANCH  22  23
ENDBRANCH  21  22
ENDBRANCH  10  21
TORSDOF 7
ENDMDL
MODEL 5
REMARK VINA RESULT:      -6.6      1.204      1.480
REMARK  Name = 
REMARK  10 active torsions:
REMARK  status: ('A' for Active; 'I' for Inactive)
REMARK    1  A    between atoms: C_1  and  O_2
REMARK    2  A    between atoms: O_2  and  C_3
REMARK    3  A    between atoms: C_3  and  C_5
REMARK    4  A    between atoms: C_14  and  C_15
REMARK    5  A    between atoms: C_14  and  C_16
REMARK    6  A    between atoms: C_16  and  O_17
REMARK    7  A    between atoms: O_17  and  C_18
REMARK    8  A    between atoms: C_18  and  C_19
REMARK    9  A    between atoms: C_21  and  C_22
REMARK   10  A    between atoms: C_22  and  O_24
REMARK                            x       y       z     vdW  Elec       q    Type
REMARK                         _______ _______ _______ _____ _____    ______ ____
ROOT
ATOM      1  C   UNL     1       1.845   5.482  19.414  0.00  0.00    +0.000 C 
ATOM      2  C   UNL     1       2.998   5.770  18.816  0.00  0.00    +0.000 C 
ATOM      3  C   UNL     1       3.554   6.941  18.150  0.00  0.00    +0.000 C 
ATOM      4  O   UNL     1       3.155   8.035  17.820  0.00  0.00    +0.000 OA
ATOM      5  N   UNL     1       4.703   6.284  17.918  0.00  0.00    +0.000 N 
ATOM      6  C   UNL     1       4.291   5.030  18.537  0.00  0.00    +0.000 C 
ATOM      7  S   UNL     1       4.444   3.942  17.114  0.00  0.00    +0.000 S 
ATOM      8  O   UNL     1       4.964   2.648  17.502  0.00  0.00    +0.000 OA
ATOM      9  O   UNL     1       3.244   4.031  16.293  0.00  0.00    +0.000 OA
ATOM     10  C   UNL     1       5.777   4.875  16.259  0.00  0.00    +0.000 C 
ATOM     11  C   UNL     1       7.137   4.208  16.537  0.00  0.00    +0.000 C 
ATOM     12  C   UNL     1       5.630   6.321  16.810  0.00  0.00    +0.000 C 
ENDROOT
BRANCH   1  13
ATOM     13  C   UNL     1       1.710   4.112  19.932  0.00  0.00    +0.000 C 
ATOM     14  O   UNL     1       1.358   3.160  19.254  0.00  0.00    +0.000 OA
BRANCH  13  16
ATOM     15  C   UNL     1       2.220   2.779  21.756  0.00  0.00    +0.000 C 
ATOM     16  O   UNL     1       2.025   4.099  21.245  0.00  0.00    +0.000 OA
ENDBRANCH  13  16
ENDBRANCH   1  13
BRANCH  12  17
ATOM     17  C   UNL     1       6.853   6.891  17.525  0.00  0.00    +0.000 C 
ATOM     18  O   UNL     1       7.219   6.518  18.634  0.00  0.00    +0.000 OA
BRANCH  17  19
ATOM     19  O   UNL     1       7.459   7.914  16.890  0.00  0.00    +0.000 OA
ATOM     20  H   UNL     1       7.276   8.805  17.240  0.00  0.00    +0.000 HD
ENDBRANCH  17  19
ENDBRANCH  12  17
BRANCH  10  21
ATOM     21  C   UNL     1       5.497   4.806  14.746  0.00  0.00    +0.000 C 
BRANCH  21  22
ATOM     22  O   UNL     1       6.153   3.650  14.183  0.00  0.00    +0.000 OA
BRANCH  22  23
ATOM     23  C   UNL     1       6.310   3.639  12.828  0.00  0.00    +0.000 C 
ATOM     24  C   UNL     1       7.381   4.606  12.414  0.00  0.00    +0.000 C 
ATOM     25  O   UNL     1       5.703   2.929  12.049  0.00  0.00    +0.000 OA
ENDBRANCH  22  23
ENDBRANCH  21  22
ENDBRANCH  10  21
TORSDOF 7
ENDMDL
MODEL 6
REMARK VINA RESULT:      -6.5      2.443      4.732
REMARK  Name = 
REMARK  10 active torsions:
REMARK  status: ('A' for Active; 'I' for Inactive)
REMARK    1  A    between atoms: C_1  and  O_2
REMARK    2  A    between atoms: O_2  and  C_3
REMARK    3  A    between atoms: C_3  and  C_5
REMARK    4  A    between atoms: C_14  and  C_15
REMARK    5  A    between atoms: C_14  and  C_16
REMARK    6  A    between atoms: C_16  and  O_17
REMARK    7  A    between atoms: O_17  and  C_18
REMARK    8  A    between atoms: C_18  and  C_19
REMARK    9  A    between atoms: C_21  and  C_22
REMARK   10  A    between atoms: C_22  and  O_24
REMARK                            x       y       z     vdW  Elec       q    Type
REMARK                         _______ _______ _______ _____ _____    ______ ____
ROOT
ATOM      1  C   UNL     1       1.391   6.998  21.085  0.00  0.00    +0.000 C 
ATOM      2  C   UNL     1       1.830   5.919  20.442  0.00  0.00    +0.000 C 
ATOM      3  C   UNL     1       2.138   4.545  20.817  0.00  0.00    +0.000 C 
ATOM      4  O   UNL     1       2.193   3.907  21.844  0.00  0.00    +0.000 OA
ATOM      5  N   UNL     1       2.469   4.255  19.547  0.00  0.00    +0.000 N 
ATOM      6  C   UNL     1       2.220   5.590  19.015  0.00  0.00    +0.000 C 
ATOM      7  S   UNL     1       3.867   5.966  18.398  0.00  0.00    +0.000 S 
ATOM      8  O   UNL     1       3.802   6.690  17.147  0.00  0.00    +0.000 OA
ATOM      9  O   UNL     1       4.700   6.460  19.485  0.00  0.00    +0.000 OA
ATOM     10  C   UNL     1       4.377   4.235  18.047  0.00  0.00    +0.000 C 
ATOM     11  C   UNL     1       4.208   3.941  16.544  0.00  0.00    +0.000 C 
ATOM     12  C   UNL     1       3.478   3.385  18.987  0.00  0.00    +0.000 C 
ENDROOT
BRANCH   1  13
ATOM     13  C   UNL     1       1.255   8.221  20.279  0.00  0.00    +0.000 C 
ATOM     14  O   UNL     1       1.946   8.474  19.305  0.00  0.00    +0.000 OA
BRANCH  13  16
ATOM     15  C   UNL     1      -0.182   9.996  19.888  0.00  0.00    +0.000 C 
ATOM     16  O   UNL     1       0.271   8.989  20.795  0.00  0.00    +0.000 OA
ENDBRANCH  13  16
ENDBRANCH   1  13
BRANCH  12  17
ATOM     17  C   UNL     1       2.574   2.363  18.303  0.00  0.00    +0.000 C 
ATOM     18  O   UNL     1       1.434   2.615  17.927  0.00  0.00    +0.000 OA
BRANCH  17  19
ATOM     19  O   UNL     1       3.082   1.117  18.222  0.00  0.00    +0.000 OA
ATOM     20  H   UNL     1       4.021   1.051  17.967  0.00  0.00    +0.000 HD
ENDBRANCH  17  19
ENDBRANCH  12  17
BRANCH  10  21
ATOM     21  C   UNL     1       5.868   4.106  18.407  0.00  0.00    +0.000 C 
BRANCH  21  22
ATOM     22  O   UNL     1       6.677   4.482  17.273  0.00  0.00    +0.000 OA
BRANCH  22  23
ATOM     23  C   UNL     1       7.352   5.663  17.370  0.00  0.00    +0.000 C 
ATOM     24  C   UNL     1       7.877   5.856  18.763  0.00  0.00    +0.000 C 
ATOM     25  O   UNL     1       7.543   6.449  16.461  0.00  0.00    +0.000 OA
ENDBRANCH  22  23
ENDBRANCH  21  22
ENDBRANCH  10  21
TORSDOF 7
ENDMDL
MODEL 7
REMARK VINA RESULT:      -6.5      1.358      6.044
REMARK  Name = 
REMARK  10 active torsions:
REMARK  status: ('A' for Active; 'I' for Inactive)
REMARK    1  A    between atoms: C_1  and  O_2
REMARK    2  A    between atoms: O_2  and  C_3
REMARK    3  A    between atoms: C_3  and  C_5
REMARK    4  A    between atoms: C_14  and  C_15
REMARK    5  A    between atoms: C_14  and  C_16
REMARK    6  A    between atoms: C_16  and  O_17
REMARK    7  A    between atoms: O_17  and  C_18
REMARK    8  A    between atoms: C_18  and  C_19
REMARK    9  A    between atoms: C_21  and  C_22
REMARK   10  A    between atoms: C_22  and  O_24
REMARK                            x       y       z     vdW  Elec       q    Type
REMARK                         _______ _______ _______ _____ _____    ______ ____
ROOT
ATOM      1  C   UNL     1       6.946   5.335  15.469  0.00  0.00    +0.000 C 
ATOM      2  C   UNL     1       5.972   5.853  16.212  0.00  0.00    +0.000 C 
ATOM      3  C   UNL     1       5.879   6.925  17.195  0.00  0.00    +0.000 C 
ATOM      4  O   UNL     1       6.650   7.670  17.757  0.00  0.00    +0.000 OA
ATOM      5  N   UNL     1       4.564   6.695  17.347  0.00  0.00    +0.000 N 
ATOM      6  C   UNL     1       4.491   5.588  16.400  0.00  0.00    +0.000 C 
ATOM      7  S   UNL     1       3.917   4.295  17.510  0.00  0.00    +0.000 S 
ATOM      8  O   UNL     1       2.961   3.431  16.852  0.00  0.00    +0.000 OA
ATOM      9  O   UNL     1       5.049   3.722  18.226  0.00  0.00    +0.000 OA
ATOM     10  C   UNL     1       3.012   5.388  18.679  0.00  0.00    +0.000 C 
ATOM     11  C   UNL     1       1.507   5.359  18.353  0.00  0.00    +0.000 C 
ATOM     12  C   UNL     1       3.697   6.771  18.500  0.00  0.00    +0.000 C 
ENDROOT
BRANCH   1  13
ATOM     13  C   UNL     1       6.571   4.199  14.613  0.00  0.00    +0.000 C 
ATOM     14  O   UNL     1       6.125   3.145  15.037  0.00  0.00    +0.000 OA
BRANCH  13  16
ATOM     15  C   UNL     1       6.321   3.531  12.408  0.00  0.00    +0.000 C 
ATOM     16  O   UNL     1       6.809   4.516  13.321  0.00  0.00    +0.000 OA
ENDBRANCH  13  16
ENDBRANCH   1  13
BRANCH  12  17
ATOM     17  C   UNL     1       2.787   7.914  18.055  0.00  0.00    +0.000 C 
ATOM     18  O   UNL     1       2.815   8.396  16.928  0.00  0.00    +0.000 OA
BRANCH  17  19
ATOM     19  O   UNL     1       2.006   8.431  19.023  0.00  0.00    +0.000 OA
ATOM     20  H   UNL     1       2.045   7.986  19.890  0.00  0.00    +0.000 HD
ENDBRANCH  17  19
ENDBRANCH  12  17
BRANCH  10  21
ATOM     21  C   UNL     1       3.218   4.824  20.097  0.00  0.00    +0.000 C 
BRANCH  21  22
ATOM     22  O   UNL     1       1.946   4.426  20.651  0.00  0.00    +0.000 OA
BRANCH  22  23
ATOM     23  C   UNL     1       1.863   3.152  21.133  0.00  0.00    +0.000 C 
ATOM     24  C   UNL     1       1.747   2.169  20.006  0.00  0.00    +0.000 C 
ATOM     25  O   UNL     1       1.908   2.834  22.307  0.00  0.00    +0.000 OA
ENDBRANCH  22  23
ENDBRANCH  21  22
ENDBRANCH  10  21
TORSDOF 7
ENDMDL
MODEL 8
REMARK VINA RESULT:      -6.5      2.454      6.001
REMARK  Name = 
REMARK  10 active torsions:
REMARK  status: ('A' for Active; 'I' for Inactive)
REMARK    1  A    between atoms: C_1  and  O_2
REMARK    2  A    between atoms: O_2  and  C_3
REMARK    3  A    between atoms: C_3  and  C_5
REMARK    4  A    between atoms: C_14  and  C_15
REMARK    5  A    between atoms: C_14  and  C_16
REMARK    6  A    between atoms: C_16  and  O_17
REMARK    7  A    between atoms: O_17  and  C_18
REMARK    8  A    between atoms: C_18  and  C_19
REMARK    9  A    between atoms: C_21  and  C_22
REMARK   10  A    between atoms: C_22  and  O_24
REMARK                            x       y       z     vdW  Elec       q    Type
REMARK                         _______ _______ _______ _____ _____    ______ ____
ROOT
ATOM      1  C   UNL     1       4.541   7.253  17.383  0.00  0.00    +0.000 C 
ATOM      2  C   UNL     1       3.827   6.270  17.927  0.00  0.00    +0.000 C 
ATOM      3  C   UNL     1       2.924   6.155  19.064  0.00  0.00    +0.000 C 
ATOM      4  O   UNL     1       2.560   6.868  19.972  0.00  0.00    +0.000 OA
ATOM      5  N   UNL     1       2.717   4.856  18.789  0.00  0.00    +0.000 N 
ATOM      6  C   UNL     1       3.601   4.801  17.632  0.00  0.00    +0.000 C 
ATOM      7  S   UNL     1       4.760   3.554  18.213  0.00  0.00    +0.000 S 
ATOM      8  O   UNL     1       5.160   2.673  17.136  0.00  0.00    +0.000 OA
ATOM      9  O   UNL     1       5.767   4.174  19.062  0.00  0.00    +0.000 OA
ATOM     10  C   UNL     1       3.589   2.649  19.304  0.00  0.00    +0.000 C 
ATOM     11  C   UNL     1       3.068   1.395  18.577  0.00  0.00    +0.000 C 
ATOM     12  C   UNL     1       2.504   3.710  19.644  0.00  0.00    +0.000 C 
ENDROOT
BRANCH   1  13
ATOM     13  C   UNL     1       5.364   6.887  16.220  0.00  0.00    +0.000 C 
ATOM     14  O   UNL     1       5.000   7.016  15.062  0.00  0.00    +0.000 OA
BRANCH  13  16
ATOM     15  C   UNL     1       7.037   5.335  15.821  0.00  0.00    +0.000 C 
ATOM     16  O   UNL     1       6.546   6.393  16.647  0.00  0.00    +0.000 OA
ENDBRANCH  13  16
ENDBRANCH   1  13
BRANCH  12  17
ATOM     17  C   UNL     1       1.075   3.357  19.239  0.00  0.00    +0.000 C 
ATOM     18  O   UNL     1       0.660   3.445  18.088  0.00  0.00    +0.000 OA
BRANCH  17  19
ATOM     19  O   UNL     1       0.258   3.029  20.259  0.00  0.00    +0.000 OA
ATOM     20  H   UNL     1      -0.185   2.162  20.192  0.00  0.00    +0.000 HD
ENDBRANCH  17  19
ENDBRANCH  12  17
BRANCH  10  21
ATOM     21  C   UNL     1       4.368   2.204  20.555  0.00  0.00    +0.000 C 
BRANCH  21  22
ATOM     22  O   UNL     1       5.189   1.062  20.234  0.00  0.00    +0.000 OA
BRANCH  22  23
ATOM     23  C   UNL     1       5.843   0.470  21.275  0.00  0.00    +0.000 C 
ATOM     24  C   UNL     1       6.175  -0.956  20.947  0.00  0.00    +0.000 C 
ATOM     25  O   UNL     1       6.155   1.014  22.319  0.00  0.00    +0.000 OA
ENDBRANCH  22  23
ENDBRANCH  21  22
ENDBRANCH  10  21
TORSDOF 7
ENDMDL
MODEL 9
REMARK VINA RESULT:      -6.5      1.354      1.681
REMARK  Name = 
REMARK  10 active torsions:
REMARK  status: ('A' for Active; 'I' for Inactive)
REMARK    1  A    between atoms: C_1  and  O_2
REMARK    2  A    between atoms: O_2  and  C_3
REMARK    3  A    between atoms: C_3  and  C_5
REMARK    4  A    between atoms: C_14  and  C_15
REMARK    5  A    between atoms: C_14  and  C_16
REMARK    6  A    between atoms: C_16  and  O_17
REMARK    7  A    between atoms: O_17  and  C_18
REMARK    8  A    between atoms: C_18  and  C_19
REMARK    9  A    between atoms: C_21  and  C_22
REMARK   10  A    between atoms: C_22  and  O_24
REMARK                            x       y       z     vdW  Elec       q    Type
REMARK                         _______ _______ _______ _____ _____    ______ ____
ROOT
ATOM      1  C   UNL     1       1.281   4.780  19.904  0.00  0.00    +0.000 C 
ATOM      2  C   UNL     1       2.485   5.099  19.436  0.00  0.00    +0.000 C 
ATOM      3  C   UNL     1       3.156   6.339  19.066  0.00  0.00    +0.000 C 
ATOM      4  O   UNL     1       2.850   7.506  18.963  0.00  0.00    +0.000 OA
ATOM      5  N   UNL     1       4.272   5.661  18.752  0.00  0.00    +0.000 N 
ATOM      6  C   UNL     1       3.742   4.339  19.065  0.00  0.00    +0.000 C 
ATOM      7  S   UNL     1       3.913   3.570  17.448  0.00  0.00    +0.000 S 
ATOM      8  O   UNL     1       4.323   2.187  17.570  0.00  0.00    +0.000 OA
ATOM      9  O   UNL     1       2.774   3.923  16.611  0.00  0.00    +0.000 OA
ATOM     10  C   UNL     1       5.353   4.560  16.878  0.00  0.00    +0.000 C 
ATOM     11  C   UNL     1       6.647   3.746  17.068  0.00  0.00    +0.000 C 
ATOM     12  C   UNL     1       5.266   5.862  17.722  0.00  0.00    +0.000 C 
ENDROOT
BRANCH   1  13
ATOM     13  C   UNL     1       1.026   3.345  20.106  0.00  0.00    +0.000 C 
ATOM     14  O   UNL     1       0.755   2.568  19.204  0.00  0.00    +0.000 OA
BRANCH  13  16
ATOM     15  C   UNL     1       2.288   2.269  21.723  0.00  0.00    +0.000 C 
ATOM     16  O   UNL     1       1.133   3.054  21.420  0.00  0.00    +0.000 OA
ENDBRANCH  13  16
ENDBRANCH   1  13
BRANCH  12  17
ATOM     17  C   UNL     1       6.477   6.171  18.600  0.00  0.00    +0.000 C 
ATOM     18  O   UNL     1       6.637   5.695  19.718  0.00  0.00    +0.000 OA
BRANCH  17  19
ATOM     19  O   UNL     1       7.325   7.090  18.097  0.00  0.00    +0.000 OA
ATOM     20  H   UNL     1       8.182   7.179  18.554  0.00  0.00    +0.000 HD
ENDBRANCH  17  19
ENDBRANCH  12  17
BRANCH  10  21
ATOM     21  C   UNL     1       5.164   4.835  15.375  0.00  0.00    +0.000 C 
BRANCH  21  22
ATOM     22  O   UNL     1       6.330   5.507  14.854  0.00  0.00    +0.000 OA
BRANCH  22  23
ATOM     23  C   UNL     1       6.880   4.982  13.721  0.00  0.00    +0.000 C 
ATOM     24  C   UNL     1       6.166   3.723  13.324  0.00  0.00    +0.000 C 
ATOM     25  O   UNL     1       7.798   5.469  13.086  0.00  0.00    +0.000 OA
ENDBRANCH  22  23
ENDBRANCH  21  22
ENDBRANCH  10  21
TORSDOF 7
ENDMDL
