MODEL 1
REMARK VINA RESULT:      -7.3      0.000      0.000
REMARK  Name = 
REMARK  3 active torsions:
REMARK  status: ('A' for Active; 'I' for Inactive)
REMARK    1  A    between atoms: C_1  and  C_2
REMARK    2  A    between atoms: C_2  and  N_3
REMARK    3  A    between atoms: C_12  and  C_14
REMARK                            x       y       z     vdW  Elec       q    Type
REMARK                         _______ _______ _______ _____ _____    ______ ____
ROOT
ATOM      1  N   UNL     1       3.556   6.120  19.220  0.00  0.00    +0.000 N 
ATOM      2  C   UNL     1       4.996   5.841  19.322  0.00  0.00    +0.000 C 
ATOM      3  C   UNL     1       5.543   5.130  18.097  0.00  0.00    +0.000 A 
ATOM      4  C   UNL     1       6.667   5.667  17.450  0.00  0.00    +0.000 A 
ATOM      5  C   UNL     1       7.038   5.215  16.185  0.00  0.00    +0.000 A 
ATOM      6  C   UNL     1       6.289   4.226  15.551  0.00  0.00    +0.000 A 
ATOM      7  C   UNL     1       5.199   3.644  16.203  0.00  0.00    +0.000 A 
ATOM      8  C   UNL     1       4.849   4.056  17.493  0.00  0.00    +0.000 A 
ATOM      9  N   UNL     1       3.709   3.472  18.135  0.00  0.00    +0.000 N 
ATOM     10  C   UNL     1       3.913   2.771  19.342  0.00  0.00    +0.000 C 
ATOM     11  O   UNL     1       5.050   2.581  19.794  0.00  0.00    +0.000 OA
ATOM     12  C   UNL     1       2.401   3.808  17.555  0.00  0.00    +0.000 C 
ATOM     13  C   UNL     1       1.962   5.291  17.562  0.00  0.00    +0.000 C 
ATOM     14  C   UNL     1       3.011   6.311  17.958  0.00  0.00    +0.000 C 
ATOM     15  O   UNL     1       3.426   7.151  17.171  0.00  0.00    +0.000 OA
ENDROOT
BRANCH  10  16
ATOM     16  C   UNL     1       2.663   2.249  20.105  0.00  0.00    +0.000 C 
ATOM     17  C   UNL     1       2.564   2.510  21.635  0.00  0.00    +0.000 C 
ATOM     18  C   UNL     1       1.053   2.738  21.446  0.00  0.00    +0.000 C 
ATOM     19  C   UNL     1       1.359   3.102  19.984  0.00  0.00    +0.000 C 
ENDBRANCH  10  16
BRANCH   1  21
ATOM     20  C   UNL     1       1.838   7.323  20.542  0.00  0.00    +0.000 C 
ATOM     21  C   UNL     1       2.730   6.100  20.415  0.00  0.00    +0.000 C 
ENDBRANCH   1  21
TORSDOF 2
ENDMDL
MODEL 2
REMARK VINA RESULT:      -7.0      1.504      5.147
REMARK  Name = 
REMARK  3 active torsions:
REMARK  status: ('A' for Active; 'I' for Inactive)
REMARK    1  A    between atoms: C_1  and  C_2
REMARK    2  A    between atoms: C_2  and  N_3
REMARK    3  A    between atoms: C_12  and  C_14
REMARK                            x       y       z     vdW  Elec       q    Type
REMARK                         _______ _______ _______ _____ _____    ______ ____
ROOT
ATOM      1  N   UNL     1       3.426   3.984  17.091  0.00  0.00    +0.000 N 
ATOM      2  C   UNL     1       3.847   2.898  17.987  0.00  0.00    +0.000 C 
ATOM      3  C   UNL     1       3.302   3.055  19.395  0.00  0.00    +0.000 A 
ATOM      4  C   UNL     1       2.614   1.979  19.978  0.00  0.00    +0.000 A 
ATOM      5  C   UNL     1       1.871   2.163  21.142  0.00  0.00    +0.000 A 
ATOM      6  C   UNL     1       1.801   3.423  21.734  0.00  0.00    +0.000 A 
ATOM      7  C   UNL     1       2.522   4.492  21.197  0.00  0.00    +0.000 A 
ATOM      8  C   UNL     1       3.312   4.306  20.057  0.00  0.00    +0.000 A 
ATOM      9  N   UNL     1       4.019   5.420  19.499  0.00  0.00    +0.000 N 
ATOM     10  C   UNL     1       5.426   5.349  19.436  0.00  0.00    +0.000 C 
ATOM     11  O   UNL     1       6.048   4.397  19.927  0.00  0.00    +0.000 OA
ATOM     12  C   UNL     1       3.190   6.468  18.888  0.00  0.00    +0.000 C 
ATOM     13  C   UNL     1       2.319   6.086  17.668  0.00  0.00    +0.000 C 
ATOM     14  C   UNL     1       2.213   4.610  17.340  0.00  0.00    +0.000 C 
ATOM     15  O   UNL     1       1.152   4.004  17.420  0.00  0.00    +0.000 OA
ENDROOT
BRANCH  10  16
ATOM     16  C   UNL     1       6.185   6.498  18.714  0.00  0.00    +0.000 C 
ATOM     17  C   UNL     1       7.716   6.351  18.487  0.00  0.00    +0.000 C 
ATOM     18  C   UNL     1       7.527   7.030  17.119  0.00  0.00    +0.000 C 
ATOM     19  C   UNL     1       6.068   6.549  17.156  0.00  0.00    +0.000 C 
ENDBRANCH  10  16
BRANCH   1  21
ATOM     20  C   UNL     1       5.584   3.604  15.931  0.00  0.00    +0.000 C 
ATOM     21  C   UNL     1       4.316   4.434  16.034  0.00  0.00    +0.000 C 
ENDBRANCH   1  21
TORSDOF 2
ENDMDL
MODEL 3
REMARK VINA RESULT:      -7.0      1.417      4.203
REMARK  Name = 
REMARK  3 active torsions:
REMARK  status: ('A' for Active; 'I' for Inactive)
REMARK    1  A    between atoms: C_1  and  C_2
REMARK    2  A    between atoms: C_2  and  N_3
REMARK    3  A    between atoms: C_12  and  C_14
REMARK                            x       y       z     vdW  Elec       q    Type
REMARK                         _______ _______ _______ _____ _____    ______ ____
ROOT
ATOM      1  N   UNL     1       2.992   3.737  17.813  0.00  0.00    +0.000 N 
ATOM      2  C   UNL     1       3.883   4.116  16.707  0.00  0.00    +0.000 C 
ATOM      3  C   UNL     1       5.204   4.688  17.188  0.00  0.00    +0.000 A 
ATOM      4  C   UNL     1       6.398   4.139  16.694  0.00  0.00    +0.000 A 
ATOM      5  C   UNL     1       7.617   4.440  17.298  0.00  0.00    +0.000 A 
ATOM      6  C   UNL     1       7.658   5.286  18.404  0.00  0.00    +0.000 A 
ATOM      7  C   UNL     1       6.485   5.882  18.875  0.00  0.00    +0.000 A 
ATOM      8  C   UNL     1       5.263   5.627  18.244  0.00  0.00    +0.000 A 
ATOM      9  N   UNL     1       4.066   6.220  18.760  0.00  0.00    +0.000 N 
ATOM     10  C   UNL     1       3.339   7.088  17.919  0.00  0.00    +0.000 C 
ATOM     11  O   UNL     1       3.762   7.407  16.800  0.00  0.00    +0.000 OA
ATOM     12  C   UNL     1       3.616   5.730  20.071  0.00  0.00    +0.000 C 
ATOM     13  C   UNL     1       3.231   4.237  20.195  0.00  0.00    +0.000 C 
ATOM     14  C   UNL     1       3.565   3.346  19.015  0.00  0.00    +0.000 C 
ATOM     15  O   UNL     1       4.378   2.434  19.101  0.00  0.00    +0.000 OA
ENDROOT
BRANCH  10  16
ATOM     16  C   UNL     1       1.974   7.629  18.429  0.00  0.00    +0.000 C 
ATOM     17  C   UNL     1       1.913   8.286  19.837  0.00  0.00    +0.000 C 
ATOM     18  C   UNL     1       0.912   9.305  19.262  0.00  0.00    +0.000 C 
ATOM     19  C   UNL     1       1.518   9.019  17.879  0.00  0.00    +0.000 C 
ENDBRANCH  10  16
BRANCH   1  21
ATOM     20  C   UNL     1       0.774   2.831  18.451  0.00  0.00    +0.000 C 
ATOM     21  C   UNL     1       1.553   3.867  17.658  0.00  0.00    +0.000 C 
ENDBRANCH   1  21
TORSDOF 2
ENDMDL
MODEL 4
REMARK VINA RESULT:      -6.9      7.180      9.357
REMARK  Name = 
REMARK  3 active torsions:
REMARK  status: ('A' for Active; 'I' for Inactive)
REMARK    1  A    between atoms: C_1  and  C_2
REMARK    2  A    between atoms: C_2  and  N_3
REMARK    3  A    between atoms: C_12  and  C_14
REMARK                            x       y       z     vdW  Elec       q    Type
REMARK                         _______ _______ _______ _____ _____    ______ ____
ROOT
ATOM      1  N   UNL     1      -0.001  13.107  19.681  0.00  0.00    +0.000 N 
ATOM      2  C   UNL     1      -1.051  12.880  20.684  0.00  0.00    +0.000 C 
ATOM      3  C   UNL     1      -0.979  11.496  21.305  0.00  0.00    +0.000 A 
ATOM      4  C   UNL     1      -0.953  11.383  22.704  0.00  0.00    +0.000 A 
ATOM      5  C   UNL     1      -0.618  10.174  23.309  0.00  0.00    +0.000 A 
ATOM      6  C   UNL     1      -0.302   9.066  22.526  0.00  0.00    +0.000 A 
ATOM      7  C   UNL     1      -0.374   9.147  21.133  0.00  0.00    +0.000 A 
ATOM      8  C   UNL     1      -0.758  10.343  20.517  0.00  0.00    +0.000 A 
ATOM      9  N   UNL     1      -0.796  10.418  19.087  0.00  0.00    +0.000 N 
ATOM     10  C   UNL     1      -2.031  10.705  18.469  0.00  0.00    +0.000 C 
ATOM     11  O   UNL     1      -3.075  10.799  19.127  0.00  0.00    +0.000 OA
ATOM     12  C   UNL     1       0.504  10.356  18.404  0.00  0.00    +0.000 C 
ATOM     13  C   UNL     1       1.529  11.479  18.688  0.00  0.00    +0.000 C 
ATOM     14  C   UNL     1       1.202  12.430  19.822  0.00  0.00    +0.000 C 
ATOM     15  O   UNL     1       1.887  12.490  20.835  0.00  0.00    +0.000 OA
ENDROOT
BRANCH  10  16
ATOM     16  C   UNL     1      -2.048  10.915  16.929  0.00  0.00    +0.000 C 
ATOM     17  C   UNL     1      -2.233   9.675  16.010  0.00  0.00    +0.000 C 
ATOM     18  C   UNL     1      -3.095  10.553  15.085  0.00  0.00    +0.000 C 
ATOM     19  C   UNL     1      -3.380  11.443  16.306  0.00  0.00    +0.000 C 
ENDBRANCH  10  16
BRANCH   1  21
ATOM     20  C   UNL     1      -0.076  15.430  18.817  0.00  0.00    +0.000 C 
ATOM     21  C   UNL     1      -0.273  13.951  18.529  0.00  0.00    +0.000 C 
ENDBRANCH   1  21
TORSDOF 2
ENDMDL
MODEL 5
REMARK VINA RESULT:      -6.9      2.502      5.255
REMARK  Name = 
REMARK  3 active torsions:
REMARK  status: ('A' for Active; 'I' for Inactive)
REMARK    1  A    between atoms: C_1  and  C_2
REMARK    2  A    between atoms: C_2  and  N_3
REMARK    3  A    between atoms: C_12  and  C_14
REMARK                            x       y       z     vdW  Elec       q    Type
REMARK                         _______ _______ _______ _____ _____    ______ ____
ROOT
ATOM      1  N   UNL     1       4.903   4.409  17.751  0.00  0.00    +0.000 N 
ATOM      2  C   UNL     1       6.299   4.155  18.134  0.00  0.00    +0.000 C 
ATOM      3  C   UNL     1       7.142   5.417  18.148  0.00  0.00    +0.000 A 
ATOM      4  C   UNL     1       7.886   5.720  19.299  0.00  0.00    +0.000 A 
ATOM      5  C   UNL     1       8.452   6.983  19.463  0.00  0.00    +0.000 A 
ATOM      6  C   UNL     1       8.277   7.958  18.482  0.00  0.00    +0.000 A 
ATOM      7  C   UNL     1       7.585   7.656  17.307  0.00  0.00    +0.000 A 
ATOM      8  C   UNL     1       7.056   6.375  17.111  0.00  0.00    +0.000 A 
ATOM      9  N   UNL     1       6.321   6.092  15.915  0.00  0.00    +0.000 N 
ATOM     10  C   UNL     1       6.812   5.085  15.057  0.00  0.00    +0.000 C 
ATOM     11  O   UNL     1       7.892   4.522  15.274  0.00  0.00    +0.000 OA
ATOM     12  C   UNL     1       5.023   6.767  15.781  0.00  0.00    +0.000 C 
ATOM     13  C   UNL     1       3.929   6.454  16.829  0.00  0.00    +0.000 C 
ATOM     14  C   UNL     1       4.357   5.651  18.042  0.00  0.00    +0.000 C 
ATOM     15  O   UNL     1       4.336   6.124  19.171  0.00  0.00    +0.000 OA
ENDROOT
BRANCH  10  16
ATOM     16  C   UNL     1       5.947   4.687  13.827  0.00  0.00    +0.000 C 
ATOM     17  C   UNL     1       6.668   4.330  12.496  0.00  0.00    +0.000 C 
ATOM     18  C   UNL     1       5.606   3.237  12.275  0.00  0.00    +0.000 C 
ATOM     19  C   UNL     1       5.398   3.224  13.798  0.00  0.00    +0.000 C 
ENDBRANCH  10  16
BRANCH   1  21
ATOM     20  C   UNL     1       2.839   3.038  17.653  0.00  0.00    +0.000 C 
ATOM     21  C   UNL     1       4.164   3.404  17.006  0.00  0.00    +0.000 C 
ENDBRANCH   1  21
TORSDOF 2
ENDMDL
MODEL 6
REMARK VINA RESULT:      -6.7      1.685      5.174
REMARK  Name = 
REMARK  3 active torsions:
REMARK  status: ('A' for Active; 'I' for Inactive)
REMARK    1  A    between atoms: C_1  and  C_2
REMARK    2  A    between atoms: C_2  and  N_3
REMARK    3  A    between atoms: C_12  and  C_14
REMARK                            x       y       z     vdW  Elec       q    Type
REMARK                         _______ _______ _______ _____ _____    ______ ____
ROOT
ATOM      1  N   UNL     1       4.326   3.972  17.891  0.00  0.00    +0.000 N 
ATOM      2  C   UNL     1       4.613   4.066  19.329  0.00  0.00    +0.000 C 
ATOM      3  C   UNL     1       3.442   3.629  20.190  0.00  0.00    +0.000 A 
ATOM      4  C   UNL     1       3.657   2.663  21.185  0.00  0.00    +0.000 A 
ATOM      5  C   UNL     1       2.580   2.039  21.810  0.00  0.00    +0.000 A 
ATOM      6  C   UNL     1       1.276   2.369  21.447  0.00  0.00    +0.000 A 
ATOM      7  C   UNL     1       1.043   3.366  20.497  0.00  0.00    +0.000 A 
ATOM      8  C   UNL     1       2.118   4.034  19.900  0.00  0.00    +0.000 A 
ATOM      9  N   UNL     1       1.863   5.031  18.904  0.00  0.00    +0.000 N 
ATOM     10  C   UNL     1       2.299   6.349  19.156  0.00  0.00    +0.000 C 
ATOM     11  O   UNL     1       2.805   6.665  20.241  0.00  0.00    +0.000 OA
ATOM     12  C   UNL     1       1.316   4.545  17.629  0.00  0.00    +0.000 C 
ATOM     13  C   UNL     1       2.178   3.569  16.794  0.00  0.00    +0.000 C 
ATOM     14  C   UNL     1       3.419   3.013  17.462  0.00  0.00    +0.000 C 
ATOM     15  O   UNL     1       3.541   1.820  17.713  0.00  0.00    +0.000 OA
ENDROOT
BRANCH  10  16
ATOM     16  C   UNL     1       2.139   7.402  18.024  0.00  0.00    +0.000 C 
ATOM     17  C   UNL     1       1.459   8.760  18.360  0.00  0.00    +0.000 C 
ATOM     18  C   UNL     1       2.468   9.440  17.416  0.00  0.00    +0.000 C 
ATOM     19  C   UNL     1       3.404   8.247  17.665  0.00  0.00    +0.000 C 
ENDBRANCH  10  16
BRANCH   1  21
ATOM     20  C   UNL     1       5.681   4.273  15.837  0.00  0.00    +0.000 C 
ATOM     21  C   UNL     1       4.917   4.931  16.972  0.00  0.00    +0.000 C 
ENDBRANCH   1  21
TORSDOF 2
ENDMDL
MODEL 7
REMARK VINA RESULT:      -6.6      1.372      3.692
REMARK  Name = 
REMARK  3 active torsions:
REMARK  status: ('A' for Active; 'I' for Inactive)
REMARK    1  A    between atoms: C_1  and  C_2
REMARK    2  A    between atoms: C_2  and  N_3
REMARK    3  A    between atoms: C_12  and  C_14
REMARK                            x       y       z     vdW  Elec       q    Type
REMARK                         _______ _______ _______ _____ _____    ______ ____
ROOT
ATOM      1  N   UNL     1       2.615   3.192  17.895  0.00  0.00    +0.000 N 
ATOM      2  C   UNL     1       2.945   3.969  16.692  0.00  0.00    +0.000 C 
ATOM      3  C   UNL     1       4.421   4.310  16.601  0.00  0.00    +0.000 A 
ATOM      4  C   UNL     1       5.116   3.995  15.422  0.00  0.00    +0.000 A 
ATOM      5  C   UNL     1       6.509   4.038  15.390  0.00  0.00    +0.000 A 
ATOM      6  C   UNL     1       7.222   4.390  16.534  0.00  0.00    +0.000 A 
ATOM      7  C   UNL     1       6.545   4.757  17.699  0.00  0.00    +0.000 A 
ATOM      8  C   UNL     1       5.146   4.766  17.726  0.00  0.00    +0.000 A 
ATOM      9  N   UNL     1       4.467   5.114  18.939  0.00  0.00    +0.000 N 
ATOM     10  C   UNL     1       3.618   6.240  18.925  0.00  0.00    +0.000 C 
ATOM     11  O   UNL     1       3.526   6.968  17.928  0.00  0.00    +0.000 OA
ATOM     12  C   UNL     1       4.592   4.154  20.045  0.00  0.00    +0.000 C 
ATOM     13  C   UNL     1       4.025   2.730  19.838  0.00  0.00    +0.000 C 
ATOM     14  C   UNL     1       3.592   2.365  18.432  0.00  0.00    +0.000 C 
ATOM     15  O   UNL     1       4.156   1.491  17.787  0.00  0.00    +0.000 OA
ENDROOT
BRANCH  10  16
ATOM     16  C   UNL     1       2.782   6.542  20.200  0.00  0.00    +0.000 C 
ATOM     17  C   UNL     1       1.884   7.811  20.218  0.00  0.00    +0.000 C 
ATOM     18  C   UNL     1       0.836   6.996  20.997  0.00  0.00    +0.000 C 
ATOM     19  C   UNL     1       1.457   5.732  20.380  0.00  0.00    +0.000 C 
ENDBRANCH  10  16
BRANCH   1  21
ATOM     20  C   UNL     1       0.633   2.059  18.859  0.00  0.00    +0.000 C 
ATOM     21  C   UNL     1       1.325   3.372  18.540  0.00  0.00    +0.000 C 
ENDBRANCH   1  21
TORSDOF 2
ENDMDL
MODEL 8
REMARK VINA RESULT:      -6.6      1.763      4.973
REMARK  Name = 
REMARK  3 active torsions:
REMARK  status: ('A' for Active; 'I' for Inactive)
REMARK    1  A    between atoms: C_1  and  C_2
REMARK    2  A    between atoms: C_2  and  N_3
REMARK    3  A    between atoms: C_12  and  C_14
REMARK                            x       y       z     vdW  Elec       q    Type
REMARK                         _______ _______ _______ _____ _____    ______ ____
ROOT
ATOM      1  N   UNL     1       2.806   6.215  18.387  0.00  0.00    +0.000 N 
ATOM      2  C   UNL     1       1.818   5.332  17.751  0.00  0.00    +0.000 C 
ATOM      3  C   UNL     1       1.962   3.884  18.184  0.00  0.00    +0.000 A 
ATOM      4  C   UNL     1       0.831   3.209  18.671  0.00  0.00    +0.000 A 
ATOM      5  C   UNL     1       0.966   1.986  19.325  0.00  0.00    +0.000 A 
ATOM      6  C   UNL     1       2.229   1.426  19.505  0.00  0.00    +0.000 A 
ATOM      7  C   UNL     1       3.358   2.058  18.980  0.00  0.00    +0.000 A 
ATOM      8  C   UNL     1       3.229   3.261  18.277  0.00  0.00    +0.000 A 
ATOM      9  N   UNL     1       4.400   3.913  17.773  0.00  0.00    +0.000 N 
ATOM     10  C   UNL     1       4.505   4.107  16.380  0.00  0.00    +0.000 C 
ATOM     11  O   UNL     1       3.661   3.649  15.599  0.00  0.00    +0.000 OA
ATOM     12  C   UNL     1       5.310   4.474  18.783  0.00  0.00    +0.000 C 
ATOM     13  C   UNL     1       4.773   5.595  19.702  0.00  0.00    +0.000 C 
ATOM     14  C   UNL     1       3.283   5.870  19.644  0.00  0.00    +0.000 C 
ATOM     15  O   UNL     1       2.551   5.675  20.606  0.00  0.00    +0.000 OA
ENDROOT
BRANCH  10  16
ATOM     16  C   UNL     1       5.712   4.928  15.844  0.00  0.00    +0.000 C 
ATOM     17  C   UNL     1       7.113   4.255  15.808  0.00  0.00    +0.000 C 
ATOM     18  C   UNL     1       7.372   4.984  14.477  0.00  0.00    +0.000 C 
ATOM     19  C   UNL     1       5.847   5.048  14.292  0.00  0.00    +0.000 C 
ENDBRANCH  10  16
BRANCH   1  21
ATOM     20  C   UNL     1       2.431   8.586  17.771  0.00  0.00    +0.000 C 
ATOM     21  C   UNL     1       3.323   7.362  17.661  0.00  0.00    +0.000 C 
ENDBRANCH   1  21
TORSDOF 2
ENDMDL
MODEL 9
REMARK VINA RESULT:      -6.5      5.909      8.697
REMARK  Name = 
REMARK  3 active torsions:
REMARK  status: ('A' for Active; 'I' for Inactive)
REMARK    1  A    between atoms: C_1  and  C_2
REMARK    2  A    between atoms: C_2  and  N_3
REMARK    3  A    between atoms: C_12  and  C_14
REMARK                            x       y       z     vdW  Elec       q    Type
REMARK                         _______ _______ _______ _____ _____    ______ ____
ROOT
ATOM      1  N   UNL     1      -0.765  11.558  21.148  0.00  0.00    +0.000 N 
ATOM      2  C   UNL     1      -0.759  10.089  21.097  0.00  0.00    +0.000 C 
ATOM      3  C   UNL     1       0.129   9.544  19.994  0.00  0.00    +0.000 A 
ATOM      4  C   UNL     1       1.098   8.582  20.320  0.00  0.00    +0.000 A 
ATOM      5  C   UNL     1       2.104   8.256  19.412  0.00  0.00    +0.000 A 
ATOM      6  C   UNL     1       2.156   8.889  18.172  0.00  0.00    +0.000 A 
ATOM      7  C   UNL     1       1.169   9.809  17.811  0.00  0.00    +0.000 A 
ATOM      8  C   UNL     1       0.127  10.106  18.696  0.00  0.00    +0.000 A 
ATOM      9  N   UNL     1      -0.859  11.077  18.324  0.00  0.00    +0.000 N 
ATOM     10  C   UNL     1      -2.203  10.658  18.235  0.00  0.00    +0.000 C 
ATOM     11  O   UNL     1      -2.520   9.471  18.382  0.00  0.00    +0.000 OA
ATOM     12  C   UNL     1      -0.392  12.468  18.234  0.00  0.00    +0.000 C 
ATOM     13  C   UNL     1       0.148  13.137  19.520  0.00  0.00    +0.000 C 
ATOM     14  C   UNL     1       0.367  12.235  20.718  0.00  0.00    +0.000 C 
ATOM     15  O   UNL     1       1.483  12.031  21.179  0.00  0.00    +0.000 OA
ENDROOT
BRANCH  10  16
ATOM     16  C   UNL     1      -3.289  11.736  17.960  0.00  0.00    +0.000 C 
ATOM     17  C   UNL     1      -4.255  11.529  16.759  0.00  0.00    +0.000 C 
ATOM     18  C   UNL     1      -5.378  12.127  17.627  0.00  0.00    +0.000 C 
ATOM     19  C   UNL     1      -4.567  11.693  18.858  0.00  0.00    +0.000 C 
ENDBRANCH  10  16
BRANCH   1  21
ATOM     20  C   UNL     1      -2.287  12.096  23.029  0.00  0.00    +0.000 C 
ATOM     21  C   UNL     1      -1.970  12.262  21.553  0.00  0.00    +0.000 C 
ENDBRANCH   1  21
TORSDOF 2
ENDMDL
