MODEL 1
REMARK VINA RESULT:      -7.2      0.000      0.000
REMARK  Name = 
REMARK  4 active torsions:
REMARK  status: ('A' for Active; 'I' for Inactive)
REMARK    1  A    between atoms: N_3  and  C_4
REMARK    2  A    between atoms: C_4  and  C_5
REMARK    3  A    between atoms: C_5  and  N_6
REMARK    4  A    between atoms: N_6  and  C_7
REMARK                            x       y       z     vdW  Elec       q    Type
REMARK                         _______ _______ _______ _____ _____    ______ ____
ROOT
ATOM      1  O   UNL     1       4.332   2.304  20.679  0.00  0.00    +0.000 OA
ATOM      2  C   UNL     1       4.664   2.847  19.627  0.00  0.00    +0.000 C 
ATOM      3  N   UNL     1       4.159   2.500  18.418  0.00  0.00    +0.000 N 
ATOM      4  N   UNL     1       5.564   3.867  19.664  0.00  0.00    +0.000 N 
ATOM      5  C   UNL     1       6.025   4.667  18.614  0.00  0.00    +0.000 A 
ATOM      6  C   UNL     1       6.927   5.678  18.905  0.00  0.00    +0.000 A 
ATOM      7  C   UNL     1       7.368   6.502  17.874  0.00  0.00    +0.000 A 
ATOM      8  C   UNL     1       6.886   6.271  16.602  0.00  0.00    +0.000 A 
ATOM      9  N   UNL     1       6.022   5.276  16.332  0.00  0.00    +0.000 NA
ATOM     10  N   UNL     1       5.595   4.469  17.349  0.00  0.00    +0.000 NA
ATOM     11  H   UNL     1       4.598   2.905  17.596  0.00  0.00    +0.000 HD
ATOM     12  H   UNL     1       5.887   4.070  20.598  0.00  0.00    +0.000 HD
ENDROOT
BRANCH   3  13
ATOM     13  C   UNL     1       3.187   1.440  18.228  0.00  0.00    +0.000 C 
BRANCH  13  14
ATOM     14  C   UNL     1       1.803   1.766  18.815  0.00  0.00    +0.000 C 
BRANCH  14  15
ATOM     15  N   UNL     1       1.259   2.987  18.217  0.00  0.00    +0.000 N 
ATOM     16  H   UNL     1       0.277   2.910  17.957  0.00  0.00    +0.000 HD
BRANCH  15  17
ATOM     17  C   UNL     1       1.526   4.220  18.830  0.00  0.00    +0.000 A 
ATOM     18  C   UNL     1       1.331   4.465  20.196  0.00  0.00    +0.000 A 
ATOM     19  C   UNL     1       1.689   5.688  20.775  0.00  0.00    +0.000 A 
ATOM     20  C   UNL     1       2.283   6.679  20.000  0.00  0.00    +0.000 A 
ATOM     21  C   UNL     1       2.513   6.439  18.649  0.00  0.00    +0.000 A 
ATOM     22 BR   UNL     1       3.344   7.769  17.592  0.00  0.00    +0.000 Br
ATOM     23  C   UNL     1       2.147   5.221  18.070  0.00  0.00    +0.000 A 
ENDBRANCH  15  17
ENDBRANCH  14  15
ENDBRANCH  13  14
ENDBRANCH   3  13
TORSDOF 4
ENDMDL
MODEL 2
REMARK VINA RESULT:      -7.1      2.317      3.132
REMARK  Name = 
REMARK  4 active torsions:
REMARK  status: ('A' for Active; 'I' for Inactive)
REMARK    1  A    between atoms: N_3  and  C_4
REMARK    2  A    between atoms: C_4  and  C_5
REMARK    3  A    between atoms: C_5  and  N_6
REMARK    4  A    between atoms: N_6  and  C_7
REMARK                            x       y       z     vdW  Elec       q    Type
REMARK                         _______ _______ _______ _____ _____    ______ ____
ROOT
ATOM      1  O   UNL     1       3.026   1.633  18.066  0.00  0.00    +0.000 OA
ATOM      2  C   UNL     1       3.505   2.766  18.042  0.00  0.00    +0.000 C 
ATOM      3  N   UNL     1       3.063   3.779  18.826  0.00  0.00    +0.000 N 
ATOM      4  N   UNL     1       4.549   3.025  17.207  0.00  0.00    +0.000 N 
ATOM      5  C   UNL     1       5.287   4.204  17.068  0.00  0.00    +0.000 A 
ATOM      6  C   UNL     1       6.339   4.218  16.166  0.00  0.00    +0.000 A 
ATOM      7  C   UNL     1       7.102   5.375  16.042  0.00  0.00    +0.000 A 
ATOM      8  C   UNL     1       6.772   6.462  16.826  0.00  0.00    +0.000 A 
ATOM      9  N   UNL     1       5.738   6.438  17.686  0.00  0.00    +0.000 NA
ATOM     10  N   UNL     1       4.992   5.299  17.801  0.00  0.00    +0.000 NA
ATOM     11  H   UNL     1       3.423   4.709  18.632  0.00  0.00    +0.000 HD
ATOM     12  H   UNL     1       4.823   2.221  16.663  0.00  0.00    +0.000 HD
ENDROOT
BRANCH   3  13
ATOM     13  C   UNL     1       1.967   3.647  19.768  0.00  0.00    +0.000 C 
BRANCH  13  14
ATOM     14  C   UNL     1       1.667   4.941  20.542  0.00  0.00    +0.000 C 
BRANCH  14  15
ATOM     15  N   UNL     1       2.669   5.967  20.250  0.00  0.00    +0.000 N 
ATOM     16  H   UNL     1       3.464   5.619  19.717  0.00  0.00    +0.000 HD
BRANCH  15  17
ATOM     17  C   UNL     1       2.244   7.214  19.770  0.00  0.00    +0.000 A 
ATOM     18  C   UNL     1       2.340   7.602  18.427  0.00  0.00    +0.000 A 
ATOM     19  C   UNL     1       1.827   8.826  17.984  0.00  0.00    +0.000 A 
ATOM     20  C   UNL     1       1.174   9.673  18.874  0.00  0.00    +0.000 A 
ATOM     21  C   UNL     1       1.041   9.287  20.204  0.00  0.00    +0.000 A 
ATOM     22 BR   UNL     1       0.131  10.416  21.418  0.00  0.00    +0.000 Br
ATOM     23  C   UNL     1       1.562   8.068  20.648  0.00  0.00    +0.000 A 
ENDBRANCH  15  17
ENDBRANCH  14  15
ENDBRANCH  13  14
ENDBRANCH   3  13
TORSDOF 4
ENDMDL
MODEL 3
REMARK VINA RESULT:      -7.1      2.460      4.512
REMARK  Name = 
REMARK  4 active torsions:
REMARK  status: ('A' for Active; 'I' for Inactive)
REMARK    1  A    between atoms: N_3  and  C_4
REMARK    2  A    between atoms: C_4  and  C_5
REMARK    3  A    between atoms: C_5  and  N_6
REMARK    4  A    between atoms: N_6  and  C_7
REMARK                            x       y       z     vdW  Elec       q    Type
REMARK                         _______ _______ _______ _____ _____    ______ ____
ROOT
ATOM      1  O   UNL     1       2.102   3.408  22.038  0.00  0.00    +0.000 OA
ATOM      2  C   UNL     1       2.266   4.130  21.055  0.00  0.00    +0.000 C 
ATOM      3  N   UNL     1       2.670   3.664  19.848  0.00  0.00    +0.000 N 
ATOM      4  N   UNL     1       2.008   5.462  21.162  0.00  0.00    +0.000 N 
ATOM      5  C   UNL     1       2.054   6.445  20.170  0.00  0.00    +0.000 A 
ATOM      6  C   UNL     1       1.713   7.743  20.515  0.00  0.00    +0.000 A 
ATOM      7  C   UNL     1       1.722   8.726  19.529  0.00  0.00    +0.000 A 
ATOM      8  C   UNL     1       2.076   8.359  18.247  0.00  0.00    +0.000 A 
ATOM      9  N   UNL     1       2.420   7.097  17.930  0.00  0.00    +0.000 NA
ATOM     10  N   UNL     1       2.410   6.139  18.904  0.00  0.00    +0.000 NA
ATOM     11  H   UNL     1       2.914   4.353  19.142  0.00  0.00    +0.000 HD
ATOM     12  H   UNL     1       1.706   5.728  22.088  0.00  0.00    +0.000 HD
ENDROOT
BRANCH   3  13
ATOM     13  C   UNL     1       2.971   2.270  19.585  0.00  0.00    +0.000 C 
BRANCH  13  14
ATOM     14  C   UNL     1       3.622   2.034  18.211  0.00  0.00    +0.000 C 
BRANCH  14  15
ATOM     15  N   UNL     1       3.541   3.239  17.383  0.00  0.00    +0.000 N 
ATOM     16  H   UNL     1       2.848   3.910  17.708  0.00  0.00    +0.000 HD
BRANCH  15  17
ATOM     17  C   UNL     1       4.728   3.880  17.000  0.00  0.00    +0.000 A 
ATOM     18  C   UNL     1       5.077   4.135  15.667  0.00  0.00    +0.000 A 
ATOM     19  C   UNL     1       6.235   4.850  15.342  0.00  0.00    +0.000 A 
ATOM     20  C   UNL     1       7.050   5.355  16.349  0.00  0.00    +0.000 A 
ATOM     21  C   UNL     1       6.700   5.139  17.679  0.00  0.00    +0.000 A 
ATOM     22 BR   UNL     1       7.785   5.844  19.058  0.00  0.00    +0.000 Br
ATOM     23  C   UNL     1       5.548   4.417  18.003  0.00  0.00    +0.000 A 
ENDBRANCH  15  17
ENDBRANCH  14  15
ENDBRANCH  13  14
ENDBRANCH   3  13
TORSDOF 4
ENDMDL
MODEL 4
REMARK VINA RESULT:      -7.0      2.219      2.888
REMARK  Name = 
REMARK  4 active torsions:
REMARK  status: ('A' for Active; 'I' for Inactive)
REMARK    1  A    between atoms: N_3  and  C_4
REMARK    2  A    between atoms: C_4  and  C_5
REMARK    3  A    between atoms: C_5  and  N_6
REMARK    4  A    between atoms: N_6  and  C_7
REMARK                            x       y       z     vdW  Elec       q    Type
REMARK                         _______ _______ _______ _____ _____    ______ ____
ROOT
ATOM      1  O   UNL     1       4.563   2.172  20.393  0.00  0.00    +0.000 OA
ATOM      2  C   UNL     1       4.540   3.186  19.697  0.00  0.00    +0.000 C 
ATOM      3  N   UNL     1       3.419   3.915  19.479  0.00  0.00    +0.000 N 
ATOM      4  N   UNL     1       5.697   3.626  19.131  0.00  0.00    +0.000 N 
ATOM      5  C   UNL     1       5.918   4.779  18.373  0.00  0.00    +0.000 A 
ATOM      6  C   UNL     1       7.205   5.036  17.926  0.00  0.00    +0.000 A 
ATOM      7  C   UNL     1       7.445   6.198  17.199  0.00  0.00    +0.000 A 
ATOM      8  C   UNL     1       6.382   7.043  16.951  0.00  0.00    +0.000 A 
ATOM      9  N   UNL     1       5.135   6.773  17.377  0.00  0.00    +0.000 NA
ATOM     10  N   UNL     1       4.908   5.629  18.090  0.00  0.00    +0.000 NA
ATOM     11  H   UNL     1       3.470   4.649  18.778  0.00  0.00    +0.000 HD
ATOM     12  H   UNL     1       6.487   3.035  19.345  0.00  0.00    +0.000 HD
ENDROOT
BRANCH   3  13
ATOM     13  C   UNL     1       2.119   3.573  20.025  0.00  0.00    +0.000 C 
BRANCH  13  14
ATOM     14  C   UNL     1       1.337   4.788  20.550  0.00  0.00    +0.000 C 
BRANCH  14  15
ATOM     15  N   UNL     1       2.237   5.913  20.812  0.00  0.00    +0.000 N 
ATOM     16  H   UNL     1       3.222   5.679  20.706  0.00  0.00    +0.000 HD
BRANCH  15  17
ATOM     17  C   UNL     1       1.947   7.161  20.241  0.00  0.00    +0.000 A 
ATOM     18  C   UNL     1       2.196   7.476  18.898  0.00  0.00    +0.000 A 
ATOM     19  C   UNL     1       1.814   8.708  18.356  0.00  0.00    +0.000 A 
ATOM     20  C   UNL     1       1.144   9.639  19.143  0.00  0.00    +0.000 A 
ATOM     21  C   UNL     1       0.860   9.329  20.469  0.00  0.00    +0.000 A 
ATOM     22 BR   UNL     1      -0.075  10.574  21.541  0.00  0.00    +0.000 Br
ATOM     23  C   UNL     1       1.249   8.101  21.012  0.00  0.00    +0.000 A 
ENDBRANCH  15  17
ENDBRANCH  14  15
ENDBRANCH  13  14
ENDBRANCH   3  13
TORSDOF 4
ENDMDL
MODEL 5
REMARK VINA RESULT:      -7.0      2.315      4.394
REMARK  Name = 
REMARK  4 active torsions:
REMARK  status: ('A' for Active; 'I' for Inactive)
REMARK    1  A    between atoms: N_3  and  C_4
REMARK    2  A    between atoms: C_4  and  C_5
REMARK    3  A    between atoms: C_5  and  N_6
REMARK    4  A    between atoms: N_6  and  C_7
REMARK                            x       y       z     vdW  Elec       q    Type
REMARK                         _______ _______ _______ _____ _____    ______ ____
ROOT
ATOM      1  O   UNL     1       2.089   3.522  22.124  0.00  0.00    +0.000 OA
ATOM      2  C   UNL     1       2.315   4.223  21.139  0.00  0.00    +0.000 C 
ATOM      3  N   UNL     1       2.861   3.746  19.994  0.00  0.00    +0.000 N 
ATOM      4  N   UNL     1       1.982   5.542  21.176  0.00  0.00    +0.000 N 
ATOM      5  C   UNL     1       2.079   6.498  20.161  0.00  0.00    +0.000 A 
ATOM      6  C   UNL     1       1.641   7.786  20.427  0.00  0.00    +0.000 A 
ATOM      7  C   UNL     1       1.701   8.739  19.414  0.00  0.00    +0.000 A 
ATOM      8  C   UNL     1       2.201   8.356  18.186  0.00  0.00    +0.000 A 
ATOM      9  N   UNL     1       2.637   7.105  17.947  0.00  0.00    +0.000 NA
ATOM     10  N   UNL     1       2.576   6.176  18.947  0.00  0.00    +0.000 NA
ATOM     11  H   UNL     1       3.141   4.426  19.293  0.00  0.00    +0.000 HD
ATOM     12  H   UNL     1       1.575   5.819  22.057  0.00  0.00    +0.000 HD
ENDROOT
BRANCH   3  13
ATOM     13  C   UNL     1       3.256   2.362  19.809  0.00  0.00    +0.000 C 
BRANCH  13  14
ATOM     14  C   UNL     1       4.479   2.194  18.891  0.00  0.00    +0.000 C 
BRANCH  14  15
ATOM     15  N   UNL     1       5.425   3.295  19.075  0.00  0.00    +0.000 N 
ATOM     16  H   UNL     1       6.325   3.000  19.450  0.00  0.00    +0.000 HD
BRANCH  15  17
ATOM     17  C   UNL     1       5.587   4.231  18.043  0.00  0.00    +0.000 A 
ATOM     18  C   UNL     1       4.874   4.188  16.838  0.00  0.00    +0.000 A 
ATOM     19  C   UNL     1       5.013   5.191  15.873  0.00  0.00    +0.000 A 
ATOM     20  C   UNL     1       5.847   6.279  16.112  0.00  0.00    +0.000 A 
ATOM     21  C   UNL     1       6.537   6.353  17.318  0.00  0.00    +0.000 A 
ATOM     22 BR   UNL     1       7.652   7.840  17.667  0.00  0.00    +0.000 Br
ATOM     23  C   UNL     1       6.404   5.346  18.278  0.00  0.00    +0.000 A 
ENDBRANCH  15  17
ENDBRANCH  14  15
ENDBRANCH  13  14
ENDBRANCH   3  13
TORSDOF 4
ENDMDL
MODEL 6
REMARK VINA RESULT:      -6.9      4.102      5.539
REMARK  Name = 
REMARK  4 active torsions:
REMARK  status: ('A' for Active; 'I' for Inactive)
REMARK    1  A    between atoms: N_3  and  C_4
REMARK    2  A    between atoms: C_4  and  C_5
REMARK    3  A    between atoms: C_5  and  N_6
REMARK    4  A    between atoms: N_6  and  C_7
REMARK                            x       y       z     vdW  Elec       q    Type
REMARK                         _______ _______ _______ _____ _____    ______ ____
ROOT
ATOM      1  O   UNL     1       7.241   7.012  16.720  0.00  0.00    +0.000 OA
ATOM      2  C   UNL     1       7.768   7.699  17.593  0.00  0.00    +0.000 C 
ATOM      3  N   UNL     1       8.246   7.190  18.755  0.00  0.00    +0.000 N 
ATOM      4  N   UNL     1       7.910   9.037  17.387  0.00  0.00    +0.000 N 
ATOM      5  C   UNL     1       8.537   9.986  18.199  0.00  0.00    +0.000 A 
ATOM      6  C   UNL     1       8.586  11.299  17.757  0.00  0.00    +0.000 A 
ATOM      7  C   UNL     1       9.236  12.248  18.541  0.00  0.00    +0.000 A 
ATOM      8  C   UNL     1       9.801  11.836  19.730  0.00  0.00    +0.000 A 
ATOM      9  N   UNL     1       9.732  10.560  20.153  0.00  0.00    +0.000 NA
ATOM     10  N   UNL     1       9.091   9.635  19.379  0.00  0.00    +0.000 NA
ATOM     11  H   UNL     1       8.531   7.851  19.471  0.00  0.00    +0.000 HD
ATOM     12  H   UNL     1       7.538   9.337  16.498  0.00  0.00    +0.000 HD
ENDROOT
BRANCH   3  13
ATOM     13  C   UNL     1       8.172   5.784  19.106  0.00  0.00    +0.000 C 
BRANCH  13  14
ATOM     14  C   UNL     1       6.796   5.360  19.646  0.00  0.00    +0.000 C 
BRANCH  14  15
ATOM     15  N   UNL     1       6.060   4.584  18.646  0.00  0.00    +0.000 N 
ATOM     16  H   UNL     1       6.287   3.591  18.654  0.00  0.00    +0.000 HD
BRANCH  15  17
ATOM     17  C   UNL     1       4.679   4.788  18.509  0.00  0.00    +0.000 A 
ATOM     18  C   UNL     1       4.113   5.989  18.059  0.00  0.00    +0.000 A 
ATOM     19  C   UNL     1       2.734   6.115  17.864  0.00  0.00    +0.000 A 
ATOM     20  C   UNL     1       1.895   5.027  18.083  0.00  0.00    +0.000 A 
ATOM     21  C   UNL     1       2.445   3.818  18.497  0.00  0.00    +0.000 A 
ATOM     22 BR   UNL     1       1.319   2.324  18.772  0.00  0.00    +0.000 Br
ATOM     23  C   UNL     1       3.822   3.695  18.701  0.00  0.00    +0.000 A 
ENDBRANCH  15  17
ENDBRANCH  14  15
ENDBRANCH  13  14
ENDBRANCH   3  13
TORSDOF 4
ENDMDL
MODEL 7
REMARK VINA RESULT:      -6.9      4.146      5.666
REMARK  Name = 
REMARK  4 active torsions:
REMARK  status: ('A' for Active; 'I' for Inactive)
REMARK    1  A    between atoms: N_3  and  C_4
REMARK    2  A    between atoms: C_4  and  C_5
REMARK    3  A    between atoms: C_5  and  N_6
REMARK    4  A    between atoms: N_6  and  C_7
REMARK                            x       y       z     vdW  Elec       q    Type
REMARK                         _______ _______ _______ _____ _____    ______ ____
ROOT
ATOM      1  O   UNL     1       7.469   6.976  16.617  0.00  0.00    +0.000 OA
ATOM      2  C   UNL     1       7.879   7.663  17.552  0.00  0.00    +0.000 C 
ATOM      3  N   UNL     1       8.151   7.162  18.781  0.00  0.00    +0.000 N 
ATOM      4  N   UNL     1       8.099   8.991  17.350  0.00  0.00    +0.000 N 
ATOM      5  C   UNL     1       8.624   9.935  18.236  0.00  0.00    +0.000 A 
ATOM      6  C   UNL     1       8.788  11.237  17.788  0.00  0.00    +0.000 A 
ATOM      7  C   UNL     1       9.342  12.179  18.649  0.00  0.00    +0.000 A 
ATOM      8  C   UNL     1       9.701  11.773  19.918  0.00  0.00    +0.000 A 
ATOM      9  N   UNL     1       9.521  10.509  20.344  0.00  0.00    +0.000 NA
ATOM     10  N   UNL     1       8.976   9.590  19.493  0.00  0.00    +0.000 NA
ATOM     11  H   UNL     1       8.345   7.828  19.523  0.00  0.00    +0.000 HD
ATOM     12  H   UNL     1       7.879   9.285  16.410  0.00  0.00    +0.000 HD
ENDROOT
BRANCH   3  13
ATOM     13  C   UNL     1       7.974   5.766  19.137  0.00  0.00    +0.000 C 
BRANCH  13  14
ATOM     14  C   UNL     1       6.508   5.385  19.403  0.00  0.00    +0.000 C 
BRANCH  14  15
ATOM     15  N   UNL     1       5.896   4.803  18.207  0.00  0.00    +0.000 N 
ATOM     16  H   UNL     1       6.553   4.289  17.623  0.00  0.00    +0.000 HD
BRANCH  15  17
ATOM     17  C   UNL     1       4.682   4.113  18.332  0.00  0.00    +0.000 A 
ATOM     18  C   UNL     1       4.104   3.364  17.298  0.00  0.00    +0.000 A 
ATOM     19  C   UNL     1       2.932   2.628  17.499  0.00  0.00    +0.000 A 
ATOM     20  C   UNL     1       2.332   2.600  18.754  0.00  0.00    +0.000 A 
ATOM     21  C   UNL     1       2.911   3.311  19.800  0.00  0.00    +0.000 A 
ATOM     22 BR   UNL     1       2.121   3.258  21.518  0.00  0.00    +0.000 Br
ATOM     23  C   UNL     1       4.077   4.054  19.596  0.00  0.00    +0.000 A 
ENDBRANCH  15  17
ENDBRANCH  14  15
ENDBRANCH  13  14
ENDBRANCH   3  13
TORSDOF 4
ENDMDL
MODEL 8
REMARK VINA RESULT:      -6.8      3.950      5.390
REMARK  Name = 
REMARK  4 active torsions:
REMARK  status: ('A' for Active; 'I' for Inactive)
REMARK    1  A    between atoms: N_3  and  C_4
REMARK    2  A    between atoms: C_4  and  C_5
REMARK    3  A    between atoms: C_5  and  N_6
REMARK    4  A    between atoms: N_6  and  C_7
REMARK                            x       y       z     vdW  Elec       q    Type
REMARK                         _______ _______ _______ _____ _____    ______ ____
ROOT
ATOM      1  O   UNL     1       7.384   7.067  16.691  0.00  0.00    +0.000 OA
ATOM      2  C   UNL     1       7.857   7.753  17.595  0.00  0.00    +0.000 C 
ATOM      3  N   UNL     1       8.272   7.242  18.780  0.00  0.00    +0.000 N 
ATOM      4  N   UNL     1       8.002   9.093  17.402  0.00  0.00    +0.000 N 
ATOM      5  C   UNL     1       8.576  10.043  18.252  0.00  0.00    +0.000 A 
ATOM      6  C   UNL     1       8.642  11.358  17.819  0.00  0.00    +0.000 A 
ATOM      7  C   UNL     1       9.241  12.307  18.641  0.00  0.00    +0.000 A 
ATOM      8  C   UNL     1       9.742  11.893  19.859  0.00  0.00    +0.000 A 
ATOM      9  N   UNL     1       9.656  10.616  20.273  0.00  0.00    +0.000 NA
ATOM     10  N   UNL     1       9.066   9.690  19.460  0.00  0.00    +0.000 NA
ATOM     11  H   UNL     1       8.513   7.902  19.513  0.00  0.00    +0.000 HD
ATOM     12  H   UNL     1       7.678   9.395  16.495  0.00  0.00    +0.000 HD
ENDROOT
BRANCH   3  13
ATOM     13  C   UNL     1       8.187   5.835  19.121  0.00  0.00    +0.000 C 
BRANCH  13  14
ATOM     14  C   UNL     1       6.762   5.375  19.472  0.00  0.00    +0.000 C 
BRANCH  14  15
ATOM     15  N   UNL     1       6.114   4.757  18.313  0.00  0.00    +0.000 N 
ATOM     16  H   UNL     1       6.394   3.790  18.159  0.00  0.00    +0.000 HD
BRANCH  15  17
ATOM     17  C   UNL     1       4.732   4.919  18.142  0.00  0.00    +0.000 A 
ATOM     18  C   UNL     1       3.818   3.856  18.160  0.00  0.00    +0.000 A 
ATOM     19  C   UNL     1       2.440   4.078  18.065  0.00  0.00    +0.000 A 
ATOM     20  C   UNL     1       1.947   5.377  17.986  0.00  0.00    +0.000 A 
ATOM     21  C   UNL     1       2.838   6.444  18.001  0.00  0.00    +0.000 A 
ATOM     22 BR   UNL     1       2.179   8.215  17.920  0.00  0.00    +0.000 Br
ATOM     23  C   UNL     1       4.215   6.221  18.086  0.00  0.00    +0.000 A 
ENDBRANCH  15  17
ENDBRANCH  14  15
ENDBRANCH  13  14
ENDBRANCH   3  13
TORSDOF 4
ENDMDL
MODEL 9
REMARK VINA RESULT:      -6.8      4.292      7.300
REMARK  Name = 
REMARK  4 active torsions:
REMARK  status: ('A' for Active; 'I' for Inactive)
REMARK    1  A    between atoms: N_3  and  C_4
REMARK    2  A    between atoms: C_4  and  C_5
REMARK    3  A    between atoms: C_5  and  N_6
REMARK    4  A    between atoms: N_6  and  C_7
REMARK                            x       y       z     vdW  Elec       q    Type
REMARK                         _______ _______ _______ _____ _____    ______ ____
ROOT
ATOM      1  O   UNL     1       8.116   4.360  17.228  0.00  0.00    +0.000 OA
ATOM      2  C   UNL     1       7.130   4.837  17.787  0.00  0.00    +0.000 C 
ATOM      3  N   UNL     1       6.864   6.165  17.825  0.00  0.00    +0.000 N 
ATOM      4  N   UNL     1       6.237   3.998  18.382  0.00  0.00    +0.000 N 
ATOM      5  C   UNL     1       5.025   4.309  19.004  0.00  0.00    +0.000 A 
ATOM      6  C   UNL     1       4.262   3.270  19.513  0.00  0.00    +0.000 A 
ATOM      7  C   UNL     1       3.037   3.563  20.105  0.00  0.00    +0.000 A 
ATOM      8  C   UNL     1       2.639   4.883  20.162  0.00  0.00    +0.000 A 
ATOM      9  N   UNL     1       3.398   5.883  19.679  0.00  0.00    +0.000 NA
ATOM     10  N   UNL     1       4.600   5.587  19.099  0.00  0.00    +0.000 NA
ATOM     11  H   UNL     1       6.108   6.471  18.431  0.00  0.00    +0.000 HD
ATOM     12  H   UNL     1       6.501   3.027  18.304  0.00  0.00    +0.000 HD
ENDROOT
BRANCH   3  13
ATOM     13  C   UNL     1       7.720   7.173  17.228  0.00  0.00    +0.000 C 
BRANCH  13  14
ATOM     14  C   UNL     1       7.617   8.546  17.913  0.00  0.00    +0.000 C 
BRANCH  14  15
ATOM     15  N   UNL     1       8.781   8.790  18.767  0.00  0.00    +0.000 N 
ATOM     16  H   UNL     1       9.567   8.173  18.570  0.00  0.00    +0.000 HD
BRANCH  15  17
ATOM     17  C   UNL     1       9.211  10.110  18.968  0.00  0.00    +0.000 A 
ATOM     18  C   UNL     1       9.627  10.956  17.932  0.00  0.00    +0.000 A 
ATOM     19  C   UNL     1       9.970  12.291  18.175  0.00  0.00    +0.000 A 
ATOM     20  C   UNL     1       9.868  12.815  19.460  0.00  0.00    +0.000 A 
ATOM     21  C   UNL     1       9.424  11.997  20.494  0.00  0.00    +0.000 A 
ATOM     22 BR   UNL     1       9.256  12.704  22.240  0.00  0.00    +0.000 Br
ATOM     23  C   UNL     1       9.091  10.661  20.252  0.00  0.00    +0.000 A 
ENDBRANCH  15  17
ENDBRANCH  14  15
ENDBRANCH  13  14
ENDBRANCH   3  13
TORSDOF 4
ENDMDL
