MODEL 1
REMARK VINA RESULT:      -7.0      0.000      0.000
REMARK  Name = 
REMARK  3 active torsions:
REMARK  status: ('A' for Active; 'I' for Inactive)
REMARK    1  A    between atoms: N_1  and  C_2
REMARK    2  A    between atoms: C_3  and  C_4
REMARK    3  A    between atoms: C_7  and  N_8
REMARK                            x       y       z     vdW  Elec       q    Type
REMARK                         _______ _______ _______ _____ _____    ______ ____
ROOT
ATOM      1  C   UNL     1       6.880   4.455  16.747  0.00  0.00    +0.000 C 
ATOM      2  C   UNL     1       5.622   4.268  16.316  0.00  0.00    +0.000 C 
ATOM      3  C   UNL     1       5.781   4.416  14.865  0.00  0.00    +0.000 C 
ATOM      4  O   UNL     1       4.893   4.245  14.042  0.00  0.00    +0.000 OA
ATOM      5  C   UNL     1       7.180   4.824  14.541  0.00  0.00    +0.000 C 
ATOM      6  O   UNL     1       7.857   4.720  15.801  0.00  0.00    +0.000 OA
ENDROOT
BRANCH   2   7
ATOM      7  C   UNL     1       4.397   3.986  17.067  0.00  0.00    +0.000 A 
ATOM      8  C   UNL     1       3.595   5.039  17.535  0.00  0.00    +0.000 A 
ATOM      9  C   UNL     1       2.438   4.798  18.280  0.00  0.00    +0.000 A 
ATOM     10  C   UNL     1       2.054   3.480  18.543  0.00  0.00    +0.000 A 
ATOM     11  C   UNL     1       2.815   2.412  18.057  0.00  0.00    +0.000 A 
ATOM     12  C   UNL     1       3.980   2.669  17.322  0.00  0.00    +0.000 A 
BRANCH  10  13
ATOM     13  N   UNL     1       0.844   3.222  19.335  0.00  0.00    +0.000 N 
ATOM     14  O   UNL     1       0.115   2.284  18.982  0.00  0.00    +0.000 OA
ATOM     15  O   UNL     1       0.623   3.960  20.304  0.00  0.00    +0.000 OA
ENDBRANCH  10  13
ENDBRANCH   2   7
BRANCH   1  16
ATOM     16  N   UNL     1       7.351   4.383  18.028  0.00  0.00    +0.000 N 
ATOM     17  H   UNL     1       8.261   3.937  18.106  0.00  0.00    +0.000 HD
ATOM     18  H   UNL     1       7.324   5.292  18.483  0.00  0.00    +0.000 HD
ENDBRANCH   1  16
TORSDOF 3
ENDMDL
MODEL 2
REMARK VINA RESULT:      -7.0      0.070      1.438
REMARK  Name = 
REMARK  3 active torsions:
REMARK  status: ('A' for Active; 'I' for Inactive)
REMARK    1  A    between atoms: N_1  and  C_2
REMARK    2  A    between atoms: C_3  and  C_4
REMARK    3  A    between atoms: C_7  and  N_8
REMARK                            x       y       z     vdW  Elec       q    Type
REMARK                         _______ _______ _______ _____ _____    ______ ____
ROOT
ATOM      1  C   UNL     1       6.904   4.457  16.699  0.00  0.00    +0.000 C 
ATOM      2  C   UNL     1       5.636   4.284  16.294  0.00  0.00    +0.000 C 
ATOM      3  C   UNL     1       5.767   4.434  14.840  0.00  0.00    +0.000 C 
ATOM      4  O   UNL     1       4.860   4.274  14.035  0.00  0.00    +0.000 OA
ATOM      5  C   UNL     1       7.164   4.828  14.488  0.00  0.00    +0.000 C 
ATOM      6  O   UNL     1       7.865   4.713  15.733  0.00  0.00    +0.000 OA
ENDROOT
BRANCH   2   7
ATOM      7  C   UNL     1       4.424   4.014  17.069  0.00  0.00    +0.000 A 
ATOM      8  C   UNL     1       4.052   2.692  17.366  0.00  0.00    +0.000 A 
ATOM      9  C   UNL     1       2.884   2.406  18.078  0.00  0.00    +0.000 A 
ATOM     10  C   UNL     1       2.081   3.458  18.528  0.00  0.00    +0.000 A 
ATOM     11  C   UNL     1       2.447   4.785  18.277  0.00  0.00    +0.000 A 
ATOM     12  C   UNL     1       3.614   5.056  17.551  0.00  0.00    +0.000 A 
BRANCH  10  13
ATOM     13  N   UNL     1       0.846   3.162  19.266  0.00  0.00    +0.000 N 
ATOM     14  O   UNL     1       0.566   3.887  20.232  0.00  0.00    +0.000 OA
ATOM     15  O   UNL     1       0.163   2.203  18.884  0.00  0.00    +0.000 OA
ENDBRANCH  10  13
ENDBRANCH   2   7
BRANCH   1  16
ATOM     16  N   UNL     1       7.402   4.377  17.970  0.00  0.00    +0.000 N 
ATOM     17  H   UNL     1       6.880   3.749  18.576  0.00  0.00    +0.000 HD
ATOM     18  H   UNL     1       8.398   4.174  17.965  0.00  0.00    +0.000 HD
ENDBRANCH   1  16
TORSDOF 3
ENDMDL
MODEL 3
REMARK VINA RESULT:      -6.8      2.303      5.916
REMARK  Name = 
REMARK  3 active torsions:
REMARK  status: ('A' for Active; 'I' for Inactive)
REMARK    1  A    between atoms: N_1  and  C_2
REMARK    2  A    between atoms: C_3  and  C_4
REMARK    3  A    between atoms: C_7  and  N_8
REMARK                            x       y       z     vdW  Elec       q    Type
REMARK                         _______ _______ _______ _____ _____    ______ ____
ROOT
ATOM      1  C   UNL     1       4.136   2.810  19.982  0.00  0.00    +0.000 C 
ATOM      2  C   UNL     1       4.131   3.881  19.173  0.00  0.00    +0.000 C 
ATOM      3  C   UNL     1       3.149   4.748  19.836  0.00  0.00    +0.000 C 
ATOM      4  O   UNL     1       2.874   5.887  19.488  0.00  0.00    +0.000 OA
ATOM      5  C   UNL     1       2.522   4.028  20.984  0.00  0.00    +0.000 C 
ATOM      6  O   UNL     1       3.292   2.823  21.082  0.00  0.00    +0.000 OA
ENDROOT
BRANCH   2   7
ATOM      7  C   UNL     1       4.893   4.147  17.951  0.00  0.00    +0.000 A 
ATOM      8  C   UNL     1       4.283   4.015  16.693  0.00  0.00    +0.000 A 
ATOM      9  C   UNL     1       4.995   4.233  15.512  0.00  0.00    +0.000 A 
ATOM     10  C   UNL     1       6.337   4.618  15.582  0.00  0.00    +0.000 A 
ATOM     11  C   UNL     1       6.959   4.793  16.822  0.00  0.00    +0.000 A 
ATOM     12  C   UNL     1       6.236   4.558  17.999  0.00  0.00    +0.000 A 
BRANCH  10  13
ATOM     13  N   UNL     1       7.093   4.838  14.341  0.00  0.00    +0.000 N 
ATOM     14  O   UNL     1       8.029   5.650  14.375  0.00  0.00    +0.000 OA
ATOM     15  O   UNL     1       6.747   4.203  13.337  0.00  0.00    +0.000 OA
ENDBRANCH  10  13
ENDBRANCH   2   7
BRANCH   1  16
ATOM     16  N   UNL     1       4.908   1.685  19.887  0.00  0.00    +0.000 N 
ATOM     17  H   UNL     1       5.627   1.741  19.171  0.00  0.00    +0.000 HD
ATOM     18  H   UNL     1       5.281   1.416  20.794  0.00  0.00    +0.000 HD
ENDBRANCH   1  16
TORSDOF 3
ENDMDL
MODEL 4
REMARK VINA RESULT:      -6.8      2.304      5.973
REMARK  Name = 
REMARK  3 active torsions:
REMARK  status: ('A' for Active; 'I' for Inactive)
REMARK    1  A    between atoms: N_1  and  C_2
REMARK    2  A    between atoms: C_3  and  C_4
REMARK    3  A    between atoms: C_7  and  N_8
REMARK                            x       y       z     vdW  Elec       q    Type
REMARK                         _______ _______ _______ _____ _____    ______ ____
ROOT
ATOM      1  C   UNL     1       1.913   4.559  20.224  0.00  0.00    +0.000 C 
ATOM      2  C   UNL     1       2.577   4.322  19.081  0.00  0.00    +0.000 C 
ATOM      3  C   UNL     1       1.786   3.229  18.501  0.00  0.00    +0.000 C 
ATOM      4  O   UNL     1       1.978   2.735  17.400  0.00  0.00    +0.000 OA
ATOM      5  C   UNL     1       0.726   2.798  19.460  0.00  0.00    +0.000 C 
ATOM      6  O   UNL     1       0.802   3.779  20.503  0.00  0.00    +0.000 OA
ENDROOT
BRANCH   2   7
ATOM      7  C   UNL     1       3.771   4.964  18.530  0.00  0.00    +0.000 A 
ATOM      8  C   UNL     1       3.649   5.981  17.569  0.00  0.00    +0.000 A 
ATOM      9  C   UNL     1       4.774   6.588  17.005  0.00  0.00    +0.000 A 
ATOM     10  C   UNL     1       6.048   6.196  17.425  0.00  0.00    +0.000 A 
ATOM     11  C   UNL     1       6.197   5.212  18.408  0.00  0.00    +0.000 A 
ATOM     12  C   UNL     1       5.061   4.602  18.955  0.00  0.00    +0.000 A 
BRANCH  10  13
ATOM     13  N   UNL     1       7.233   6.825  16.826  0.00  0.00    +0.000 N 
ATOM     14  O   UNL     1       7.776   6.240  15.878  0.00  0.00    +0.000 OA
ATOM     15  O   UNL     1       7.622   7.896  17.308  0.00  0.00    +0.000 OA
ENDBRANCH  10  13
ENDBRANCH   2   7
BRANCH   1  16
ATOM     16  N   UNL     1       2.169   5.519  21.164  0.00  0.00    +0.000 N 
ATOM     17  H   UNL     1       1.765   5.318  22.075  0.00  0.00    +0.000 HD
ATOM     18  H   UNL     1       3.162   5.729  21.216  0.00  0.00    +0.000 HD
ENDBRANCH   1  16
TORSDOF 3
ENDMDL
MODEL 5
REMARK VINA RESULT:      -6.7      2.405      6.051
REMARK  Name = 
REMARK  3 active torsions:
REMARK  status: ('A' for Active; 'I' for Inactive)
REMARK    1  A    between atoms: N_1  and  C_2
REMARK    2  A    between atoms: C_3  and  C_4
REMARK    3  A    between atoms: C_7  and  N_8
REMARK                            x       y       z     vdW  Elec       q    Type
REMARK                         _______ _______ _______ _____ _____    ______ ____
ROOT
ATOM      1  C   UNL     1       1.843   4.533  20.126  0.00  0.00    +0.000 C 
ATOM      2  C   UNL     1       2.578   4.326  19.022  0.00  0.00    +0.000 C 
ATOM      3  C   UNL     1       1.817   3.262  18.356  0.00  0.00    +0.000 C 
ATOM      4  O   UNL     1       2.076   2.801  17.253  0.00  0.00    +0.000 OA
ATOM      5  C   UNL     1       0.693   2.812  19.229  0.00  0.00    +0.000 C 
ATOM      6  O   UNL     1       0.709   3.757  20.306  0.00  0.00    +0.000 OA
ENDROOT
BRANCH   2   7
ATOM      7  C   UNL     1       3.812   4.973  18.571  0.00  0.00    +0.000 A 
ATOM      8  C   UNL     1       5.059   4.509  19.020  0.00  0.00    +0.000 A 
ATOM      9  C   UNL     1       6.250   5.128  18.629  0.00  0.00    +0.000 A 
ATOM     10  C   UNL     1       6.201   6.215  17.751  0.00  0.00    +0.000 A 
ATOM     11  C   UNL     1       4.974   6.674  17.261  0.00  0.00    +0.000 A 
ATOM     12  C   UNL     1       3.788   6.051  17.672  0.00  0.00    +0.000 A 
BRANCH  10  13
ATOM     13  N   UNL     1       7.449   6.875  17.347  0.00  0.00    +0.000 N 
ATOM     14  O   UNL     1       7.890   6.627  16.215  0.00  0.00    +0.000 OA
ATOM     15  O   UNL     1       7.989   7.634  18.162  0.00  0.00    +0.000 OA
ENDBRANCH  10  13
ENDBRANCH   2   7
BRANCH   1  16
ATOM     16  N   UNL     1       2.046   5.458  21.113  0.00  0.00    +0.000 N 
ATOM     17  H   UNL     1       1.326   6.174  21.158  0.00  0.00    +0.000 HD
ATOM     18  H   UNL     1       2.208   5.011  22.011  0.00  0.00    +0.000 HD
ENDBRANCH   1  16
TORSDOF 3
ENDMDL
MODEL 6
REMARK VINA RESULT:      -6.7      2.269      5.884
REMARK  Name = 
REMARK  3 active torsions:
REMARK  status: ('A' for Active; 'I' for Inactive)
REMARK    1  A    between atoms: N_1  and  C_2
REMARK    2  A    between atoms: C_3  and  C_4
REMARK    3  A    between atoms: C_7  and  N_8
REMARK                            x       y       z     vdW  Elec       q    Type
REMARK                         _______ _______ _______ _____ _____    ______ ____
ROOT
ATOM      1  C   UNL     1       4.091   2.784  20.112  0.00  0.00    +0.000 C 
ATOM      2  C   UNL     1       4.045   3.811  19.249  0.00  0.00    +0.000 C 
ATOM      3  C   UNL     1       3.023   4.667  19.863  0.00  0.00    +0.000 C 
ATOM      4  O   UNL     1       2.700   5.774  19.456  0.00  0.00    +0.000 OA
ATOM      5  C   UNL     1       2.422   3.981  21.045  0.00  0.00    +0.000 C 
ATOM      6  O   UNL     1       3.243   2.817  21.207  0.00  0.00    +0.000 OA
ENDROOT
BRANCH   2   7
ATOM      7  C   UNL     1       4.800   4.047  18.017  0.00  0.00    +0.000 A 
ATOM      8  C   UNL     1       6.144   4.449  18.075  0.00  0.00    +0.000 A 
ATOM      9  C   UNL     1       6.877   4.710  16.915  0.00  0.00    +0.000 A 
ATOM     10  C   UNL     1       6.270   4.542  15.667  0.00  0.00    +0.000 A 
ATOM     11  C   UNL     1       4.943   4.106  15.580  0.00  0.00    +0.000 A 
ATOM     12  C   UNL     1       4.216   3.861  16.752  0.00  0.00    +0.000 A 
BRANCH  10  13
ATOM     13  N   UNL     1       7.034   4.826  14.445  0.00  0.00    +0.000 N 
ATOM     14  O   UNL     1       7.960   5.646  14.525  0.00  0.00    +0.000 OA
ATOM     15  O   UNL     1       6.704   4.234  13.410  0.00  0.00    +0.000 OA
ENDBRANCH  10  13
ENDBRANCH   2   7
BRANCH   1  16
ATOM     16  N   UNL     1       4.911   1.690  20.077  0.00  0.00    +0.000 N 
ATOM     17  H   UNL     1       5.623   1.689  20.803  0.00  0.00    +0.000 HD
ATOM     18  H   UNL     1       4.375   0.827  20.056  0.00  0.00    +0.000 HD
ENDBRANCH   1  16
TORSDOF 3
ENDMDL
MODEL 7
REMARK VINA RESULT:      -6.7      1.917      6.090
REMARK  Name = 
REMARK  3 active torsions:
REMARK  status: ('A' for Active; 'I' for Inactive)
REMARK    1  A    between atoms: N_1  and  C_2
REMARK    2  A    between atoms: C_3  and  C_4
REMARK    3  A    between atoms: C_7  and  N_8
REMARK                            x       y       z     vdW  Elec       q    Type
REMARK                         _______ _______ _______ _____ _____    ______ ____
ROOT
ATOM      1  C   UNL     1       2.516   2.398  19.245  0.00  0.00    +0.000 C 
ATOM      2  C   UNL     1       2.974   3.658  19.306  0.00  0.00    +0.000 C 
ATOM      3  C   UNL     1       2.094   4.244  20.325  0.00  0.00    +0.000 C 
ATOM      4  O   UNL     1       2.198   5.377  20.771  0.00  0.00    +0.000 OA
ATOM      5  C   UNL     1       1.044   3.259  20.723  0.00  0.00    +0.000 C 
ATOM      6  O   UNL     1       1.452   2.054  20.064  0.00  0.00    +0.000 OA
ENDROOT
BRANCH   2   7
ATOM      7  C   UNL     1       4.059   4.307  18.568  0.00  0.00    +0.000 A 
ATOM      8  C   UNL     1       3.932   4.554  17.191  0.00  0.00    +0.000 A 
ATOM      9  C   UNL     1       4.965   5.144  16.458  0.00  0.00    +0.000 A 
ATOM     10  C   UNL     1       6.141   5.521  17.113  0.00  0.00    +0.000 A 
ATOM     11  C   UNL     1       6.280   5.319  18.490  0.00  0.00    +0.000 A 
ATOM     12  C   UNL     1       5.240   4.716  19.210  0.00  0.00    +0.000 A 
BRANCH  10  13
ATOM     13  N   UNL     1       7.234   6.131  16.344  0.00  0.00    +0.000 N 
ATOM     14  O   UNL     1       7.562   5.585  15.281  0.00  0.00    +0.000 OA
ATOM     15  O   UNL     1       7.764   7.149  16.806  0.00  0.00    +0.000 OA
ENDBRANCH  10  13
ENDBRANCH   2   7
BRANCH   1  16
ATOM     16  N   UNL     1       2.993   1.363  18.490  0.00  0.00    +0.000 N 
ATOM     17  H   UNL     1       3.732   1.632  17.845  0.00  0.00    +0.000 HD
ATOM     18  H   UNL     1       3.254   0.570  19.071  0.00  0.00    +0.000 HD
ENDBRANCH   1  16
TORSDOF 3
ENDMDL
MODEL 8
REMARK VINA RESULT:      -6.6      1.956      6.099
REMARK  Name = 
REMARK  3 active torsions:
REMARK  status: ('A' for Active; 'I' for Inactive)
REMARK    1  A    between atoms: N_1  and  C_2
REMARK    2  A    between atoms: C_3  and  C_4
REMARK    3  A    between atoms: C_7  and  N_8
REMARK                            x       y       z     vdW  Elec       q    Type
REMARK                         _______ _______ _______ _____ _____    ______ ____
ROOT
ATOM      1  C   UNL     1       2.226   4.566  20.495  0.00  0.00    +0.000 C 
ATOM      2  C   UNL     1       2.934   3.896  19.572  0.00  0.00    +0.000 C 
ATOM      3  C   UNL     1       2.331   2.560  19.649  0.00  0.00    +0.000 C 
ATOM      4  O   UNL     1       2.612   1.622  18.918  0.00  0.00    +0.000 OA
ATOM      5  C   UNL     1       1.338   2.510  20.763  0.00  0.00    +0.000 C 
ATOM      6  O   UNL     1       1.246   3.875  21.189  0.00  0.00    +0.000 OA
ENDROOT
BRANCH   2   7
ATOM      7  C   UNL     1       4.021   4.348  18.702  0.00  0.00    +0.000 A 
ATOM      8  C   UNL     1       5.322   4.493  19.210  0.00  0.00    +0.000 A 
ATOM      9  C   UNL     1       6.371   4.951  18.409  0.00  0.00    +0.000 A 
ATOM     10  C   UNL     1       6.127   5.247  17.064  0.00  0.00    +0.000 A 
ATOM     11  C   UNL     1       4.848   5.077  16.523  0.00  0.00    +0.000 A 
ATOM     12  C   UNL     1       3.804   4.629  17.342  0.00  0.00    +0.000 A 
BRANCH  10  13
ATOM     13  N   UNL     1       7.224   5.741  16.221  0.00  0.00    +0.000 N 
ATOM     14  O   UNL     1       7.695   6.856  16.486  0.00  0.00    +0.000 OA
ATOM     15  O   UNL     1       7.607   5.016  15.294  0.00  0.00    +0.000 OA
ENDBRANCH  10  13
ENDBRANCH   2   7
BRANCH   1  16
ATOM     16  N   UNL     1       2.317   5.889  20.830  0.00  0.00    +0.000 N 
ATOM     17  H   UNL     1       3.211   6.311  20.596  0.00  0.00    +0.000 HD
ATOM     18  H   UNL     1       1.529   6.418  20.465  0.00  0.00    +0.000 HD
ENDBRANCH   1  16
TORSDOF 3
ENDMDL
MODEL 9
REMARK VINA RESULT:      -6.6      1.872      6.081
REMARK  Name = 
REMARK  3 active torsions:
REMARK  status: ('A' for Active; 'I' for Inactive)
REMARK    1  A    between atoms: N_1  and  C_2
REMARK    2  A    between atoms: C_3  and  C_4
REMARK    3  A    between atoms: C_7  and  N_8
REMARK                            x       y       z     vdW  Elec       q    Type
REMARK                         _______ _______ _______ _____ _____    ______ ____
ROOT
ATOM      1  C   UNL     1       2.417   2.469  19.214  0.00  0.00    +0.000 C 
ATOM      2  C   UNL     1       2.925   3.711  19.247  0.00  0.00    +0.000 C 
ATOM      3  C   UNL     1       2.088   4.347  20.271  0.00  0.00    +0.000 C 
ATOM      4  O   UNL     1       2.244   5.482  20.697  0.00  0.00    +0.000 OA
ATOM      5  C   UNL     1       1.006   3.411  20.702  0.00  0.00    +0.000 C 
ATOM      6  O   UNL     1       1.354   2.180  20.055  0.00  0.00    +0.000 OA
ENDROOT
BRANCH   2   7
ATOM      7  C   UNL     1       4.023   4.305  18.481  0.00  0.00    +0.000 A 
ATOM      8  C   UNL     1       5.199   4.713  19.129  0.00  0.00    +0.000 A 
ATOM      9  C   UNL     1       6.249   5.310  18.426  0.00  0.00    +0.000 A 
ATOM     10  C   UNL     1       6.138   5.481  17.043  0.00  0.00    +0.000 A 
ATOM     11  C   UNL     1       4.992   5.050  16.367  0.00  0.00    +0.000 A 
ATOM     12  C   UNL     1       3.942   4.464  17.087  0.00  0.00    +0.000 A 
BRANCH  10  13
ATOM     13  N   UNL     1       7.234   6.119  16.302  0.00  0.00    +0.000 N 
ATOM     14  O   UNL     1       7.562   5.618  15.217  0.00  0.00    +0.000 OA
ATOM     15  O   UNL     1       7.768   7.114  16.808  0.00  0.00    +0.000 OA
ENDBRANCH  10  13
ENDBRANCH   2   7
BRANCH   1  16
ATOM     16  N   UNL     1       2.839   1.405  18.466  0.00  0.00    +0.000 N 
ATOM     17  H   UNL     1       2.934   0.543  18.997  0.00  0.00    +0.000 HD
ATOM     18  H   UNL     1       2.268   1.288  17.634  0.00  0.00    +0.000 HD
ENDBRANCH   1  16
TORSDOF 3
ENDMDL
