MODEL 1
REMARK VINA RESULT:      -7.1      0.000      0.000
REMARK  Name = 
REMARK  8 active torsions:
REMARK  status: ('A' for Active; 'I' for Inactive)
REMARK    1  A    between atoms: C_2  and  C_3
REMARK    2  A    between atoms: C_3  and  N_4
REMARK    3  A    between atoms: N_4  and  C_5
REMARK    4  A    between atoms: C_5  and  C_6
REMARK    5  A    between atoms: C_6  and  N_7
REMARK    6  A    between atoms: N_13  and  C_14
REMARK    7  A    between atoms: C_19  and  S_20
REMARK    8  A    between atoms: S_20  and  C_21
REMARK                            x       y       z     vdW  Elec       q    Type
REMARK                         _______ _______ _______ _____ _____    ______ ____
ROOT
ATOM      1  O   UNL     1       2.155   6.747  17.954  0.00  0.00    +0.000 OA
ATOM      2  C   UNL     1       3.065   7.575  17.792  0.00  0.00    +0.000 C 
ATOM      3  N   UNL     1       4.376   7.261  17.409  0.00  0.00    +0.000 N 
ATOM      4  H   UNL     1       5.074   8.006  17.454  0.00  0.00    +0.000 HD
ENDROOT
BRANCH   3   5
ATOM      5  C   UNL     1       4.823   6.071  16.736  0.00  0.00    +0.000 A 
ATOM      6  C   UNL     1       5.132   6.087  15.369  0.00  0.00    +0.000 A 
ATOM      7  C   UNL     1       5.764   5.007  14.740  0.00  0.00    +0.000 A 
ATOM      8  C   UNL     1       6.108   3.879  15.464  0.00  0.00    +0.000 A 
ATOM      9  C   UNL     1       5.752   3.799  16.805  0.00  0.00    +0.000 A 
ATOM     10  C   UNL     1       5.079   4.868  17.451  0.00  0.00    +0.000 A 
BRANCH  10  11
ATOM     11  S   UNL     1       4.763   4.608  19.186  0.00  0.00    +0.000 S 
BRANCH  11  12
ATOM     12  C   UNL     1       3.157   3.832  19.322  0.00  0.00    +0.000 A 
ATOM     13  C   UNL     1       2.398   3.323  18.262  0.00  0.00    +0.000 A 
ATOM     14  C   UNL     1       1.121   2.791  18.493  0.00  0.00    +0.000 A 
ATOM     15  C   UNL     1       0.593   2.745  19.784  0.00  0.00    +0.000 A 
ATOM     16  C   UNL     1       1.352   3.212  20.851  0.00  0.00    +0.000 A 
ATOM     17  C   UNL     1       2.622   3.744  20.620  0.00  0.00    +0.000 A 
ENDBRANCH  11  12
ENDBRANCH  10  11
ENDBRANCH   3   5
BRANCH   2  18
ATOM     18  C   UNL     1       2.771   9.088  17.968  0.00  0.00    +0.000 C 
BRANCH  18  19
ATOM     19  N   UNL     1       1.426   9.543  17.528  0.00  0.00    +0.000 NA
ATOM     20  H   UNL     1       0.818   8.719  17.508  0.00  0.00    +0.000 HD
BRANCH  19  21
ATOM     21  C   UNL     1       0.797  10.539  18.405  0.00  0.00    +0.000 C 
BRANCH  21  22
ATOM     22  C   UNL     1       0.829  10.141  19.896  0.00  0.00    +0.000 C 
BRANCH  22  23
ATOM     23  N   UNL     1      -0.451   9.721  20.502  0.00  0.00    +0.000 NA
ATOM     24  C   UNL     1      -1.169  10.922  21.010  0.00  0.00    +0.000 C 
ATOM     25  C   UNL     1      -0.497  11.577  22.237  0.00  0.00    +0.000 C 
ATOM     26  O   UNL     1      -0.297  10.638  23.301  0.00  0.00    +0.000 OA
ATOM     27  C   UNL     1       0.430   9.483  22.858  0.00  0.00    +0.000 C 
ATOM     28  C   UNL     1      -0.271   8.815  21.663  0.00  0.00    +0.000 C 
ENDBRANCH  22  23
ENDBRANCH  21  22
ENDBRANCH  19  21
ENDBRANCH  18  19
ENDBRANCH   2  18
TORSDOF 8
ENDMDL
MODEL 2
REMARK VINA RESULT:      -7.0      1.378      4.023
REMARK  Name = 
REMARK  8 active torsions:
REMARK  status: ('A' for Active; 'I' for Inactive)
REMARK    1  A    between atoms: C_2  and  C_3
REMARK    2  A    between atoms: C_3  and  N_4
REMARK    3  A    between atoms: N_4  and  C_5
REMARK    4  A    between atoms: C_5  and  C_6
REMARK    5  A    between atoms: C_6  and  N_7
REMARK    6  A    between atoms: N_13  and  C_14
REMARK    7  A    between atoms: C_19  and  S_20
REMARK    8  A    between atoms: S_20  and  C_21
REMARK                            x       y       z     vdW  Elec       q    Type
REMARK                         _______ _______ _______ _____ _____    ______ ____
ROOT
ATOM      1  O   UNL     1       2.298   7.355  19.952  0.00  0.00    +0.000 OA
ATOM      2  C   UNL     1       2.395   7.263  18.718  0.00  0.00    +0.000 C 
ATOM      3  N   UNL     1       2.688   6.082  18.023  0.00  0.00    +0.000 N 
ATOM      4  H   UNL     1       2.890   6.159  17.024  0.00  0.00    +0.000 HD
ENDROOT
BRANCH   3   5
ATOM      5  C   UNL     1       2.514   4.733  18.491  0.00  0.00    +0.000 A 
ATOM      6  C   UNL     1       1.250   4.128  18.500  0.00  0.00    +0.000 A 
ATOM      7  C   UNL     1       1.085   2.760  18.748  0.00  0.00    +0.000 A 
ATOM      8  C   UNL     1       2.185   1.956  18.992  0.00  0.00    +0.000 A 
ATOM      9  C   UNL     1       3.447   2.535  19.062  0.00  0.00    +0.000 A 
ATOM     10  C   UNL     1       3.629   3.925  18.849  0.00  0.00    +0.000 A 
BRANCH  10  11
ATOM     11  S   UNL     1       5.324   4.473  18.917  0.00  0.00    +0.000 S 
BRANCH  11  12
ATOM     12  C   UNL     1       5.932   4.527  17.236  0.00  0.00    +0.000 A 
ATOM     13  C   UNL     1       7.176   5.020  16.827  0.00  0.00    +0.000 A 
ATOM     14  C   UNL     1       7.512   5.063  15.465  0.00  0.00    +0.000 A 
ATOM     15  C   UNL     1       6.618   4.601  14.498  0.00  0.00    +0.000 A 
ATOM     16  C   UNL     1       5.394   4.073  14.893  0.00  0.00    +0.000 A 
ATOM     17  C   UNL     1       5.060   4.033  16.249  0.00  0.00    +0.000 A 
ENDBRANCH  11  12
ENDBRANCH  10  11
ENDBRANCH   3   5
BRANCH   2  18
ATOM     18  C   UNL     1       2.136   8.508  17.830  0.00  0.00    +0.000 C 
BRANCH  18  19
ATOM     19  N   UNL     1       1.614   9.711  18.533  0.00  0.00    +0.000 NA
ATOM     20  H   UNL     1       1.893  10.528  17.982  0.00  0.00    +0.000 HD
BRANCH  19  21
ATOM     21  C   UNL     1       0.154   9.750  18.682  0.00  0.00    +0.000 C 
BRANCH  21  22
ATOM     22  C   UNL     1      -0.322  10.780  19.727  0.00  0.00    +0.000 C 
BRANCH  22  23
ATOM     23  N   UNL     1       0.646  11.167  20.773  0.00  0.00    +0.000 NA
ATOM     24  C   UNL     1       0.814  10.037  21.726  0.00  0.00    +0.000 C 
ATOM     25  C   UNL     1      -0.430   9.771  22.603  0.00  0.00    +0.000 C 
ATOM     26  O   UNL     1      -0.850  10.948  23.306  0.00  0.00    +0.000 OA
ATOM     27  C   UNL     1      -1.062  12.050  22.412  0.00  0.00    +0.000 C 
ATOM     28  C   UNL     1       0.197  12.331  21.574  0.00  0.00    +0.000 C 
ENDBRANCH  22  23
ENDBRANCH  21  22
ENDBRANCH  19  21
ENDBRANCH  18  19
ENDBRANCH   2  18
TORSDOF 8
ENDMDL
MODEL 3
REMARK VINA RESULT:      -6.9      1.749      2.186
REMARK  Name = 
REMARK  8 active torsions:
REMARK  status: ('A' for Active; 'I' for Inactive)
REMARK    1  A    between atoms: C_2  and  C_3
REMARK    2  A    between atoms: C_3  and  N_4
REMARK    3  A    between atoms: N_4  and  C_5
REMARK    4  A    between atoms: C_5  and  C_6
REMARK    5  A    between atoms: C_6  and  N_7
REMARK    6  A    between atoms: N_13  and  C_14
REMARK    7  A    between atoms: C_19  and  S_20
REMARK    8  A    between atoms: S_20  and  C_21
REMARK                            x       y       z     vdW  Elec       q    Type
REMARK                         _______ _______ _______ _____ _____    ______ ____
ROOT
ATOM      1  O   UNL     1       2.057   6.609  17.868  0.00  0.00    +0.000 OA
ATOM      2  C   UNL     1       2.943   7.478  17.869  0.00  0.00    +0.000 C 
ATOM      3  N   UNL     1       4.294   7.246  17.578  0.00  0.00    +0.000 N 
ATOM      4  H   UNL     1       4.954   8.006  17.758  0.00  0.00    +0.000 HD
ENDROOT
BRANCH   3   5
ATOM      5  C   UNL     1       4.846   6.143  16.838  0.00  0.00    +0.000 A 
ATOM      6  C   UNL     1       5.121   6.258  15.469  0.00  0.00    +0.000 A 
ATOM      7  C   UNL     1       5.847   5.282  14.775  0.00  0.00    +0.000 A 
ATOM      8  C   UNL     1       6.322   4.161  15.435  0.00  0.00    +0.000 A 
ATOM      9  C   UNL     1       6.005   3.980  16.776  0.00  0.00    +0.000 A 
ATOM     10  C   UNL     1       5.240   4.940  17.487  0.00  0.00    +0.000 A 
BRANCH  10  11
ATOM     11  S   UNL     1       4.991   4.564  19.211  0.00  0.00    +0.000 S 
BRANCH  11  12
ATOM     12  C   UNL     1       3.347   3.877  19.372  0.00  0.00    +0.000 A 
ATOM     13  C   UNL     1       2.732   2.998  18.473  0.00  0.00    +0.000 A 
ATOM     14  C   UNL     1       1.411   2.577  18.681  0.00  0.00    +0.000 A 
ATOM     15  C   UNL     1       0.693   3.013  19.795  0.00  0.00    +0.000 A 
ATOM     16  C   UNL     1       1.304   3.856  20.717  0.00  0.00    +0.000 A 
ATOM     17  C   UNL     1       2.620   4.277  20.507  0.00  0.00    +0.000 A 
ENDBRANCH  11  12
ENDBRANCH  10  11
ENDBRANCH   3   5
BRANCH   2  18
ATOM     18  C   UNL     1       2.573   8.956  18.161  0.00  0.00    +0.000 C 
BRANCH  18  19
ATOM     19  N   UNL     1       1.359   9.470  17.472  0.00  0.00    +0.000 NA
ATOM     20  H   UNL     1       0.958   8.691  16.942  0.00  0.00    +0.000 HD
BRANCH  19  21
ATOM     21  C   UNL     1       0.315   9.983  18.369  0.00  0.00    +0.000 C 
BRANCH  21  22
ATOM     22  C   UNL     1       0.875  10.828  19.533  0.00  0.00    +0.000 C 
BRANCH  22  23
ATOM     23  N   UNL     1       0.255  12.149  19.758  0.00  0.00    +0.000 NA
ATOM     24  C   UNL     1       0.424  12.983  18.536  0.00  0.00    +0.000 C 
ATOM     25  C   UNL     1       1.883  13.416  18.274  0.00  0.00    +0.000 C 
ATOM     26  O   UNL     1       2.454  14.084  19.407  0.00  0.00    +0.000 OA
ATOM     27  C   UNL     1       2.347  13.291  20.598  0.00  0.00    +0.000 C 
ATOM     28  C   UNL     1       0.884  12.901  20.871  0.00  0.00    +0.000 C 
ENDBRANCH  22  23
ENDBRANCH  21  22
ENDBRANCH  19  21
ENDBRANCH  18  19
ENDBRANCH   2  18
TORSDOF 8
ENDMDL
MODEL 4
REMARK VINA RESULT:      -6.9      4.820      7.152
REMARK  Name = 
REMARK  8 active torsions:
REMARK  status: ('A' for Active; 'I' for Inactive)
REMARK    1  A    between atoms: C_2  and  C_3
REMARK    2  A    between atoms: C_3  and  N_4
REMARK    3  A    between atoms: N_4  and  C_5
REMARK    4  A    between atoms: C_5  and  C_6
REMARK    5  A    between atoms: C_6  and  N_7
REMARK    6  A    between atoms: N_13  and  C_14
REMARK    7  A    between atoms: C_19  and  S_20
REMARK    8  A    between atoms: S_20  and  C_21
REMARK                            x       y       z     vdW  Elec       q    Type
REMARK                         _______ _______ _______ _____ _____    ______ ____
ROOT
ATOM      1  O   UNL     1       6.317   5.608  19.227  0.00  0.00    +0.000 OA
ATOM      2  C   UNL     1       6.411   5.830  18.010  0.00  0.00    +0.000 C 
ATOM      3  N   UNL     1       5.539   5.328  17.034  0.00  0.00    +0.000 N 
ATOM      4  H   UNL     1       5.802   5.453  16.054  0.00  0.00    +0.000 HD
ENDROOT
BRANCH   3   5
ATOM      5  C   UNL     1       4.194   4.856  17.231  0.00  0.00    +0.000 A 
ATOM      6  C   UNL     1       3.899   3.486  17.213  0.00  0.00    +0.000 A 
ATOM      7  C   UNL     1       2.649   2.993  17.608  0.00  0.00    +0.000 A 
ATOM      8  C   UNL     1       1.658   3.859  18.037  0.00  0.00    +0.000 A 
ATOM      9  C   UNL     1       1.892   5.229  17.998  0.00  0.00    +0.000 A 
ATOM     10  C   UNL     1       3.139   5.749  17.567  0.00  0.00    +0.000 A 
BRANCH  10  11
ATOM     11  S   UNL     1       3.272   7.525  17.648  0.00  0.00    +0.000 S 
BRANCH  11  12
ATOM     12  C   UNL     1       2.195   8.079  18.964  0.00  0.00    +0.000 A 
ATOM     13  C   UNL     1       2.053   7.475  20.218  0.00  0.00    +0.000 A 
ATOM     14  C   UNL     1       1.125   7.972  21.146  0.00  0.00    +0.000 A 
ATOM     15  C   UNL     1       0.341   9.085  20.841  0.00  0.00    +0.000 A 
ATOM     16  C   UNL     1       0.499   9.718  19.613  0.00  0.00    +0.000 A 
ATOM     17  C   UNL     1       1.421   9.221  18.689  0.00  0.00    +0.000 A 
ENDBRANCH  11  12
ENDBRANCH  10  11
ENDBRANCH   3   5
BRANCH   2  18
ATOM     18  C   UNL     1       7.530   6.764  17.479  0.00  0.00    +0.000 C 
BRANCH  18  19
ATOM     19  N   UNL     1       8.135   7.685  18.478  0.00  0.00    +0.000 NA
ATOM     20  H   UNL     1       9.091   7.363  18.648  0.00  0.00    +0.000 HD
BRANCH  19  21
ATOM     21  C   UNL     1       8.205   9.089  18.054  0.00  0.00    +0.000 C 
BRANCH  21  22
ATOM     22  C   UNL     1       9.285   9.897  18.805  0.00  0.00    +0.000 C 
BRANCH  22  23
ATOM     23  N   UNL     1       9.347  11.347  18.529  0.00  0.00    +0.000 NA
ATOM     24  C   UNL     1      10.663  11.670  17.912  0.00  0.00    +0.000 C 
ATOM     25  C   UNL     1      11.856  11.534  18.883  0.00  0.00    +0.000 C 
ATOM     26  O   UNL     1      11.668  12.310  20.074  0.00  0.00    +0.000 OA
ATOM     27  C   UNL     1      10.426  11.994  20.720  0.00  0.00    +0.000 C 
ATOM     28  C   UNL     1       9.241  12.174  19.755  0.00  0.00    +0.000 C 
ENDBRANCH  22  23
ENDBRANCH  21  22
ENDBRANCH  19  21
ENDBRANCH  18  19
ENDBRANCH   2  18
TORSDOF 8
ENDMDL
MODEL 5
REMARK VINA RESULT:      -6.8      1.166      1.686
REMARK  Name = 
REMARK  8 active torsions:
REMARK  status: ('A' for Active; 'I' for Inactive)
REMARK    1  A    between atoms: C_2  and  C_3
REMARK    2  A    between atoms: C_3  and  N_4
REMARK    3  A    between atoms: N_4  and  C_5
REMARK    4  A    between atoms: C_5  and  C_6
REMARK    5  A    between atoms: C_6  and  N_7
REMARK    6  A    between atoms: N_13  and  C_14
REMARK    7  A    between atoms: C_19  and  S_20
REMARK    8  A    between atoms: S_20  and  C_21
REMARK                            x       y       z     vdW  Elec       q    Type
REMARK                         _______ _______ _______ _____ _____    ______ ____
ROOT
ATOM      1  O   UNL     1       1.954   6.491  17.738  0.00  0.00    +0.000 OA
ATOM      2  C   UNL     1       2.835   7.347  17.912  0.00  0.00    +0.000 C 
ATOM      3  N   UNL     1       4.208   7.133  17.729  0.00  0.00    +0.000 N 
ATOM      4  H   UNL     1       4.847   7.865  18.047  0.00  0.00    +0.000 HD
ENDROOT
BRANCH   3   5
ATOM      5  C   UNL     1       4.828   6.106  16.935  0.00  0.00    +0.000 A 
ATOM      6  C   UNL     1       5.079   6.301  15.570  0.00  0.00    +0.000 A 
ATOM      7  C   UNL     1       5.865   5.411  14.828  0.00  0.00    +0.000 A 
ATOM      8  C   UNL     1       6.426   4.300  15.433  0.00  0.00    +0.000 A 
ATOM      9  C   UNL     1       6.139   4.037  16.768  0.00  0.00    +0.000 A 
ATOM     10  C   UNL     1       5.316   4.908  17.527  0.00  0.00    +0.000 A 
BRANCH  10  11
ATOM     11  S   UNL     1       5.114   4.440  19.235  0.00  0.00    +0.000 S 
BRANCH  11  12
ATOM     12  C   UNL     1       3.403   3.966  19.456  0.00  0.00    +0.000 A 
ATOM     13  C   UNL     1       2.572   4.356  20.512  0.00  0.00    +0.000 A 
ATOM     14  C   UNL     1       1.262   3.864  20.605  0.00  0.00    +0.000 A 
ATOM     15  C   UNL     1       0.759   2.992  19.638  0.00  0.00    +0.000 A 
ATOM     16  C   UNL     1       1.561   2.627  18.563  0.00  0.00    +0.000 A 
ATOM     17  C   UNL     1       2.867   3.115  18.473  0.00  0.00    +0.000 A 
ENDBRANCH  11  12
ENDBRANCH  10  11
ENDBRANCH   3   5
BRANCH   2  18
ATOM     18  C   UNL     1       2.438   8.791  18.317  0.00  0.00    +0.000 C 
BRANCH  18  19
ATOM     19  N   UNL     1       1.512   9.494  17.389  0.00  0.00    +0.000 NA
ATOM     20  H   UNL     1       1.374   8.885  16.579  0.00  0.00    +0.000 HD
BRANCH  19  21
ATOM     21  C   UNL     1       0.189   9.794  17.953  0.00  0.00    +0.000 C 
BRANCH  21  22
ATOM     22  C   UNL     1       0.259  10.508  19.319  0.00  0.00    +0.000 C 
BRANCH  22  23
ATOM     23  N   UNL     1      -0.522  11.754  19.462  0.00  0.00    +0.000 NA
ATOM     24  C   UNL     1       0.409  12.915  19.474  0.00  0.00    +0.000 C 
ATOM     25  C   UNL     1       1.281  13.001  20.746  0.00  0.00    +0.000 C 
ATOM     26  O   UNL     1       0.487  12.996  21.940  0.00  0.00    +0.000 OA
ATOM     27  C   UNL     1      -0.395  11.865  21.983  0.00  0.00    +0.000 C 
ATOM     28  C   UNL     1      -1.287  11.814  20.731  0.00  0.00    +0.000 C 
ENDBRANCH  22  23
ENDBRANCH  21  22
ENDBRANCH  19  21
ENDBRANCH  18  19
ENDBRANCH   2  18
TORSDOF 8
ENDMDL
MODEL 6
REMARK VINA RESULT:      -6.8      1.177      3.862
REMARK  Name = 
REMARK  8 active torsions:
REMARK  status: ('A' for Active; 'I' for Inactive)
REMARK    1  A    between atoms: C_2  and  C_3
REMARK    2  A    between atoms: C_3  and  N_4
REMARK    3  A    between atoms: N_4  and  C_5
REMARK    4  A    between atoms: C_5  and  C_6
REMARK    5  A    between atoms: C_6  and  N_7
REMARK    6  A    between atoms: N_13  and  C_14
REMARK    7  A    between atoms: C_19  and  S_20
REMARK    8  A    between atoms: S_20  and  C_21
REMARK                            x       y       z     vdW  Elec       q    Type
REMARK                         _______ _______ _______ _____ _____    ______ ____
ROOT
ATOM      1  O   UNL     1       2.542   7.202  20.060  0.00  0.00    +0.000 OA
ATOM      2  C   UNL     1       2.667   7.109  18.829  0.00  0.00    +0.000 C 
ATOM      3  N   UNL     1       2.871   5.909  18.133  0.00  0.00    +0.000 N 
ATOM      4  H   UNL     1       3.109   5.973  17.141  0.00  0.00    +0.000 HD
ENDROOT
BRANCH   3   5
ATOM      5  C   UNL     1       2.562   4.579  18.585  0.00  0.00    +0.000 A 
ATOM      6  C   UNL     1       1.236   4.134  18.668  0.00  0.00    +0.000 A 
ATOM      7  C   UNL     1       0.920   2.790  18.901  0.00  0.00    +0.000 A 
ATOM      8  C   UNL     1       1.925   1.850  19.054  0.00  0.00    +0.000 A 
ATOM      9  C   UNL     1       3.250   2.269  19.050  0.00  0.00    +0.000 A 
ATOM     10  C   UNL     1       3.589   3.631  18.852  0.00  0.00    +0.000 A 
BRANCH  10  11
ATOM     11  S   UNL     1       5.340   3.965  18.816  0.00  0.00    +0.000 S 
BRANCH  11  12
ATOM     12  C   UNL     1       5.776   4.327  17.119  0.00  0.00    +0.000 A 
ATOM     13  C   UNL     1       5.041   3.961  15.986  0.00  0.00    +0.000 A 
ATOM     14  C   UNL     1       5.523   4.253  14.701  0.00  0.00    +0.000 A 
ATOM     15  C   UNL     1       6.734   4.925  14.531  0.00  0.00    +0.000 A 
ATOM     16  C   UNL     1       7.456   5.327  15.649  0.00  0.00    +0.000 A 
ATOM     17  C   UNL     1       6.976   5.035  16.928  0.00  0.00    +0.000 A 
ENDBRANCH  11  12
ENDBRANCH  10  11
ENDBRANCH   3   5
BRANCH   2  18
ATOM     18  C   UNL     1       2.548   8.376  17.943  0.00  0.00    +0.000 C 
BRANCH  18  19
ATOM     19  N   UNL     1       1.171   8.741  17.513  0.00  0.00    +0.000 NA
ATOM     20  H   UNL     1       0.544   8.003  17.845  0.00  0.00    +0.000 HD
BRANCH  19  21
ATOM     21  C   UNL     1       0.680  10.018  18.048  0.00  0.00    +0.000 C 
BRANCH  21  22
ATOM     22  C   UNL     1       0.746  10.096  19.588  0.00  0.00    +0.000 C 
BRANCH  22  23
ATOM     23  N   UNL     1      -0.486   9.753  20.328  0.00  0.00    +0.000 NA
ATOM     24  C   UNL     1      -1.056  10.988  20.930  0.00  0.00    +0.000 C 
ATOM     25  C   UNL     1      -0.207  11.569  22.083  0.00  0.00    +0.000 C 
ATOM     26  O   UNL     1       0.042  10.595  23.105  0.00  0.00    +0.000 OA
ATOM     27  C   UNL     1       0.632   9.403  22.567  0.00  0.00    +0.000 C 
ATOM     28  C   UNL     1      -0.243   8.811  21.448  0.00  0.00    +0.000 C 
ENDBRANCH  22  23
ENDBRANCH  21  22
ENDBRANCH  19  21
ENDBRANCH  18  19
ENDBRANCH   2  18
TORSDOF 8
ENDMDL
MODEL 7
REMARK VINA RESULT:      -6.8      1.606      2.014
REMARK  Name = 
REMARK  8 active torsions:
REMARK  status: ('A' for Active; 'I' for Inactive)
REMARK    1  A    between atoms: C_2  and  C_3
REMARK    2  A    between atoms: C_3  and  N_4
REMARK    3  A    between atoms: N_4  and  C_5
REMARK    4  A    between atoms: C_5  and  C_6
REMARK    5  A    between atoms: C_6  and  N_7
REMARK    6  A    between atoms: N_13  and  C_14
REMARK    7  A    between atoms: C_19  and  S_20
REMARK    8  A    between atoms: S_20  and  C_21
REMARK                            x       y       z     vdW  Elec       q    Type
REMARK                         _______ _______ _______ _____ _____    ______ ____
ROOT
ATOM      1  O   UNL     1       1.847   6.170  17.849  0.00  0.00    +0.000 OA
ATOM      2  C   UNL     1       2.660   7.078  18.083  0.00  0.00    +0.000 C 
ATOM      3  N   UNL     1       4.047   6.977  17.907  0.00  0.00    +0.000 N 
ATOM      4  H   UNL     1       4.627   7.734  18.274  0.00  0.00    +0.000 HD
ENDROOT
BRANCH   3   5
ATOM      5  C   UNL     1       4.750   6.045  17.066  0.00  0.00    +0.000 A 
ATOM      6  C   UNL     1       5.027   6.348  15.726  0.00  0.00    +0.000 A 
ATOM      7  C   UNL     1       5.885   5.559  14.950  0.00  0.00    +0.000 A 
ATOM      8  C   UNL     1       6.495   4.443  15.497  0.00  0.00    +0.000 A 
ATOM      9  C   UNL     1       6.187   4.073  16.801  0.00  0.00    +0.000 A 
ATOM     10  C   UNL     1       5.292   4.839  17.590  0.00  0.00    +0.000 A 
BRANCH  10  11
ATOM     11  S   UNL     1       5.071   4.242  19.255  0.00  0.00    +0.000 S 
BRANCH  11  12
ATOM     12  C   UNL     1       3.388   3.651  19.388  0.00  0.00    +0.000 A 
ATOM     13  C   UNL     1       2.751   2.778  18.499  0.00  0.00    +0.000 A 
ATOM     14  C   UNL     1       1.403   2.436  18.681  0.00  0.00    +0.000 A 
ATOM     15  C   UNL     1       0.679   2.949  19.758  0.00  0.00    +0.000 A 
ATOM     16  C   UNL     1       1.309   3.787  20.670  0.00  0.00    +0.000 A 
ATOM     17  C   UNL     1       2.652   4.128  20.487  0.00  0.00    +0.000 A 
ENDBRANCH  11  12
ENDBRANCH  10  11
ENDBRANCH   3   5
BRANCH   2  18
ATOM     18  C   UNL     1       2.153   8.463  18.562  0.00  0.00    +0.000 C 
BRANCH  18  19
ATOM     19  N   UNL     1       1.973   9.491  17.502  0.00  0.00    +0.000 NA
ATOM     20  H   UNL     1       1.048   9.343  17.090  0.00  0.00    +0.000 HD
BRANCH  19  21
ATOM     21  C   UNL     1       2.032  10.879  17.978  0.00  0.00    +0.000 C 
BRANCH  21  22
ATOM     22  C   UNL     1       1.184  11.125  19.243  0.00  0.00    +0.000 C 
BRANCH  22  23
ATOM     23  N   UNL     1       0.726  12.509  19.482  0.00  0.00    +0.000 NA
ATOM     24  C   UNL     1      -0.016  12.563  20.770  0.00  0.00    +0.000 C 
ATOM     25  C   UNL     1      -1.379  11.835  20.736  0.00  0.00    +0.000 C 
ATOM     26  O   UNL     1      -2.211  12.310  19.669  0.00  0.00    +0.000 OA
ATOM     27  C   UNL     1      -1.542  12.233  18.402  0.00  0.00    +0.000 C 
ATOM     28  C   UNL     1      -0.207  12.997  18.437  0.00  0.00    +0.000 C 
ENDBRANCH  22  23
ENDBRANCH  21  22
ENDBRANCH  19  21
ENDBRANCH  18  19
ENDBRANCH   2  18
TORSDOF 8
ENDMDL
MODEL 8
REMARK VINA RESULT:      -6.8      2.891      5.089
REMARK  Name = 
REMARK  8 active torsions:
REMARK  status: ('A' for Active; 'I' for Inactive)
REMARK    1  A    between atoms: C_2  and  C_3
REMARK    2  A    between atoms: C_3  and  N_4
REMARK    3  A    between atoms: N_4  and  C_5
REMARK    4  A    between atoms: C_5  and  C_6
REMARK    5  A    between atoms: C_6  and  N_7
REMARK    6  A    between atoms: N_13  and  C_14
REMARK    7  A    between atoms: C_19  and  S_20
REMARK    8  A    between atoms: S_20  and  C_21
REMARK                            x       y       z     vdW  Elec       q    Type
REMARK                         _______ _______ _______ _____ _____    ______ ____
ROOT
ATOM      1  O   UNL     1       0.916   7.842  21.105  0.00  0.00    +0.000 OA
ATOM      2  C   UNL     1       1.667   7.895  20.119  0.00  0.00    +0.000 C 
ATOM      3  N   UNL     1       2.521   6.863  19.707  0.00  0.00    +0.000 N 
ATOM      4  H   UNL     1       3.201   7.076  18.973  0.00  0.00    +0.000 HD
ENDROOT
BRANCH   3   5
ATOM      5  C   UNL     1       2.410   5.464  20.025  0.00  0.00    +0.000 A 
ATOM      6  C   UNL     1       1.179   4.901  20.386  0.00  0.00    +0.000 A 
ATOM      7  C   UNL     1       1.002   3.516  20.494  0.00  0.00    +0.000 A 
ATOM      8  C   UNL     1       2.054   2.654  20.240  0.00  0.00    +0.000 A 
ATOM      9  C   UNL     1       3.307   3.181  19.950  0.00  0.00    +0.000 A 
ATOM     10  C   UNL     1       3.515   4.581  19.871  0.00  0.00    +0.000 A 
BRANCH  10  11
ATOM     11  S   UNL     1       5.173   5.064  19.427  0.00  0.00    +0.000 S 
BRANCH  11  12
ATOM     12  C   UNL     1       5.260   5.077  17.640  0.00  0.00    +0.000 A 
ATOM     13  C   UNL     1       5.476   3.964  16.820  0.00  0.00    +0.000 A 
ATOM     14  C   UNL     1       5.585   4.115  15.430  0.00  0.00    +0.000 A 
ATOM     15  C   UNL     1       5.465   5.374  14.840  0.00  0.00    +0.000 A 
ATOM     16  C   UNL     1       5.212   6.483  15.639  0.00  0.00    +0.000 A 
ATOM     17  C   UNL     1       5.106   6.332  17.024  0.00  0.00    +0.000 A 
ENDBRANCH  11  12
ENDBRANCH  10  11
ENDBRANCH   3   5
BRANCH   2  18
ATOM     18  C   UNL     1       1.667   9.155  19.215  0.00  0.00    +0.000 C 
BRANCH  18  19
ATOM     19  N   UNL     1       0.450  10.008  19.290  0.00  0.00    +0.000 NA
ATOM     20  H   UNL     1       0.764  10.974  19.417  0.00  0.00    +0.000 HD
BRANCH  19  21
ATOM     21  C   UNL     1      -0.401   9.969  18.094  0.00  0.00    +0.000 C 
BRANCH  21  22
ATOM     22  C   UNL     1      -1.832  10.487  18.350  0.00  0.00    +0.000 C 
BRANCH  22  23
ATOM     23  N   UNL     1      -2.940   9.695  17.778  0.00  0.00    +0.000 NA
ATOM     24  C   UNL     1      -2.713   9.520  16.318  0.00  0.00    +0.000 C 
ATOM     25  C   UNL     1      -2.869  10.823  15.502  0.00  0.00    +0.000 C 
ATOM     26  O   UNL     1      -4.140  11.447  15.730  0.00  0.00    +0.000 OA
ATOM     27  C   UNL     1      -4.376  11.670  17.127  0.00  0.00    +0.000 C 
ATOM     28  C   UNL     1      -4.259  10.359  17.923  0.00  0.00    +0.000 C 
ENDBRANCH  22  23
ENDBRANCH  21  22
ENDBRANCH  19  21
ENDBRANCH  18  19
ENDBRANCH   2  18
TORSDOF 8
ENDMDL
MODEL 9
REMARK VINA RESULT:      -6.8      5.675      7.149
REMARK  Name = 
REMARK  8 active torsions:
REMARK  status: ('A' for Active; 'I' for Inactive)
REMARK    1  A    between atoms: C_2  and  C_3
REMARK    2  A    between atoms: C_3  and  N_4
REMARK    3  A    between atoms: N_4  and  C_5
REMARK    4  A    between atoms: C_5  and  C_6
REMARK    5  A    between atoms: C_6  and  N_7
REMARK    6  A    between atoms: N_13  and  C_14
REMARK    7  A    between atoms: C_19  and  S_20
REMARK    8  A    between atoms: S_20  and  C_21
REMARK                            x       y       z     vdW  Elec       q    Type
REMARK                         _______ _______ _______ _____ _____    ______ ____
ROOT
ATOM      1  O   UNL     1       6.878   8.731  17.083  0.00  0.00    +0.000 OA
ATOM      2  C   UNL     1       7.600   8.026  17.806  0.00  0.00    +0.000 C 
ATOM      3  N   UNL     1       7.458   6.642  17.975  0.00  0.00    +0.000 N 
ATOM      4  H   UNL     1       8.012   6.196  18.709  0.00  0.00    +0.000 HD
ENDROOT
BRANCH   3   5
ATOM      5  C   UNL     1       6.796   5.722  17.089  0.00  0.00    +0.000 A 
ATOM      6  C   UNL     1       7.299   5.467  15.806  0.00  0.00    +0.000 A 
ATOM      7  C   UNL     1       6.801   4.429  15.009  0.00  0.00    +0.000 A 
ATOM      8  C   UNL     1       5.785   3.613  15.476  0.00  0.00    +0.000 A 
ATOM      9  C   UNL     1       5.214   3.883  16.714  0.00  0.00    +0.000 A 
ATOM     10  C   UNL     1       5.680   4.952  17.521  0.00  0.00    +0.000 A 
BRANCH  10  11
ATOM     11  S   UNL     1       4.868   5.103  19.100  0.00  0.00    +0.000 S 
BRANCH  11  12
ATOM     12  C   UNL     1       3.409   4.069  19.047  0.00  0.00    +0.000 A 
ATOM     13  C   UNL     1       3.262   2.822  19.663  0.00  0.00    +0.000 A 
ATOM     14  C   UNL     1       2.084   2.079  19.495  0.00  0.00    +0.000 A 
ATOM     15  C   UNL     1       1.033   2.578  18.724  0.00  0.00    +0.000 A 
ATOM     16  C   UNL     1       1.150   3.833  18.137  0.00  0.00    +0.000 A 
ATOM     17  C   UNL     1       2.325   4.571  18.304  0.00  0.00    +0.000 A 
ENDBRANCH  11  12
ENDBRANCH  10  11
ENDBRANCH   3   5
BRANCH   2  18
ATOM     18  C   UNL     1       8.791   8.667  18.565  0.00  0.00    +0.000 C 
BRANCH  18  19
ATOM     19  N   UNL     1       8.955  10.136  18.395  0.00  0.00    +0.000 NA
ATOM     20  H   UNL     1       8.028  10.524  18.202  0.00  0.00    +0.000 HD
BRANCH  19  21
ATOM     21  C   UNL     1       9.495  10.833  19.569  0.00  0.00    +0.000 C 
BRANCH  21  22
ATOM     22  C   UNL     1      10.898  11.429  19.329  0.00  0.00    +0.000 C 
BRANCH  22  23
ATOM     23  N   UNL     1      11.115  12.824  19.765  0.00  0.00    +0.000 NA
ATOM     24  C   UNL     1       9.967  13.659  19.320  0.00  0.00    +0.000 C 
ATOM     25  C   UNL     1       9.904  13.867  17.790  0.00  0.00    +0.000 C 
ATOM     26  O   UNL     1      11.130  14.401  17.273  0.00  0.00    +0.000 OA
ATOM     27  C   UNL     1      12.257  13.596  17.648  0.00  0.00    +0.000 C 
ATOM     28  C   UNL     1      12.333  13.431  19.175  0.00  0.00    +0.000 C 
ENDBRANCH  22  23
ENDBRANCH  21  22
ENDBRANCH  19  21
ENDBRANCH  18  19
ENDBRANCH   2  18
TORSDOF 8
ENDMDL
