MODEL 1
REMARK VINA RESULT:      -7.2      0.000      0.000
REMARK  Name = 
REMARK  5 active torsions:
REMARK  status: ('A' for Active; 'I' for Inactive)
REMARK    1  A    between atoms: C_1  and  C_2
REMARK    2  A    between atoms: C_2  and  S_4
REMARK    3  A    between atoms: S_4  and  C_5
REMARK    4  A    between atoms: C_5  and  C_6
REMARK    5  A    between atoms: N_10  and  C_11
REMARK                            x       y       z     vdW  Elec       q    Type
REMARK                         _______ _______ _______ _____ _____    ______ ____
ROOT
ATOM      1  C   UNL     1       3.428   3.453  17.330  0.00  0.00    +0.000 C 
ATOM      2  C   UNL     1       4.800   4.061  17.560  0.00  0.00    +0.000 C 
ATOM      3  C   UNL     1       4.542   5.446  18.070  0.00  0.00    +0.000 C 
ATOM      4  O   UNL     1       5.470   6.184  18.372  0.00  0.00    +0.000 OA
ATOM      5  N   UNL     1       3.187   5.692  18.076  0.00  0.00    +0.000 N 
ATOM      6  C   UNL     1       2.480   4.584  17.654  0.00  0.00    +0.000 C 
ATOM      7  O   UNL     1       1.267   4.462  17.538  0.00  0.00    +0.000 OA
ENDROOT
BRANCH   5   8
ATOM      8  C   UNL     1       2.592   6.946  18.452  0.00  0.00    +0.000 A 
ATOM      9  C   UNL     1       2.419   7.988  17.525  0.00  0.00    +0.000 A 
ATOM     10  C   UNL     1       1.831   9.211  17.884  0.00  0.00    +0.000 A 
ATOM     11  C   UNL     1       1.397   9.429  19.188  0.00  0.00    +0.000 A 
ATOM     12 CL   UNL     1       0.680  10.953  19.560  0.00  0.00    +0.000 Cl
ATOM     13  C   UNL     1       1.555   8.415  20.131  0.00  0.00    +0.000 A 
ATOM     14 CL   UNL     1       1.034   8.596  21.771  0.00  0.00    +0.000 Cl
ATOM     15  C   UNL     1       2.146   7.194  19.764  0.00  0.00    +0.000 A 
ENDBRANCH   5   8
BRANCH   1  16
ATOM     16  C   UNL     1       3.242   2.222  18.222  0.00  0.00    +0.000 C 
BRANCH  16  17
ATOM     17  S   UNL     1       4.054   2.341  19.847  0.00  0.00    +0.000 S 
BRANCH  17  19
ATOM     18  C   UNL     1       1.318   2.343  20.133  0.00  0.00    +0.000 C 
ATOM     19  C   UNL     1       2.620   2.537  20.855  0.00  0.00    +0.000 C 
ATOM     20  O   UNL     1       2.696   2.817  22.044  0.00  0.00    +0.000 OA
ENDBRANCH  17  19
ENDBRANCH  16  17
ENDBRANCH   1  16
TORSDOF 4
ENDMDL
MODEL 2
REMARK VINA RESULT:      -7.1      2.177      4.275
REMARK  Name = 
REMARK  5 active torsions:
REMARK  status: ('A' for Active; 'I' for Inactive)
REMARK    1  A    between atoms: C_1  and  C_2
REMARK    2  A    between atoms: C_2  and  S_4
REMARK    3  A    between atoms: S_4  and  C_5
REMARK    4  A    between atoms: C_5  and  C_6
REMARK    5  A    between atoms: N_10  and  C_11
REMARK                            x       y       z     vdW  Elec       q    Type
REMARK                         _______ _______ _______ _____ _____    ______ ____
ROOT
ATOM      1  C   UNL     1       4.702   3.736  18.011  0.00  0.00    +0.000 C 
ATOM      2  C   UNL     1       3.369   3.339  17.400  0.00  0.00    +0.000 C 
ATOM      3  C   UNL     1       2.420   4.440  17.763  0.00  0.00    +0.000 C 
ATOM      4  O   UNL     1       1.257   4.412  17.384  0.00  0.00    +0.000 OA
ATOM      5  N   UNL     1       3.061   5.358  18.564  0.00  0.00    +0.000 N 
ATOM      6  C   UNL     1       4.384   5.011  18.756  0.00  0.00    +0.000 C 
ATOM      7  O   UNL     1       5.231   5.603  19.414  0.00  0.00    +0.000 OA
ENDROOT
BRANCH   5   8
ATOM      8  C   UNL     1       2.427   6.512  19.142  0.00  0.00    +0.000 A 
ATOM      9  C   UNL     1       1.900   6.491  20.444  0.00  0.00    +0.000 A 
ATOM     10  C   UNL     1       1.288   7.616  21.016  0.00  0.00    +0.000 A 
ATOM     11  C   UNL     1       1.185   8.804  20.298  0.00  0.00    +0.000 A 
ATOM     12 CL   UNL     1       0.424  10.151  21.063  0.00  0.00    +0.000 Cl
ATOM     13  C   UNL     1       1.697   8.858  19.004  0.00  0.00    +0.000 A 
ATOM     14 CL   UNL     1       1.621  10.295  18.045  0.00  0.00    +0.000 Cl
ATOM     15  C   UNL     1       2.308   7.725  18.438  0.00  0.00    +0.000 A 
ENDBRANCH   5   8
BRANCH   1  16
ATOM     16  C   UNL     1       5.753   3.912  16.912  0.00  0.00    +0.000 C 
BRANCH  16  17
ATOM     17  S   UNL     1       5.417   5.284  15.763  0.00  0.00    +0.000 S 
BRANCH  17  19
ATOM     18  C   UNL     1       6.113   3.808  13.547  0.00  0.00    +0.000 C 
ATOM     19  C   UNL     1       6.577   4.872  14.500  0.00  0.00    +0.000 C 
ATOM     20  O   UNL     1       7.673   5.412  14.425  0.00  0.00    +0.000 OA
ENDBRANCH  17  19
ENDBRANCH  16  17
ENDBRANCH   1  16
TORSDOF 4
ENDMDL
MODEL 3
REMARK VINA RESULT:      -6.9      2.461      4.341
REMARK  Name = 
REMARK  5 active torsions:
REMARK  status: ('A' for Active; 'I' for Inactive)
REMARK    1  A    between atoms: C_1  and  C_2
REMARK    2  A    between atoms: C_2  and  S_4
REMARK    3  A    between atoms: S_4  and  C_5
REMARK    4  A    between atoms: C_5  and  C_6
REMARK    5  A    between atoms: N_10  and  C_11
REMARK                            x       y       z     vdW  Elec       q    Type
REMARK                         _______ _______ _______ _____ _____    ______ ____
ROOT
ATOM      1  C   UNL     1       4.817   4.667  17.151  0.00  0.00    +0.000 C 
ATOM      2  C   UNL     1       3.540   3.868  17.344  0.00  0.00    +0.000 C 
ATOM      3  C   UNL     1       2.518   4.857  17.815  0.00  0.00    +0.000 C 
ATOM      4  O   UNL     1       1.366   4.508  18.035  0.00  0.00    +0.000 OA
ATOM      5  N   UNL     1       3.108   6.091  17.973  0.00  0.00    +0.000 N 
ATOM      6  C   UNL     1       4.440   6.054  17.613  0.00  0.00    +0.000 C 
ATOM      7  O   UNL     1       5.252   6.970  17.635  0.00  0.00    +0.000 OA
ENDROOT
BRANCH   5   8
ATOM      8  C   UNL     1       2.427   7.257  18.469  0.00  0.00    +0.000 A 
ATOM      9  C   UNL     1       2.020   8.294  17.612  0.00  0.00    +0.000 A 
ATOM     10  C   UNL     1       1.347   9.429  18.088  0.00  0.00    +0.000 A 
ATOM     11  C   UNL     1       1.060   9.562  19.442  0.00  0.00    +0.000 A 
ATOM     12 CL   UNL     1       0.227  10.982  19.960  0.00  0.00    +0.000 Cl
ATOM     13  C   UNL     1       1.450   8.551  20.319  0.00  0.00    +0.000 A 
ATOM     14 CL   UNL     1       1.124   8.630  22.016  0.00  0.00    +0.000 Cl
ATOM     15  C   UNL     1       2.124   7.418  19.834  0.00  0.00    +0.000 A 
ENDBRANCH   5   8
BRANCH   1  16
ATOM     16  C   UNL     1       5.260   4.606  15.686  0.00  0.00    +0.000 C 
BRANCH  16  17
ATOM     17  S   UNL     1       7.045   4.855  15.429  0.00  0.00    +0.000 S 
BRANCH  17  19
ATOM     18  C   UNL     1       6.109   3.796  13.068  0.00  0.00    +0.000 C 
ATOM     19  C   UNL     1       7.081   4.771  13.668  0.00  0.00    +0.000 C 
ATOM     20  O   UNL     1       7.849   5.453  13.002  0.00  0.00    +0.000 OA
ENDBRANCH  17  19
ENDBRANCH  16  17
ENDBRANCH   1  16
TORSDOF 4
ENDMDL
MODEL 4
REMARK VINA RESULT:      -6.8      2.051      4.122
REMARK  Name = 
REMARK  5 active torsions:
REMARK  status: ('A' for Active; 'I' for Inactive)
REMARK    1  A    between atoms: C_1  and  C_2
REMARK    2  A    between atoms: C_2  and  S_4
REMARK    3  A    between atoms: S_4  and  C_5
REMARK    4  A    between atoms: C_5  and  C_6
REMARK    5  A    between atoms: N_10  and  C_11
REMARK                            x       y       z     vdW  Elec       q    Type
REMARK                         _______ _______ _______ _____ _____    ______ ____
ROOT
ATOM      1  C   UNL     1       4.385   3.497  17.962  0.00  0.00    +0.000 C 
ATOM      2  C   UNL     1       3.021   3.197  17.366  0.00  0.00    +0.000 C 
ATOM      3  C   UNL     1       2.156   4.360  17.746  0.00  0.00    +0.000 C 
ATOM      4  O   UNL     1       0.989   4.416  17.381  0.00  0.00    +0.000 OA
ATOM      5  N   UNL     1       2.869   5.226  18.543  0.00  0.00    +0.000 N 
ATOM      6  C   UNL     1       4.167   4.787  18.716  0.00  0.00    +0.000 C 
ATOM      7  O   UNL     1       5.061   5.314  19.365  0.00  0.00    +0.000 OA
ENDROOT
BRANCH   5   8
ATOM      8  C   UNL     1       2.325   6.420  19.133  0.00  0.00    +0.000 A 
ATOM      9  C   UNL     1       1.820   6.430  20.444  0.00  0.00    +0.000 A 
ATOM     10  C   UNL     1       1.295   7.593  21.029  0.00  0.00    +0.000 A 
ATOM     11  C   UNL     1       1.261   8.787  20.315  0.00  0.00    +0.000 A 
ATOM     12 CL   UNL     1       0.607  10.180  21.095  0.00  0.00    +0.000 Cl
ATOM     13  C   UNL     1       1.755   8.810  19.012  0.00  0.00    +0.000 A 
ATOM     14 CL   UNL     1       1.761  10.252  18.057  0.00  0.00    +0.000 Cl
ATOM     15  C   UNL     1       2.277   7.640  18.433  0.00  0.00    +0.000 A 
ENDBRANCH   5   8
BRANCH   1  16
ATOM     16  C   UNL     1       5.433   3.604  16.850  0.00  0.00    +0.000 C 
BRANCH  16  17
ATOM     17  S   UNL     1       5.274   5.090  15.809  0.00  0.00    +0.000 S 
BRANCH  17  19
ATOM     18  C   UNL     1       7.264   6.474  17.111  0.00  0.00    +0.000 C 
ATOM     19  C   UNL     1       6.941   5.659  15.892  0.00  0.00    +0.000 C 
ATOM     20  O   UNL     1       7.756   5.410  15.013  0.00  0.00    +0.000 OA
ENDBRANCH  17  19
ENDBRANCH  16  17
ENDBRANCH   1  16
TORSDOF 4
ENDMDL
MODEL 5
REMARK VINA RESULT:      -6.7      4.211      6.439
REMARK  Name = 
REMARK  5 active torsions:
REMARK  status: ('A' for Active; 'I' for Inactive)
REMARK    1  A    between atoms: C_1  and  C_2
REMARK    2  A    between atoms: C_2  and  S_4
REMARK    3  A    between atoms: S_4  and  C_5
REMARK    4  A    between atoms: C_5  and  C_6
REMARK    5  A    between atoms: N_10  and  C_11
REMARK                            x       y       z     vdW  Elec       q    Type
REMARK                         _______ _______ _______ _____ _____    ______ ____
ROOT
ATOM      1  C   UNL     1       7.912   6.580  18.019  0.00  0.00    +0.000 C 
ATOM      2  C   UNL     1       7.335   6.956  16.665  0.00  0.00    +0.000 C 
ATOM      3  C   UNL     1       5.942   6.404  16.658  0.00  0.00    +0.000 C 
ATOM      4  O   UNL     1       5.208   6.573  15.693  0.00  0.00    +0.000 OA
ATOM      5  N   UNL     1       5.715   5.706  17.823  0.00  0.00    +0.000 N 
ATOM      6  C   UNL     1       6.815   5.760  18.656  0.00  0.00    +0.000 C 
ATOM      7  O   UNL     1       6.950   5.248  19.760  0.00  0.00    +0.000 OA
ENDROOT
BRANCH   5   8
ATOM      8  C   UNL     1       4.499   4.998  18.119  0.00  0.00    +0.000 A 
ATOM      9  C   UNL     1       4.138   3.830  17.427  0.00  0.00    +0.000 A 
ATOM     10  C   UNL     1       2.957   3.129  17.717  0.00  0.00    +0.000 A 
ATOM     11  C   UNL     1       2.099   3.578  18.715  0.00  0.00    +0.000 A 
ATOM     12 CL   UNL     1       0.666   2.668  19.024  0.00  0.00    +0.000 Cl
ATOM     13  C   UNL     1       2.428   4.734  19.422  0.00  0.00    +0.000 A 
ATOM     14 CL   UNL     1       1.424   5.357  20.685  0.00  0.00    +0.000 Cl
ATOM     15  C   UNL     1       3.612   5.430  19.123  0.00  0.00    +0.000 A 
ENDBRANCH   5   8
BRANCH   1  16
ATOM     16  C   UNL     1       8.271   7.843  18.806  0.00  0.00    +0.000 C 
BRANCH  16  17
ATOM     17  S   UNL     1       8.145   9.387  17.850  0.00  0.00    +0.000 S 
BRANCH  17  19
ATOM     18  C   UNL     1      10.088  11.330  17.998  0.00  0.00    +0.000 C 
ATOM     19  C   UNL     1       9.239  10.389  18.804  0.00  0.00    +0.000 C 
ATOM     20  O   UNL     1       9.296  10.306  20.024  0.00  0.00    +0.000 OA
ENDBRANCH  17  19
ENDBRANCH  16  17
ENDBRANCH   1  16
TORSDOF 4
ENDMDL
MODEL 6
REMARK VINA RESULT:      -6.7      4.554      6.786
REMARK  Name = 
REMARK  5 active torsions:
REMARK  status: ('A' for Active; 'I' for Inactive)
REMARK    1  A    between atoms: C_1  and  C_2
REMARK    2  A    between atoms: C_2  and  S_4
REMARK    3  A    between atoms: S_4  and  C_5
REMARK    4  A    between atoms: C_5  and  C_6
REMARK    5  A    between atoms: N_10  and  C_11
REMARK                            x       y       z     vdW  Elec       q    Type
REMARK                         _______ _______ _______ _____ _____    ______ ____
ROOT
ATOM      1  C   UNL     1       7.994   6.693  18.124  0.00  0.00    +0.000 C 
ATOM      2  C   UNL     1       7.200   7.004  16.867  0.00  0.00    +0.000 C 
ATOM      3  C   UNL     1       5.838   6.425  17.101  0.00  0.00    +0.000 C 
ATOM      4  O   UNL     1       4.957   6.542  16.260  0.00  0.00    +0.000 OA
ATOM      5  N   UNL     1       5.817   5.769  18.311  0.00  0.00    +0.000 N 
ATOM      6  C   UNL     1       7.033   5.877  18.956  0.00  0.00    +0.000 C 
ATOM      7  O   UNL     1       7.354   5.410  20.041  0.00  0.00    +0.000 OA
ENDROOT
BRANCH   5   8
ATOM      8  C   UNL     1       4.682   5.049  18.822  0.00  0.00    +0.000 A 
ATOM      9  C   UNL     1       3.722   5.668  19.641  0.00  0.00    +0.000 A 
ATOM     10  C   UNL     1       2.608   4.973  20.136  0.00  0.00    +0.000 A 
ATOM     11  C   UNL     1       2.419   3.631  19.824  0.00  0.00    +0.000 A 
ATOM     12 CL   UNL     1       1.026   2.838  20.462  0.00  0.00    +0.000 Cl
ATOM     13  C   UNL     1       3.352   2.987  19.013  0.00  0.00    +0.000 A 
ATOM     14 CL   UNL     1       3.190   1.324  18.567  0.00  0.00    +0.000 Cl
ATOM     15  C   UNL     1       4.466   3.690  18.523  0.00  0.00    +0.000 A 
ENDBRANCH   5   8
BRANCH   1  16
ATOM     16  C   UNL     1       8.441   7.992  18.799  0.00  0.00    +0.000 C 
BRANCH  16  17
ATOM     17  S   UNL     1       8.124   9.495  17.822  0.00  0.00    +0.000 S 
BRANCH  17  19
ATOM     18  C   UNL     1       9.385  10.610  19.999  0.00  0.00    +0.000 C 
ATOM     19  C   UNL     1       9.381  10.530  18.499  0.00  0.00    +0.000 C 
ATOM     20  O   UNL     1      10.174  11.136  17.790  0.00  0.00    +0.000 OA
ENDBRANCH  17  19
ENDBRANCH  16  17
ENDBRANCH   1  16
TORSDOF 4
ENDMDL
MODEL 7
REMARK VINA RESULT:      -6.7      1.057      1.785
REMARK  Name = 
REMARK  5 active torsions:
REMARK  status: ('A' for Active; 'I' for Inactive)
REMARK    1  A    between atoms: C_1  and  C_2
REMARK    2  A    between atoms: C_2  and  S_4
REMARK    3  A    between atoms: S_4  and  C_5
REMARK    4  A    between atoms: C_5  and  C_6
REMARK    5  A    between atoms: N_10  and  C_11
REMARK                            x       y       z     vdW  Elec       q    Type
REMARK                         _______ _______ _______ _____ _____    ______ ____
ROOT
ATOM      1  C   UNL     1       3.358   3.460  17.211  0.00  0.00    +0.000 C 
ATOM      2  C   UNL     1       4.700   3.927  17.748  0.00  0.00    +0.000 C 
ATOM      3  C   UNL     1       4.404   5.168  18.534  0.00  0.00    +0.000 C 
ATOM      4  O   UNL     1       5.299   5.767  19.116  0.00  0.00    +0.000 OA
ATOM      5  N   UNL     1       3.066   5.474  18.429  0.00  0.00    +0.000 N 
ATOM      6  C   UNL     1       2.399   4.532  17.672  0.00  0.00    +0.000 C 
ATOM      7  O   UNL     1       1.210   4.503  17.381  0.00  0.00    +0.000 OA
ENDROOT
BRANCH   5   8
ATOM      8  C   UNL     1       2.453   6.636  19.015  0.00  0.00    +0.000 A 
ATOM      9  C   UNL     1       1.939   6.619  20.323  0.00  0.00    +0.000 A 
ATOM     10  C   UNL     1       1.347   7.751  20.903  0.00  0.00    +0.000 A 
ATOM     11  C   UNL     1       1.251   8.941  20.188  0.00  0.00    +0.000 A 
ATOM     12 CL   UNL     1       0.515  10.296  20.962  0.00  0.00    +0.000 Cl
ATOM     13  C   UNL     1       1.751   8.991  18.888  0.00  0.00    +0.000 A 
ATOM     14 CL   UNL     1       1.684  10.431  17.932  0.00  0.00    +0.000 Cl
ATOM     15  C   UNL     1       2.341   7.852  18.314  0.00  0.00    +0.000 A 
ENDBRANCH   5   8
BRANCH   1  16
ATOM     16  C   UNL     1       3.030   2.067  17.756  0.00  0.00    +0.000 C 
BRANCH  16  17
ATOM     17  S   UNL     1       3.513   1.805  19.492  0.00  0.00    +0.000 S 
BRANCH  17  19
ATOM     18  C   UNL     1       2.297   3.121  21.580  0.00  0.00    +0.000 C 
ATOM     19  C   UNL     1       2.057   2.417  20.275  0.00  0.00    +0.000 C 
ATOM     20  O   UNL     1       0.944   2.265  19.787  0.00  0.00    +0.000 OA
ENDBRANCH  17  19
ENDBRANCH  16  17
ENDBRANCH   1  16
TORSDOF 4
ENDMDL
MODEL 8
REMARK VINA RESULT:      -6.6      1.767      3.519
REMARK  Name = 
REMARK  5 active torsions:
REMARK  status: ('A' for Active; 'I' for Inactive)
REMARK    1  A    between atoms: C_1  and  C_2
REMARK    2  A    between atoms: C_2  and  S_4
REMARK    3  A    between atoms: S_4  and  C_5
REMARK    4  A    between atoms: C_5  and  C_6
REMARK    5  A    between atoms: N_10  and  C_11
REMARK                            x       y       z     vdW  Elec       q    Type
REMARK                         _______ _______ _______ _____ _____    ______ ____
ROOT
ATOM      1  C   UNL     1       4.104   3.523  18.562  0.00  0.00    +0.000 C 
ATOM      2  C   UNL     1       2.792   3.248  17.847  0.00  0.00    +0.000 C 
ATOM      3  C   UNL     1       2.040   4.544  17.881  0.00  0.00    +0.000 C 
ATOM      4  O   UNL     1       0.941   4.642  17.353  0.00  0.00    +0.000 OA
ATOM      5  N   UNL     1       2.757   5.475  18.598  0.00  0.00    +0.000 N 
ATOM      6  C   UNL     1       3.960   4.952  19.028  0.00  0.00    +0.000 C 
ATOM      7  O   UNL     1       4.830   5.506  19.689  0.00  0.00    +0.000 OA
ENDROOT
BRANCH   5   8
ATOM      8  C   UNL     1       2.299   6.810  18.877  0.00  0.00    +0.000 A 
ATOM      9  C   UNL     1       2.270   7.803  17.883  0.00  0.00    +0.000 A 
ATOM     10  C   UNL     1       1.817   9.105  18.146  0.00  0.00    +0.000 A 
ATOM     11  C   UNL     1       1.376   9.453  19.419  0.00  0.00    +0.000 A 
ATOM     12 CL   UNL     1       0.828  11.069  19.674  0.00  0.00    +0.000 Cl
ATOM     13  C   UNL     1       1.393   8.492  20.428  0.00  0.00    +0.000 A 
ATOM     14 CL   UNL     1       0.854   8.835  22.035  0.00  0.00    +0.000 Cl
ATOM     15  C   UNL     1       1.850   7.191  20.155  0.00  0.00    +0.000 A 
ENDBRANCH   5   8
BRANCH   1  16
ATOM     16  C   UNL     1       5.280   3.303  17.607  0.00  0.00    +0.000 C 
BRANCH  16  17
ATOM     17  S   UNL     1       5.554   4.662  16.427  0.00  0.00    +0.000 S 
BRANCH  17  19
ATOM     18  C   UNL     1       7.255   6.651  17.277  0.00  0.00    +0.000 C 
ATOM     19  C   UNL     1       7.146   5.184  16.976  0.00  0.00    +0.000 C 
ATOM     20  O   UNL     1       8.082   4.402  17.090  0.00  0.00    +0.000 OA
ENDBRANCH  17  19
ENDBRANCH  16  17
ENDBRANCH   1  16
TORSDOF 4
ENDMDL
MODEL 9
REMARK VINA RESULT:      -6.5      3.658      5.940
REMARK  Name = 
REMARK  5 active torsions:
REMARK  status: ('A' for Active; 'I' for Inactive)
REMARK    1  A    between atoms: C_1  and  C_2
REMARK    2  A    between atoms: C_2  and  S_4
REMARK    3  A    between atoms: S_4  and  C_5
REMARK    4  A    between atoms: C_5  and  C_6
REMARK    5  A    between atoms: N_10  and  C_11
REMARK                            x       y       z     vdW  Elec       q    Type
REMARK                         _______ _______ _______ _____ _____    ______ ____
ROOT
ATOM      1  C   UNL     1       6.742   5.805  16.514  0.00  0.00    +0.000 C 
ATOM      2  C   UNL     1       7.599   5.965  17.758  0.00  0.00    +0.000 C 
ATOM      3  C   UNL     1       6.782   5.401  18.880  0.00  0.00    +0.000 C 
ATOM      4  O   UNL     1       7.225   5.367  20.021  0.00  0.00    +0.000 OA
ATOM      5  N   UNL     1       5.548   5.017  18.407  0.00  0.00    +0.000 N 
ATOM      6  C   UNL     1       5.451   5.228  17.046  0.00  0.00    +0.000 C 
ATOM      7  O   UNL     1       4.496   5.001  16.313  0.00  0.00    +0.000 OA
ENDROOT
BRANCH   5   8
ATOM      8  C   UNL     1       4.493   4.487  19.228  0.00  0.00    +0.000 A 
ATOM      9  C   UNL     1       4.467   3.136  19.615  0.00  0.00    +0.000 A 
ATOM     10  C   UNL     1       3.445   2.615  20.424  0.00  0.00    +0.000 A 
ATOM     11  C   UNL     1       2.414   3.434  20.873  0.00  0.00    +0.000 A 
ATOM     12 CL   UNL     1       1.192   2.730  21.867  0.00  0.00    +0.000 Cl
ATOM     13  C   UNL     1       2.411   4.779  20.507  0.00  0.00    +0.000 A 
ATOM     14 CL   UNL     1       1.174   5.870  21.028  0.00  0.00    +0.000 Cl
ATOM     15  C   UNL     1       3.437   5.292  19.695  0.00  0.00    +0.000 A 
ENDBRANCH   5   8
BRANCH   1  16
ATOM     16  C   UNL     1       7.449   4.899  15.502  0.00  0.00    +0.000 C 
BRANCH  16  17
ATOM     17  S   UNL     1       6.386   4.318  14.142  0.00  0.00    +0.000 S 
BRANCH  17  19
ATOM     18  C   UNL     1       7.221   3.986  11.542  0.00  0.00    +0.000 C 
ATOM     19  C   UNL     1       7.388   4.818  12.780  0.00  0.00    +0.000 C 
ATOM     20  O   UNL     1       8.161   5.765  12.856  0.00  0.00    +0.000 OA
ENDBRANCH  17  19
ENDBRANCH  16  17
ENDBRANCH   1  16
TORSDOF 4
ENDMDL
