MODEL 1
REMARK VINA RESULT:      -7.9      0.000      0.000
REMARK  Name = 
REMARK  2 active torsions:
REMARK  status: ('A' for Active; 'I' for Inactive)
REMARK    1  A    between atoms: C_2  and  O_3
REMARK    2  A    between atoms: C_2  and  C_4
REMARK                            x       y       z     vdW  Elec       q    Type
REMARK                         _______ _______ _______ _____ _____    ______ ____
ROOT
ATOM      1  C   UNL     1       6.871   5.474  15.273  0.00  0.00    +0.000 C 
ATOM      2  C   UNL     1       5.358   5.667  15.194  0.00  0.00    +0.000 C 
ATOM      3  C   UNL     1       4.756   5.866  16.565  0.00  0.00    +0.000 C 
ATOM      4  C   UNL     1       5.073   4.753  17.589  0.00  0.00    +0.000 C 
ATOM      5  C   UNL     1       6.608   4.584  17.664  0.00  0.00    +0.000 C 
ATOM      6  C   UNL     1       7.248   4.372  16.278  0.00  0.00    +0.000 C 
ATOM      7  C   UNL     1       4.393   3.416  17.198  0.00  0.00    +0.000 C 
ATOM      8  O   UNL     1       4.148   2.561  18.322  0.00  0.00    +0.000 OA
ATOM      9  C   UNL     1       3.479   3.271  19.367  0.00  0.00    +0.000 C 
ATOM     10  C   UNL     1       2.104   3.769  18.864  0.00  0.00    +0.000 C 
ATOM     11  C   UNL     1       1.094   4.218  19.906  0.00  0.00    +0.000 C 
ATOM     12  C   UNL     1       1.032   3.358  21.156  0.00  0.00    +0.000 C 
ATOM     13  C   UNL     1       2.395   2.894  21.655  0.00  0.00    +0.000 C 
ATOM     14  C   UNL     1       3.269   2.304  20.544  0.00  0.00    +0.000 C 
ATOM     15  O   UNL     1       4.378   4.291  19.829  0.00  0.00    +0.000 OA
ATOM     16  O   UNL     1       4.504   5.309  18.792  0.00  0.00    +0.000 OA
ENDROOT
BRANCH   1  18
ATOM     17  O   UNL     1       8.331   5.712  13.355  0.00  0.00    +0.000 OA
ATOM     18  C   UNL     1       7.384   5.163  13.878  0.00  0.00    +0.000 C 
BRANCH  18  19
ATOM     19  O   UNL     1       6.697   4.162  13.276  0.00  0.00    +0.000 OA
ATOM     20  H   UNL     1       7.158   3.741  12.524  0.00  0.00    +0.000 HD
ENDBRANCH  18  19
ENDBRANCH   1  18
TORSDOF 2
ENDMDL
MODEL 2
REMARK VINA RESULT:      -6.5      2.502      3.548
REMARK  Name = 
REMARK  2 active torsions:
REMARK  status: ('A' for Active; 'I' for Inactive)
REMARK    1  A    between atoms: C_2  and  O_3
REMARK    2  A    between atoms: C_2  and  C_4
REMARK                            x       y       z     vdW  Elec       q    Type
REMARK                         _______ _______ _______ _____ _____    ______ ____
ROOT
ATOM      1  C   UNL     1       7.570   7.141  17.624  0.00  0.00    +0.000 C 
ATOM      2  C   UNL     1       7.493   6.235  18.851  0.00  0.00    +0.000 C 
ATOM      3  C   UNL     1       6.694   4.985  18.562  0.00  0.00    +0.000 C 
ATOM      4  C   UNL     1       5.266   5.231  18.020  0.00  0.00    +0.000 C 
ATOM      5  C   UNL     1       5.369   6.138  16.773  0.00  0.00    +0.000 C 
ATOM      6  C   UNL     1       6.175   7.424  17.041  0.00  0.00    +0.000 C 
ATOM      7  C   UNL     1       4.358   5.878  19.097  0.00  0.00    +0.000 C 
ATOM      8  O   UNL     1       2.966   5.600  18.898  0.00  0.00    +0.000 OA
ATOM      9  C   UNL     1       2.747   4.199  18.717  0.00  0.00    +0.000 C 
ATOM     10  C   UNL     1       3.189   3.432  19.985  0.00  0.00    +0.000 C 
ATOM     11  C   UNL     1       2.710   1.999  20.143  0.00  0.00    +0.000 C 
ATOM     12  C   UNL     1       1.270   1.752  19.731  0.00  0.00    +0.000 C 
ATOM     13  C   UNL     1       0.854   2.494  18.467  0.00  0.00    +0.000 C 
ATOM     14  C   UNL     1       1.243   3.975  18.488  0.00  0.00    +0.000 C 
ATOM     15  O   UNL     1       3.408   3.821  17.500  0.00  0.00    +0.000 OA
ATOM     16  O   UNL     1       4.850   3.885  17.711  0.00  0.00    +0.000 OA
ENDROOT
BRANCH   1  18
ATOM     17  O   UNL     1       8.215   9.467  17.413  0.00  0.00    +0.000 OA
ATOM     18  C   UNL     1       8.282   8.421  18.025  0.00  0.00    +0.000 C 
BRANCH  18  19
ATOM     19  O   UNL     1       8.982   8.296  19.179  0.00  0.00    +0.000 OA
ATOM     20  H   UNL     1       9.870   8.703  19.168  0.00  0.00    +0.000 HD
ENDBRANCH  18  19
ENDBRANCH   1  18
TORSDOF 2
ENDMDL
MODEL 3
REMARK VINA RESULT:      -6.4      1.918      6.687
REMARK  Name = 
REMARK  2 active torsions:
REMARK  status: ('A' for Active; 'I' for Inactive)
REMARK    1  A    between atoms: C_2  and  O_3
REMARK    2  A    between atoms: C_2  and  C_4
REMARK                            x       y       z     vdW  Elec       q    Type
REMARK                         _______ _______ _______ _____ _____    ______ ____
ROOT
ATOM      1  C   UNL     1       3.472   4.378  19.608  0.00  0.00    +0.000 C 
ATOM      2  C   UNL     1       2.836   3.897  18.306  0.00  0.00    +0.000 C 
ATOM      3  C   UNL     1       3.868   3.306  17.375  0.00  0.00    +0.000 C 
ATOM      4  C   UNL     1       5.061   4.232  17.045  0.00  0.00    +0.000 C 
ATOM      5  C   UNL     1       5.698   4.696  18.375  0.00  0.00    +0.000 C 
ATOM      6  C   UNL     1       4.668   5.310  19.342  0.00  0.00    +0.000 C 
ATOM      7  C   UNL     1       4.612   5.450  16.197  0.00  0.00    +0.000 C 
ATOM      8  O   UNL     1       5.667   5.992  15.392  0.00  0.00    +0.000 OA
ATOM      9  C   UNL     1       6.313   4.963  14.638  0.00  0.00    +0.000 C 
ATOM     10  C   UNL     1       5.298   4.303  13.676  0.00  0.00    +0.000 C 
ATOM     11  C   UNL     1       5.851   3.454  12.544  0.00  0.00    +0.000 C 
ATOM     12  C   UNL     1       7.088   4.014  11.864  0.00  0.00    +0.000 C 
ATOM     13  C   UNL     1       8.091   4.640  12.824  0.00  0.00    +0.000 C 
ATOM     14  C   UNL     1       7.442   5.609  13.817  0.00  0.00    +0.000 C 
ATOM     15  O   UNL     1       6.943   4.081  15.579  0.00  0.00    +0.000 OA
ATOM     16  O   UNL     1       5.908   3.340  16.291  0.00  0.00    +0.000 OA
ENDROOT
BRANCH   1  18
ATOM     17  O   UNL     1       1.552   4.481  21.081  0.00  0.00    +0.000 OA
ATOM     18  C   UNL     1       2.399   5.063  20.436  0.00  0.00    +0.000 C 
BRANCH  18  19
ATOM     19  O   UNL     1       2.505   6.414  20.422  0.00  0.00    +0.000 OA
ATOM     20  H   UNL     1       1.833   6.874  19.882  0.00  0.00    +0.000 HD
ENDBRANCH  18  19
ENDBRANCH   1  18
TORSDOF 2
ENDMDL
MODEL 4
REMARK VINA RESULT:      -6.2      3.019      4.058
REMARK  Name = 
REMARK  2 active torsions:
REMARK  status: ('A' for Active; 'I' for Inactive)
REMARK    1  A    between atoms: C_2  and  O_3
REMARK    2  A    between atoms: C_2  and  C_4
REMARK                            x       y       z     vdW  Elec       q    Type
REMARK                         _______ _______ _______ _____ _____    ______ ____
ROOT
ATOM      1  C   UNL     1       8.056   8.029  17.738  0.00  0.00    +0.000 C 
ATOM      2  C   UNL     1       8.114   6.962  18.829  0.00  0.00    +0.000 C 
ATOM      3  C   UNL     1       7.539   5.650  18.348  0.00  0.00    +0.000 C 
ATOM      4  C   UNL     1       6.099   5.730  17.792  0.00  0.00    +0.000 C 
ATOM      5  C   UNL     1       6.065   6.804  16.681  0.00  0.00    +0.000 C 
ATOM      6  C   UNL     1       6.640   8.156  17.147  0.00  0.00    +0.000 C 
ATOM      7  C   UNL     1       5.080   6.066  18.911  0.00  0.00    +0.000 C 
ATOM      8  O   UNL     1       3.758   5.592  18.626  0.00  0.00    +0.000 OA
ATOM      9  C   UNL     1       3.779   4.213  18.253  0.00  0.00    +0.000 C 
ATOM     10  C   UNL     1       4.325   3.362  19.423  0.00  0.00    +0.000 C 
ATOM     11  C   UNL     1       4.091   1.862  19.372  0.00  0.00    +0.000 C 
ATOM     12  C   UNL     1       2.719   1.441  18.878  0.00  0.00    +0.000 C 
ATOM     13  C   UNL     1       2.202   2.271  17.709  0.00  0.00    +0.000 C 
ATOM     14  C   UNL     1       2.337   3.779  17.942  0.00  0.00    +0.000 C 
ATOM     15  O   UNL     1       4.511   4.119  17.021  0.00  0.00    +0.000 OA
ATOM     16  O   UNL     1       5.918   4.389  17.291  0.00  0.00    +0.000 OA
ENDROOT
BRANCH   1  18
ATOM     17  O   UNL     1       9.264   9.434  19.298  0.00  0.00    +0.000 OA
ATOM     18  C   UNL     1       8.537   9.341  18.331  0.00  0.00    +0.000 C 
BRANCH  18  19
ATOM     19  O   UNL     1       8.106  10.423  17.637  0.00  0.00    +0.000 OA
ATOM     20  H   UNL     1       7.137  10.550  17.635  0.00  0.00    +0.000 HD
ENDBRANCH  18  19
ENDBRANCH   1  18
TORSDOF 2
ENDMDL
MODEL 5
REMARK VINA RESULT:      -5.9      1.273      1.734
REMARK  Name = 
REMARK  2 active torsions:
REMARK  status: ('A' for Active; 'I' for Inactive)
REMARK    1  A    between atoms: C_2  and  O_3
REMARK    2  A    between atoms: C_2  and  C_4
REMARK                            x       y       z     vdW  Elec       q    Type
REMARK                         _______ _______ _______ _____ _____    ______ ____
ROOT
ATOM      1  C   UNL     1       7.256   4.502  15.005  0.00  0.00    +0.000 C 
ATOM      2  C   UNL     1       6.894   5.601  16.001  0.00  0.00    +0.000 C 
ATOM      3  C   UNL     1       6.347   5.023  17.285  0.00  0.00    +0.000 C 
ATOM      4  C   UNL     1       5.138   4.074  17.113  0.00  0.00    +0.000 C 
ATOM      5  C   UNL     1       5.530   2.962  16.113  0.00  0.00    +0.000 C 
ATOM      6  C   UNL     1       6.086   3.526  14.791  0.00  0.00    +0.000 C 
ATOM      7  C   UNL     1       3.885   4.841  16.618  0.00  0.00    +0.000 C 
ATOM      8  O   UNL     1       2.655   4.206  16.990  0.00  0.00    +0.000 OA
ATOM      9  C   UNL     1       2.639   3.904  18.387  0.00  0.00    +0.000 C 
ATOM     10  C   UNL     1       2.742   5.211  19.206  0.00  0.00    +0.000 C 
ATOM     11  C   UNL     1       2.379   5.149  20.680  0.00  0.00    +0.000 C 
ATOM     12  C   UNL     1       1.165   4.297  21.008  0.00  0.00    +0.000 C 
ATOM     13  C   UNL     1       1.087   3.001  20.212  0.00  0.00    +0.000 C 
ATOM     14  C   UNL     1       1.306   3.208  18.710  0.00  0.00    +0.000 C 
ATOM     15  O   UNL     1       3.674   2.938  18.623  0.00  0.00    +0.000 OA
ATOM     16  O   UNL     1       4.969   3.591  18.462  0.00  0.00    +0.000 OA
ENDROOT
BRANCH   1  18
ATOM     17  O   UNL     1       8.578   5.975  13.608  0.00  0.00    +0.000 OA
ATOM     18  C   UNL     1       7.684   5.160  13.705  0.00  0.00    +0.000 C 
BRANCH  18  19
ATOM     19  O   UNL     1       6.988   4.711  12.633  0.00  0.00    +0.000 OA
ATOM     20  H   UNL     1       7.289   5.059  11.771  0.00  0.00    +0.000 HD
ENDBRANCH  18  19
ENDBRANCH   1  18
TORSDOF 2
ENDMDL
MODEL 6
REMARK VINA RESULT:      -5.9      1.992      6.687
REMARK  Name = 
REMARK  2 active torsions:
REMARK  status: ('A' for Active; 'I' for Inactive)
REMARK    1  A    between atoms: C_2  and  O_3
REMARK    2  A    between atoms: C_2  and  C_4
REMARK                            x       y       z     vdW  Elec       q    Type
REMARK                         _______ _______ _______ _____ _____    ______ ____
ROOT
ATOM      1  C   UNL     1       2.452   2.604  20.133  0.00  0.00    +0.000 C 
ATOM      2  C   UNL     1       2.019   2.375  18.686  0.00  0.00    +0.000 C 
ATOM      3  C   UNL     1       3.210   2.171  17.780  0.00  0.00    +0.000 C 
ATOM      4  C   UNL     1       4.266   3.299  17.821  0.00  0.00    +0.000 C 
ATOM      5  C   UNL     1       4.701   3.505  19.290  0.00  0.00    +0.000 C 
ATOM      6  C   UNL     1       3.504   3.723  20.237  0.00  0.00    +0.000 C 
ATOM      7  C   UNL     1       3.708   4.616  17.224  0.00  0.00    +0.000 C 
ATOM      8  O   UNL     1       4.731   5.473  16.701  0.00  0.00    +0.000 OA
ATOM      9  C   UNL     1       5.596   4.754  15.819  0.00  0.00    +0.000 C 
ATOM     10  C   UNL     1       4.788   4.220  14.613  0.00  0.00    +0.000 C 
ATOM     11  C   UNL     1       5.567   3.754  13.395  0.00  0.00    +0.000 C 
ATOM     12  C   UNL     1       6.754   4.622  13.019  0.00  0.00    +0.000 C 
ATOM     13  C   UNL     1       7.557   5.122  14.214  0.00  0.00    +0.000 C 
ATOM     14  C   UNL     1       6.677   5.725  15.314  0.00  0.00    +0.000 C 
ATOM     15  O   UNL     1       6.271   3.761  16.605  0.00  0.00    +0.000 OA
ATOM     16  O   UNL     1       5.307   2.738  16.995  0.00  0.00    +0.000 OA
ENDROOT
BRANCH   1  18
ATOM     17  O   UNL     1       1.074   2.627  22.125  0.00  0.00    +0.000 OA
ATOM     18  C   UNL     1       1.215   2.918  20.955  0.00  0.00    +0.000 C 
BRANCH  18  19
ATOM     19  O   UNL     1       0.279   3.607  20.258  0.00  0.00    +0.000 OA
ATOM     20  H   UNL     1       0.295   4.575  20.394  0.00  0.00    +0.000 HD
ENDBRANCH  18  19
ENDBRANCH   1  18
TORSDOF 2
ENDMDL
MODEL 7
REMARK VINA RESULT:      -5.8      1.263      1.762
REMARK  Name = 
REMARK  2 active torsions:
REMARK  status: ('A' for Active; 'I' for Inactive)
REMARK    1  A    between atoms: C_2  and  O_3
REMARK    2  A    between atoms: C_2  and  C_4
REMARK                            x       y       z     vdW  Elec       q    Type
REMARK                         _______ _______ _______ _____ _____    ______ ____
ROOT
ATOM      1  C   UNL     1       5.941   5.226  14.542  0.00  0.00    +0.000 C 
ATOM      2  C   UNL     1       5.515   3.796  14.870  0.00  0.00    +0.000 C 
ATOM      3  C   UNL     1       4.215   3.772  15.638  0.00  0.00    +0.000 C 
ATOM      4  C   UNL     1       4.204   4.615  16.934  0.00  0.00    +0.000 C 
ATOM      5  C   UNL     1       4.624   6.060  16.579  0.00  0.00    +0.000 C 
ATOM      6  C   UNL     1       5.952   6.114  15.798  0.00  0.00    +0.000 C 
ATOM      7  C   UNL     1       5.151   4.016  18.005  0.00  0.00    +0.000 C 
ATOM      8  O   UNL     1       4.770   4.355  19.345  0.00  0.00    +0.000 OA
ATOM      9  C   UNL     1       3.386   4.073  19.567  0.00  0.00    +0.000 C 
ATOM     10  C   UNL     1       3.125   2.559  19.388  0.00  0.00    +0.000 C 
ATOM     11  C   UNL     1       1.820   2.001  19.930  0.00  0.00    +0.000 C 
ATOM     12  C   UNL     1       1.392   2.557  21.277  0.00  0.00    +0.000 C 
ATOM     13  C   UNL     1       1.632   4.053  21.432  0.00  0.00    +0.000 C 
ATOM     14  C   UNL     1       3.042   4.479  21.010  0.00  0.00    +0.000 C 
ATOM     15  O   UNL     1       2.633   4.940  18.706  0.00  0.00    +0.000 OA
ATOM     16  O   UNL     1       2.820   4.506  17.326  0.00  0.00    +0.000 OA
ENDROOT
BRANCH   1  18
ATOM     17  O   UNL     1       8.303   5.714  14.311  0.00  0.00    +0.000 OA
ATOM     18  C   UNL     1       7.306   5.174  13.878  0.00  0.00    +0.000 C 
BRANCH  18  19
ATOM     19  O   UNL     1       7.317   4.415  12.755  0.00  0.00    +0.000 OA
ATOM     20  H   UNL     1       6.484   4.422  12.245  0.00  0.00    +0.000 HD
ENDBRANCH  18  19
ENDBRANCH   1  18
TORSDOF 2
ENDMDL
MODEL 8
REMARK VINA RESULT:      -5.8      1.386      1.666
REMARK  Name = 
REMARK  2 active torsions:
REMARK  status: ('A' for Active; 'I' for Inactive)
REMARK    1  A    between atoms: C_2  and  O_3
REMARK    2  A    between atoms: C_2  and  C_4
REMARK                            x       y       z     vdW  Elec       q    Type
REMARK                         _______ _______ _______ _____ _____    ______ ____
ROOT
ATOM      1  C   UNL     1       7.040   4.909  14.741  0.00  0.00    +0.000 C 
ATOM      2  C   UNL     1       6.107   6.094  14.982  0.00  0.00    +0.000 C 
ATOM      3  C   UNL     1       5.812   6.273  16.453  0.00  0.00    +0.000 C 
ATOM      4  C   UNL     1       5.242   5.024  17.164  0.00  0.00    +0.000 C 
ATOM      5  C   UNL     1       6.208   3.842  16.920  0.00  0.00    +0.000 C 
ATOM      6  C   UNL     1       6.521   3.633  15.425  0.00  0.00    +0.000 C 
ATOM      7  C   UNL     1       3.818   4.685  16.653  0.00  0.00    +0.000 C 
ATOM      8  O   UNL     1       3.033   3.969  17.615  0.00  0.00    +0.000 OA
ATOM      9  C   UNL     1       3.055   4.628  18.883  0.00  0.00    +0.000 C 
ATOM     10  C   UNL     1       2.438   6.039  18.750  0.00  0.00    +0.000 C 
ATOM     11  C   UNL     1       2.035   6.754  20.028  0.00  0.00    +0.000 C 
ATOM     12  C   UNL     1       1.373   5.877  21.076  0.00  0.00    +0.000 C 
ATOM     13  C   UNL     1       2.005   4.497  21.214  0.00  0.00    +0.000 C 
ATOM     14  C   UNL     1       2.214   3.798  19.867  0.00  0.00    +0.000 C 
ATOM     15  O   UNL     1       4.408   4.583  19.360  0.00  0.00    +0.000 OA
ATOM     16  O   UNL     1       5.224   5.468  18.536  0.00  0.00    +0.000 OA
ENDROOT
BRANCH   1  18
ATOM     17  O   UNL     1       6.661   3.839  12.601  0.00  0.00    +0.000 OA
ATOM     18  C   UNL     1       7.193   4.722  13.242  0.00  0.00    +0.000 C 
BRANCH  18  19
ATOM     19  O   UNL     1       7.959   5.680  12.667  0.00  0.00    +0.000 OA
ATOM     20  H   UNL     1       8.918   5.599  12.839  0.00  0.00    +0.000 HD
ENDBRANCH  18  19
ENDBRANCH   1  18
TORSDOF 2
ENDMDL
MODEL 9
REMARK VINA RESULT:      -5.5      9.734     11.019
REMARK  Name = 
REMARK  2 active torsions:
REMARK  status: ('A' for Active; 'I' for Inactive)
REMARK    1  A    between atoms: C_2  and  O_3
REMARK    2  A    between atoms: C_2  and  C_4
REMARK                            x       y       z     vdW  Elec       q    Type
REMARK                         _______ _______ _______ _____ _____    ______ ____
ROOT
ATOM      1  C   UNL     1       1.320  16.839  18.956  0.00  0.00    +0.000 C 
ATOM      2  C   UNL     1       0.092  16.522  19.808  0.00  0.00    +0.000 C 
ATOM      3  C   UNL     1       0.411  15.502  20.876  0.00  0.00    +0.000 C 
ATOM      4  C   UNL     1       1.024  14.181  20.358  0.00  0.00    +0.000 C 
ATOM      5  C   UNL     1       2.271  14.522  19.511  0.00  0.00    +0.000 C 
ATOM      6  C   UNL     1       1.973  15.557  18.409  0.00  0.00    +0.000 C 
ATOM      7  C   UNL     1      -0.002  13.372  19.523  0.00  0.00    +0.000 C 
ATOM      8  O   UNL     1       0.263  11.963  19.519  0.00  0.00    +0.000 OA
ATOM      9  C   UNL     1       0.445  11.476  20.851  0.00  0.00    +0.000 C 
ATOM     10  C   UNL     1      -0.849  11.694  21.669  0.00  0.00    +0.000 C 
ATOM     11  C   UNL     1      -0.994  10.929  22.973  0.00  0.00    +0.000 C 
ATOM     12  C   UNL     1      -0.513   9.489  22.933  0.00  0.00    +0.000 C 
ATOM     13  C   UNL     1       0.776   9.291  22.144  0.00  0.00    +0.000 C 
ATOM     14  C   UNL     1       0.746   9.969  20.771  0.00  0.00    +0.000 C 
ATOM     15  O   UNL     1       1.626  12.103  21.374  0.00  0.00    +0.000 OA
ATOM     16  O   UNL     1       1.344  13.516  21.597  0.00  0.00    +0.000 OA
ENDROOT
BRANCH   1  18
ATOM     17  O   UNL     1       1.620  18.591  17.310  0.00  0.00    +0.000 OA
ATOM     18  C   UNL     1       0.894  17.774  17.839  0.00  0.00    +0.000 C 
BRANCH  18  19
ATOM     19  O   UNL     1      -0.389  17.578  17.448  0.00  0.00    +0.000 OA
ATOM     20  H   UNL     1      -1.001  17.312  18.162  0.00  0.00    +0.000 HD
ENDBRANCH  18  19
ENDBRANCH   1  18
TORSDOF 2
ENDMDL
