MODEL 1
REMARK VINA RESULT:      -6.9      0.000      0.000
REMARK  Name = 
REMARK  6 active torsions:
REMARK  status: ('A' for Active; 'I' for Inactive)
REMARK    1  A    between atoms: C_1  and  C_2
REMARK    2  A    between atoms: C_2  and  C_3
REMARK    3  A    between atoms: C_3  and  N_4
REMARK    4  A    between atoms: C_3  and  C_15
REMARK    5  A    between atoms: C_5  and  C_7
REMARK    6  A    between atoms: N_12  and  C_13
REMARK                            x       y       z     vdW  Elec       q    Type
REMARK                         _______ _______ _______ _____ _____    ______ ____
ROOT
ATOM      1  N   UNL     1       4.931   4.479  17.235  0.00  0.00    +0.000 N 
ATOM      2  C   UNL     1       3.954   5.242  17.829  0.00  0.00    +0.000 C 
ATOM      3  O   UNL     1       3.651   6.364  17.436  0.00  0.00    +0.000 OA
ATOM      4  H   UNL     1       5.051   3.507  17.492  0.00  0.00    +0.000 HD
ENDROOT
BRANCH   2   5
ATOM      5  C   UNL     1       3.252   4.608  18.995  0.00  0.00    +0.000 A 
ATOM      6  C   UNL     1       1.914   4.972  19.415  0.00  0.00    +0.000 A 
ATOM      7  C   UNL     1       1.307   4.318  20.414  0.00  0.00    +0.000 A 
ATOM      8  C   UNL     1       1.988   3.193  21.113  0.00  0.00    +0.000 A 
ATOM      9  O   UNL     1       1.398   2.610  22.017  0.00  0.00    +0.000 OA
ATOM     10  N   UNL     1       3.269   2.887  20.655  0.00  0.00    +0.000 N 
ATOM     11  C   UNL     1       3.989   1.779  21.261  0.00  0.00    +0.000 C 
ATOM     12  C   UNL     1       3.870   3.587  19.615  0.00  0.00    +0.000 A 
ENDBRANCH   2   5
BRANCH   1  13
ATOM     13  C   UNL     1       5.723   4.935  16.082  0.00  0.00    +0.000 C 
BRANCH  13  14
ATOM     14  C   UNL     1       6.976   5.683  16.610  0.00  0.00    +0.000 C 
ATOM     15  C   UNL     1       7.346   5.420  18.065  0.00  0.00    +0.000 C 
ATOM     16  C   UNL     1       8.017   6.710  18.473  0.00  0.00    +0.000 C 
ATOM     17  C   UNL     1       7.242   7.743  17.685  0.00  0.00    +0.000 C 
ATOM     18  O   UNL     1       6.798   7.113  16.477  0.00  0.00    +0.000 OA
ENDBRANCH  13  14
BRANCH  13  20
ATOM     19  C   UNL     1       6.025   4.044  13.682  0.00  0.00    +0.000 C 
ATOM     20  C   UNL     1       6.095   3.743  15.173  0.00  0.00    +0.000 C 
ENDBRANCH  13  20
ENDBRANCH   1  13
TORSDOF 4
ENDMDL
MODEL 2
REMARK VINA RESULT:      -6.8      1.226      1.228
REMARK  Name = 
REMARK  6 active torsions:
REMARK  status: ('A' for Active; 'I' for Inactive)
REMARK    1  A    between atoms: C_1  and  C_2
REMARK    2  A    between atoms: C_2  and  C_3
REMARK    3  A    between atoms: C_3  and  N_4
REMARK    4  A    between atoms: C_3  and  C_15
REMARK    5  A    between atoms: C_5  and  C_7
REMARK    6  A    between atoms: N_12  and  C_13
REMARK                            x       y       z     vdW  Elec       q    Type
REMARK                         _______ _______ _______ _____ _____    ______ ____
ROOT
ATOM      1  N   UNL     1       4.760   5.418  17.131  0.00  0.00    +0.000 N 
ATOM      2  C   UNL     1       3.796   6.087  17.846  0.00  0.00    +0.000 C 
ATOM      3  O   UNL     1       3.561   7.282  17.698  0.00  0.00    +0.000 OA
ATOM      4  H   UNL     1       4.825   4.408  17.174  0.00  0.00    +0.000 HD
ENDROOT
BRANCH   2   5
ATOM      5  C   UNL     1       3.017   5.255  18.825  0.00  0.00    +0.000 A 
ATOM      6  C   UNL     1       2.298   5.813  19.952  0.00  0.00    +0.000 A 
ATOM      7  C   UNL     1       1.555   5.031  20.746  0.00  0.00    +0.000 A 
ATOM      8  C   UNL     1       1.443   3.569  20.487  0.00  0.00    +0.000 A 
ATOM      9  O   UNL     1       0.746   2.885  21.230  0.00  0.00    +0.000 OA
ATOM     10  N   UNL     1       2.151   3.097  19.383  0.00  0.00    +0.000 N 
ATOM     11  C   UNL     1       2.066   1.686  19.041  0.00  0.00    +0.000 C 
ATOM     12  C   UNL     1       2.913   3.937  18.579  0.00  0.00    +0.000 A 
ENDBRANCH   2   5
BRANCH   1  13
ATOM     13  C   UNL     1       5.620   6.068  16.129  0.00  0.00    +0.000 C 
BRANCH  13  14
ATOM     14  C   UNL     1       7.021   6.296  16.756  0.00  0.00    +0.000 C 
ATOM     15  C   UNL     1       7.203   5.794  18.184  0.00  0.00    +0.000 C 
ATOM     16  C   UNL     1       8.245   6.737  18.735  0.00  0.00    +0.000 C 
ATOM     17  C   UNL     1       7.905   8.038  18.042  0.00  0.00    +0.000 C 
ATOM     18  O   UNL     1       7.341   7.707  16.767  0.00  0.00    +0.000 OA
ENDBRANCH  13  14
BRANCH  13  20
ATOM     19  C   UNL     1       7.094   4.797  14.440  0.00  0.00    +0.000 C 
ATOM     20  C   UNL     1       5.688   5.221  14.840  0.00  0.00    +0.000 C 
ENDBRANCH  13  20
ENDBRANCH   1  13
TORSDOF 4
ENDMDL
MODEL 3
REMARK VINA RESULT:      -6.8      1.839      3.207
REMARK  Name = 
REMARK  6 active torsions:
REMARK  status: ('A' for Active; 'I' for Inactive)
REMARK    1  A    between atoms: C_1  and  C_2
REMARK    2  A    between atoms: C_2  and  C_3
REMARK    3  A    between atoms: C_3  and  N_4
REMARK    4  A    between atoms: C_3  and  C_15
REMARK    5  A    between atoms: C_5  and  C_7
REMARK    6  A    between atoms: N_12  and  C_13
REMARK                            x       y       z     vdW  Elec       q    Type
REMARK                         _______ _______ _______ _____ _____    ______ ____
ROOT
ATOM      1  N   UNL     1       5.527   4.584  17.260  0.00  0.00    +0.000 N 
ATOM      2  C   UNL     1       5.157   4.318  18.557  0.00  0.00    +0.000 C 
ATOM      3  O   UNL     1       5.933   4.399  19.504  0.00  0.00    +0.000 OA
ATOM      4  H   UNL     1       4.829   4.649  16.530  0.00  0.00    +0.000 HD
ENDROOT
BRANCH   2   5
ATOM      5  C   UNL     1       3.719   3.933  18.758  0.00  0.00    +0.000 A 
ATOM      6  C   UNL     1       2.743   3.906  17.688  0.00  0.00    +0.000 A 
ATOM      7  C   UNL     1       1.493   3.478  17.911  0.00  0.00    +0.000 A 
ATOM      8  C   UNL     1       1.078   3.010  19.262  0.00  0.00    +0.000 A 
ATOM      9  O   UNL     1      -0.073   2.616  19.427  0.00  0.00    +0.000 OA
ATOM     10  N   UNL     1       2.066   3.052  20.244  0.00  0.00    +0.000 N 
ATOM     11  C   UNL     1       1.751   2.579  21.583  0.00  0.00    +0.000 C 
ATOM     12  C   UNL     1       3.354   3.502  19.979  0.00  0.00    +0.000 A 
ENDBRANCH   2   5
BRANCH   1  13
ATOM     13  C   UNL     1       6.892   4.976  16.873  0.00  0.00    +0.000 C 
BRANCH  13  14
ATOM     14  C   UNL     1       7.198   4.378  15.474  0.00  0.00    +0.000 C 
ATOM     15  C   UNL     1       7.413   5.385  14.350  0.00  0.00    +0.000 C 
ATOM     16  C   UNL     1       6.953   4.622  13.131  0.00  0.00    +0.000 C 
ATOM     17  C   UNL     1       5.820   3.784  13.680  0.00  0.00    +0.000 C 
ATOM     18  O   UNL     1       6.120   3.509  15.054  0.00  0.00    +0.000 OA
ENDBRANCH  13  14
BRANCH  13  20
ATOM     19  C   UNL     1       7.815   7.049  18.094  0.00  0.00    +0.000 C 
ATOM     20  C   UNL     1       7.043   6.512  16.897  0.00  0.00    +0.000 C 
ENDBRANCH  13  20
ENDBRANCH   1  13
TORSDOF 4
ENDMDL
MODEL 4
REMARK VINA RESULT:      -6.8      3.431      5.491
REMARK  Name = 
REMARK  6 active torsions:
REMARK  status: ('A' for Active; 'I' for Inactive)
REMARK    1  A    between atoms: C_1  and  C_2
REMARK    2  A    between atoms: C_2  and  C_3
REMARK    3  A    between atoms: C_3  and  N_4
REMARK    4  A    between atoms: C_3  and  C_15
REMARK    5  A    between atoms: C_5  and  C_7
REMARK    6  A    between atoms: N_12  and  C_13
REMARK                            x       y       z     vdW  Elec       q    Type
REMARK                         _______ _______ _______ _____ _____    ______ ____
ROOT
ATOM      1  N   UNL     1       3.392   5.566  17.813  0.00  0.00    +0.000 N 
ATOM      2  C   UNL     1       3.149   6.113  19.051  0.00  0.00    +0.000 C 
ATOM      3  O   UNL     1       3.514   5.587  20.097  0.00  0.00    +0.000 OA
ATOM      4  H   UNL     1       3.207   6.097  16.971  0.00  0.00    +0.000 HD
ENDROOT
BRANCH   2   5
ATOM      5  C   UNL     1       2.416   7.424  19.051  0.00  0.00    +0.000 A 
ATOM      6  C   UNL     1       2.220   8.229  17.863  0.00  0.00    +0.000 A 
ATOM      7  C   UNL     1       1.489   9.351  17.908  0.00  0.00    +0.000 A 
ATOM      8  C   UNL     1       0.852   9.795  19.178  0.00  0.00    +0.000 A 
ATOM      9  O   UNL     1       0.182  10.823  19.180  0.00  0.00    +0.000 OA
ATOM     10  N   UNL     1       1.071   8.972  20.282  0.00  0.00    +0.000 N 
ATOM     11  C   UNL     1       0.455   9.316  21.553  0.00  0.00    +0.000 C 
ATOM     12  C   UNL     1       1.835   7.813  20.200  0.00  0.00    +0.000 A 
ENDBRANCH   2   5
BRANCH   1  13
ATOM     13  C   UNL     1       4.096   4.289  17.618  0.00  0.00    +0.000 C 
BRANCH  13  14
ATOM     14  C   UNL     1       3.073   3.133  17.779  0.00  0.00    +0.000 C 
ATOM     15  C   UNL     1       1.603   3.536  17.765  0.00  0.00    +0.000 C 
ATOM     16  C   UNL     1       0.962   2.474  18.628  0.00  0.00    +0.000 C 
ATOM     17  C   UNL     1       2.037   2.199  19.656  0.00  0.00    +0.000 C 
ATOM     18  O   UNL     1       3.301   2.433  19.024  0.00  0.00    +0.000 OA
ENDBRANCH  13  14
BRANCH  13  20
ATOM     19  C   UNL     1       5.238   5.624  15.733  0.00  0.00    +0.000 C 
ATOM     20  C   UNL     1       4.797   4.260  16.243  0.00  0.00    +0.000 C 
ENDBRANCH  13  20
ENDBRANCH   1  13
TORSDOF 4
ENDMDL
MODEL 5
REMARK VINA RESULT:      -6.7      1.060      1.095
REMARK  Name = 
REMARK  6 active torsions:
REMARK  status: ('A' for Active; 'I' for Inactive)
REMARK    1  A    between atoms: C_1  and  C_2
REMARK    2  A    between atoms: C_2  and  C_3
REMARK    3  A    between atoms: C_3  and  N_4
REMARK    4  A    between atoms: C_3  and  C_15
REMARK    5  A    between atoms: C_5  and  C_7
REMARK    6  A    between atoms: N_12  and  C_13
REMARK                            x       y       z     vdW  Elec       q    Type
REMARK                         _______ _______ _______ _____ _____    ______ ____
ROOT
ATOM      1  N   UNL     1       5.150   4.687  16.557  0.00  0.00    +0.000 N 
ATOM      2  C   UNL     1       4.198   5.436  17.205  0.00  0.00    +0.000 C 
ATOM      3  O   UNL     1       4.141   6.659  17.127  0.00  0.00    +0.000 OA
ATOM      4  H   UNL     1       5.077   3.677  16.527  0.00  0.00    +0.000 HD
ENDROOT
BRANCH   2   5
ATOM      5  C   UNL     1       3.199   4.660  18.016  0.00  0.00    +0.000 A 
ATOM      6  C   UNL     1       1.820   4.470  17.614  0.00  0.00    +0.000 A 
ATOM      7  C   UNL     1       0.995   3.702  18.337  0.00  0.00    +0.000 A 
ATOM      8  C   UNL     1       1.475   3.017  19.569  0.00  0.00    +0.000 A 
ATOM      9  O   UNL     1       0.694   2.313  20.202  0.00  0.00    +0.000 OA
ATOM     10  N   UNL     1       2.813   3.233  19.896  0.00  0.00    +0.000 N 
ATOM     11  C   UNL     1       3.370   2.572  21.065  0.00  0.00    +0.000 C 
ATOM     12  C   UNL     1       3.643   4.037  19.122  0.00  0.00    +0.000 A 
ENDBRANCH   2   5
BRANCH   1  13
ATOM     13  C   UNL     1       6.207   5.273  15.719  0.00  0.00    +0.000 C 
BRANCH  13  14
ATOM     14  C   UNL     1       7.390   5.686  16.636  0.00  0.00    +0.000 C 
ATOM     15  C   UNL     1       7.255   5.315  18.108  0.00  0.00    +0.000 C 
ATOM     16  C   UNL     1       8.053   6.396  18.796  0.00  0.00    +0.000 C 
ATOM     17  C   UNL     1       7.793   7.600  17.918  0.00  0.00    +0.000 C 
ATOM     18  O   UNL     1       7.587   7.118  16.584  0.00  0.00    +0.000 OA
ENDBRANCH  13  14
BRANCH  13  20
ATOM     19  C   UNL     1       5.538   3.907  13.638  0.00  0.00    +0.000 C 
ATOM     20  C   UNL     1       6.641   4.282  14.618  0.00  0.00    +0.000 C 
ENDBRANCH  13  20
ENDBRANCH   1  13
TORSDOF 4
ENDMDL
MODEL 6
REMARK VINA RESULT:      -6.7      1.669      3.158
REMARK  Name = 
REMARK  6 active torsions:
REMARK  status: ('A' for Active; 'I' for Inactive)
REMARK    1  A    between atoms: C_1  and  C_2
REMARK    2  A    between atoms: C_2  and  C_3
REMARK    3  A    between atoms: C_3  and  N_4
REMARK    4  A    between atoms: C_3  and  C_15
REMARK    5  A    between atoms: C_5  and  C_7
REMARK    6  A    between atoms: N_12  and  C_13
REMARK                            x       y       z     vdW  Elec       q    Type
REMARK                         _______ _______ _______ _____ _____    ______ ____
ROOT
ATOM      1  N   UNL     1       5.210   5.001  16.962  0.00  0.00    +0.000 N 
ATOM      2  C   UNL     1       5.095   4.311  18.146  0.00  0.00    +0.000 C 
ATOM      3  O   UNL     1       6.059   4.021  18.847  0.00  0.00    +0.000 OA
ATOM      4  H   UNL     1       4.386   5.348  16.487  0.00  0.00    +0.000 HD
ENDROOT
BRANCH   2   5
ATOM      5  C   UNL     1       3.697   3.942  18.551  0.00  0.00    +0.000 A 
ATOM      6  C   UNL     1       2.578   3.923  17.632  0.00  0.00    +0.000 A 
ATOM      7  C   UNL     1       1.368   3.509  18.032  0.00  0.00    +0.000 A 
ATOM      8  C   UNL     1       1.145   3.050  19.431  0.00  0.00    +0.000 A 
ATOM      9  O   UNL     1       0.025   2.669  19.760  0.00  0.00    +0.000 OA
ATOM     10  N   UNL     1       2.263   3.085  20.262  0.00  0.00    +0.000 N 
ATOM     11  C   UNL     1       2.137   2.620  21.635  0.00  0.00    +0.000 C 
ATOM     12  C   UNL     1       3.505   3.520  19.814  0.00  0.00    +0.000 A 
ENDBRANCH   2   5
BRANCH   1  13
ATOM     13  C   UNL     1       6.498   5.444  16.407  0.00  0.00    +0.000 C 
BRANCH  13  14
ATOM     14  C   UNL     1       6.403   5.418  14.858  0.00  0.00    +0.000 C 
ATOM     15  C   UNL     1       5.817   4.150  14.247  0.00  0.00    +0.000 C 
ATOM     16  C   UNL     1       6.498   4.087  12.900  0.00  0.00    +0.000 C 
ATOM     17  C   UNL     1       7.868   4.654  13.203  0.00  0.00    +0.000 C 
ATOM     18  O   UNL     1       7.713   5.596  14.272  0.00  0.00    +0.000 OA
ENDBRANCH  13  14
BRANCH  13  20
ATOM     19  C   UNL     1       7.796   6.827  18.152  0.00  0.00    +0.000 C 
ATOM     20  C   UNL     1       6.869   6.843  16.945  0.00  0.00    +0.000 C 
ENDBRANCH  13  20
ENDBRANCH   1  13
TORSDOF 4
ENDMDL
MODEL 7
REMARK VINA RESULT:      -6.6      1.541      1.883
REMARK  Name = 
REMARK  6 active torsions:
REMARK  status: ('A' for Active; 'I' for Inactive)
REMARK    1  A    between atoms: C_1  and  C_2
REMARK    2  A    between atoms: C_2  and  C_3
REMARK    3  A    between atoms: C_3  and  N_4
REMARK    4  A    between atoms: C_3  and  C_15
REMARK    5  A    between atoms: C_5  and  C_7
REMARK    6  A    between atoms: N_12  and  C_13
REMARK                            x       y       z     vdW  Elec       q    Type
REMARK                         _______ _______ _______ _____ _____    ______ ____
ROOT
ATOM      1  N   UNL     1       5.121   4.687  16.244  0.00  0.00    +0.000 N 
ATOM      2  C   UNL     1       4.243   5.470  16.955  0.00  0.00    +0.000 C 
ATOM      3  O   UNL     1       4.312   6.695  16.983  0.00  0.00    +0.000 OA
ATOM      4  H   UNL     1       4.946   3.696  16.126  0.00  0.00    +0.000 HD
ENDROOT
BRANCH   2   5
ATOM      5  C   UNL     1       3.163   4.733  17.694  0.00  0.00    +0.000 A 
ATOM      6  C   UNL     1       2.653   3.442  17.282  0.00  0.00    +0.000 A 
ATOM      7  C   UNL     1       1.744   2.794  18.024  0.00  0.00    +0.000 A 
ATOM      8  C   UNL     1       1.242   3.382  19.297  0.00  0.00    +0.000 A 
ATOM      9  O   UNL     1       0.417   2.757  19.956  0.00  0.00    +0.000 OA
ATOM     10  N   UNL     1       1.779   4.621  19.641  0.00  0.00    +0.000 N 
ATOM     11  C   UNL     1       1.367   5.248  20.887  0.00  0.00    +0.000 C 
ATOM     12  C   UNL     1       2.722   5.266  18.848  0.00  0.00    +0.000 A 
ENDBRANCH   2   5
BRANCH   1  13
ATOM     13  C   UNL     1       6.240   5.233  15.462  0.00  0.00    +0.000 C 
BRANCH  13  14
ATOM     14  C   UNL     1       7.428   5.503  16.423  0.00  0.00    +0.000 C 
ATOM     15  C   UNL     1       7.358   4.814  17.782  0.00  0.00    +0.000 C 
ATOM     16  C   UNL     1       8.121   5.764  18.673  0.00  0.00    +0.000 C 
ATOM     17  C   UNL     1       7.774   7.114  18.084  0.00  0.00    +0.000 C 
ATOM     18  O   UNL     1       7.551   6.921  16.681  0.00  0.00    +0.000 OA
ENDBRANCH  13  14
BRANCH  13  20
ATOM     19  C   UNL     1       7.438   4.912  13.202  0.00  0.00    +0.000 C 
ATOM     20  C   UNL     1       6.624   4.270  14.317  0.00  0.00    +0.000 C 
ENDBRANCH  13  20
ENDBRANCH   1  13
TORSDOF 4
ENDMDL
MODEL 8
REMARK VINA RESULT:      -6.6      1.576      3.350
REMARK  Name = 
REMARK  6 active torsions:
REMARK  status: ('A' for Active; 'I' for Inactive)
REMARK    1  A    between atoms: C_1  and  C_2
REMARK    2  A    between atoms: C_2  and  C_3
REMARK    3  A    between atoms: C_3  and  N_4
REMARK    4  A    between atoms: C_3  and  C_15
REMARK    5  A    between atoms: C_5  and  C_7
REMARK    6  A    between atoms: N_12  and  C_13
REMARK                            x       y       z     vdW  Elec       q    Type
REMARK                         _______ _______ _______ _____ _____    ______ ____
ROOT
ATOM      1  N   UNL     1       5.457   5.156  17.386  0.00  0.00    +0.000 N 
ATOM      2  C   UNL     1       5.663   4.617  18.633  0.00  0.00    +0.000 C 
ATOM      3  O   UNL     1       6.769   4.557  19.162  0.00  0.00    +0.000 OA
ATOM      4  H   UNL     1       4.517   5.321  17.047  0.00  0.00    +0.000 HD
ENDROOT
BRANCH   2   5
ATOM      5  C   UNL     1       4.436   4.113  19.337  0.00  0.00    +0.000 A 
ATOM      6  C   UNL     1       4.246   2.728  19.718  0.00  0.00    +0.000 A 
ATOM      7  C   UNL     1       3.165   2.350  20.414  0.00  0.00    +0.000 A 
ATOM      8  C   UNL     1       2.135   3.345  20.821  0.00  0.00    +0.000 A 
ATOM      9  O   UNL     1       1.163   2.965  21.466  0.00  0.00    +0.000 OA
ATOM     10  N   UNL     1       2.381   4.661  20.431  0.00  0.00    +0.000 N 
ATOM     11  C   UNL     1       1.440   5.700  20.818  0.00  0.00    +0.000 C 
ATOM     12  C   UNL     1       3.514   5.019  19.709  0.00  0.00    +0.000 A 
ENDBRANCH   2   5
BRANCH   1  13
ATOM     13  C   UNL     1       6.539   5.699  16.551  0.00  0.00    +0.000 C 
BRANCH  13  14
ATOM     14  C   UNL     1       6.202   5.416  15.062  0.00  0.00    +0.000 C 
ATOM     15  C   UNL     1       5.648   4.029  14.755  0.00  0.00    +0.000 C 
ATOM     16  C   UNL     1       6.110   3.797  13.336  0.00  0.00    +0.000 C 
ATOM     17  C   UNL     1       7.451   4.497  13.312  0.00  0.00    +0.000 C 
ATOM     18  O   UNL     1       7.380   5.586  14.241  0.00  0.00    +0.000 OA
ENDBRANCH  13  14
BRANCH  13  20
ATOM     19  C   UNL     1       7.810   7.518  17.862  0.00  0.00    +0.000 C 
ATOM     20  C   UNL     1       6.737   7.205  16.829  0.00  0.00    +0.000 C 
ENDBRANCH  13  20
ENDBRANCH   1  13
TORSDOF 4
ENDMDL
MODEL 9
REMARK VINA RESULT:      -6.5      3.252      4.766
REMARK  Name = 
REMARK  6 active torsions:
REMARK  status: ('A' for Active; 'I' for Inactive)
REMARK    1  A    between atoms: C_1  and  C_2
REMARK    2  A    between atoms: C_2  and  C_3
REMARK    3  A    between atoms: C_3  and  N_4
REMARK    4  A    between atoms: C_3  and  C_15
REMARK    5  A    between atoms: C_5  and  C_7
REMARK    6  A    between atoms: N_12  and  C_13
REMARK                            x       y       z     vdW  Elec       q    Type
REMARK                         _______ _______ _______ _____ _____    ______ ____
ROOT
ATOM      1  N   UNL     1       4.502   6.811  17.720  0.00  0.00    +0.000 N 
ATOM      2  C   UNL     1       3.489   6.561  18.614  0.00  0.00    +0.000 C 
ATOM      3  O   UNL     1       3.384   5.505  19.229  0.00  0.00    +0.000 OA
ATOM      4  H   UNL     1       4.639   7.741  17.344  0.00  0.00    +0.000 HD
ENDROOT
BRANCH   2   5
ATOM      5  C   UNL     1       2.508   7.681  18.816  0.00  0.00    +0.000 A 
ATOM      6  C   UNL     1       2.074   8.563  17.752  0.00  0.00    +0.000 A 
ATOM      7  C   UNL     1       1.137   9.495  17.973  0.00  0.00    +0.000 A 
ATOM      8  C   UNL     1       0.511   9.642  19.316  0.00  0.00    +0.000 A 
ATOM      9  O   UNL     1      -0.351  10.500  19.479  0.00  0.00    +0.000 OA
ATOM     10  N   UNL     1       0.965   8.757  20.292  0.00  0.00    +0.000 N 
ATOM     11  C   UNL     1       0.379   8.812  21.622  0.00  0.00    +0.000 C 
ATOM     12  C   UNL     1       1.939   7.801  20.029  0.00  0.00    +0.000 A 
ENDBRANCH   2   5
BRANCH   1  13
ATOM     13  C   UNL     1       5.553   5.833  17.396  0.00  0.00    +0.000 C 
BRANCH  13  14
ATOM     14  C   UNL     1       5.422   5.448  15.898  0.00  0.00    +0.000 C 
ATOM     15  C   UNL     1       5.314   3.956  15.599  0.00  0.00    +0.000 C 
ATOM     16  C   UNL     1       5.927   3.851  14.223  0.00  0.00    +0.000 C 
ATOM     17  C   UNL     1       7.009   4.907  14.267  0.00  0.00    +0.000 C 
ATOM     18  O   UNL     1       6.559   5.940  15.153  0.00  0.00    +0.000 OA
ENDBRANCH  13  14
BRANCH  13  20
ATOM     19  C   UNL     1       7.680   5.658  18.840  0.00  0.00    +0.000 C 
ATOM     20  C   UNL     1       6.947   6.402  17.732  0.00  0.00    +0.000 C 
ENDBRANCH  13  20
ENDBRANCH   1  13
TORSDOF 4
ENDMDL
