MODEL 1
REMARK VINA RESULT:      -9.3      0.000      0.000
REMARK  Name = 
REMARK  7 active torsions:
REMARK  status: ('A' for Active; 'I' for Inactive)
REMARK    1  A    between atoms: C_1  and  C_2
REMARK    2  A    between atoms: C_2  and  C_3
REMARK    3  A    between atoms: C_2  and  N_4
REMARK    4  A    between atoms: N_4  and  C_5
REMARK    5  A    between atoms: C_5  and  C_6
REMARK    6  A    between atoms: C_10  and  C_11
REMARK    7  A    between atoms: C_23  and  C_24
REMARK                            x       y       z     vdW  Elec       q    Type
REMARK                         _______ _______ _______ _____ _____    ______ ____
ROOT
ATOM      1  C   UNL     1       2.298   7.473  19.162  0.00  0.00    +0.000 C 
ATOM      2  O   UNL     1       1.929   7.568  20.335  0.00  0.00    +0.000 OA
ATOM      3  N   UNL     1       3.207   6.518  18.733  0.00  0.00    +0.000 N 
ATOM      4  N   UNL     1       3.765   6.548  17.484  0.00  0.00    +0.000 NA
ATOM      5  C   UNL     1       4.695   5.637  17.452  0.00  0.00    +0.000 C 
ATOM      6  C   UNL     1       4.856   4.854  18.733  0.00  0.00    +0.000 C 
ATOM      7  C   UNL     1       3.780   5.497  19.605  0.00  0.00    +0.000 C 
ENDROOT
BRANCH   5   8
ATOM      8  C   UNL     1       5.559   5.389  16.262  0.00  0.00    +0.000 A 
ATOM      9  C   UNL     1       5.054   4.586  15.311  0.00  0.00    +0.000 A 
ATOM     10  C   UNL     1       5.804   4.301  14.100  0.00  0.00    +0.000 A 
ATOM     11  C   UNL     1       5.311   3.474  13.089  0.00  0.00    +0.000 A 
ATOM     12  C   UNL     1       6.072   3.247  11.937  0.00  0.00    +0.000 A 
ATOM     13  C   UNL     1       7.325   3.845  11.792  0.00  0.00    +0.000 A 
ATOM     14  C   UNL     1       7.824   4.669  12.798  0.00  0.00    +0.000 A 
ATOM     15  C   UNL     1       7.056   4.884  13.938  0.00  0.00    +0.000 A 
ATOM     16  O   UNL     1       7.592   5.721  14.930  0.00  0.00    +0.000 OA
ATOM     17  C   UNL     1       6.897   6.004  16.101  0.00  0.00    +0.000 A 
ATOM     18  O   UNL     1       7.388   6.739  16.951  0.00  0.00    +0.000 OA
ENDBRANCH   5   8
BRANCH   7  19
ATOM     19  C   UNL     1       2.749   4.492  20.078  0.00  0.00    +0.000 A 
ATOM     20  C   UNL     1       1.864   3.903  19.161  0.00  0.00    +0.000 A 
ATOM     21  C   UNL     1       0.928   2.962  19.587  0.00  0.00    +0.000 A 
ATOM     22  C   UNL     1       0.859   2.596  20.929  0.00  0.00    +0.000 A 
ATOM     23  C   UNL     1       1.728   3.174  21.850  0.00  0.00    +0.000 A 
ATOM     24  C   UNL     1       2.668   4.114  21.430  0.00  0.00    +0.000 A 
ENDBRANCH   7  19
BRANCH   1  25
ATOM     25  C   UNL     1       1.772   8.417  18.072  0.00  0.00    +0.000 C 
BRANCH  25  26
ATOM     26  N   UNL     1       2.100   9.814  18.414  0.00  0.00    +0.000 NA
ATOM     27  H   UNL     1       2.714   9.790  19.231  0.00  0.00    +0.000 HD
BRANCH  26  29
ATOM     28  C   UNL     1      -0.305   9.949  18.095  0.00  0.00    +0.000 C 
ATOM     29  C   UNL     1       0.919  10.629  18.716  0.00  0.00    +0.000 C 
ATOM     30  C   UNL     1       0.694  10.804  20.220  0.00  0.00    +0.000 C 
ENDBRANCH  26  29
ENDBRANCH  25  26
ENDBRANCH   1  25
TORSDOF 5
ENDMDL
MODEL 2
REMARK VINA RESULT:      -8.4      2.241      7.780
REMARK  Name = 
REMARK  7 active torsions:
REMARK  status: ('A' for Active; 'I' for Inactive)
REMARK    1  A    between atoms: C_1  and  C_2
REMARK    2  A    between atoms: C_2  and  C_3
REMARK    3  A    between atoms: C_2  and  N_4
REMARK    4  A    between atoms: N_4  and  C_5
REMARK    5  A    between atoms: C_5  and  C_6
REMARK    6  A    between atoms: C_10  and  C_11
REMARK    7  A    between atoms: C_23  and  C_24
REMARK                            x       y       z     vdW  Elec       q    Type
REMARK                         _______ _______ _______ _____ _____    ______ ____
ROOT
ATOM      1  C   UNL     1       3.387   2.987  18.199  0.00  0.00    +0.000 C 
ATOM      2  O   UNL     1       4.321   2.188  18.106  0.00  0.00    +0.000 OA
ATOM      3  N   UNL     1       3.574   4.359  18.275  0.00  0.00    +0.000 N 
ATOM      4  N   UNL     1       2.557   5.221  18.584  0.00  0.00    +0.000 NA
ATOM      5  C   UNL     1       3.083   6.400  18.752  0.00  0.00    +0.000 C 
ATOM      6  C   UNL     1       4.578   6.458  18.550  0.00  0.00    +0.000 C 
ATOM      7  C   UNL     1       4.883   5.002  18.204  0.00  0.00    +0.000 C 
ENDROOT
BRANCH   5   8
ATOM      8  C   UNL     1       2.291   7.604  19.136  0.00  0.00    +0.000 A 
ATOM      9  C   UNL     1       1.809   7.630  20.390  0.00  0.00    +0.000 A 
ATOM     10  C   UNL     1       1.048   8.769  20.872  0.00  0.00    +0.000 A 
ATOM     11  C   UNL     1       0.535   8.833  22.169  0.00  0.00    +0.000 A 
ATOM     12  C   UNL     1      -0.180   9.962  22.584  0.00  0.00    +0.000 A 
ATOM     13  C   UNL     1      -0.382  11.029  21.706  0.00  0.00    +0.000 A 
ATOM     14  C   UNL     1       0.125  10.970  20.410  0.00  0.00    +0.000 A 
ATOM     15  C   UNL     1       0.831   9.840  20.012  0.00  0.00    +0.000 A 
ATOM     16  O   UNL     1       1.328   9.817  18.699  0.00  0.00    +0.000 OA
ATOM     17  C   UNL     1       2.055   8.736  18.210  0.00  0.00    +0.000 A 
ATOM     18  O   UNL     1       2.478   8.742  17.060  0.00  0.00    +0.000 OA
ENDBRANCH   5   8
BRANCH   7  19
ATOM     19  C   UNL     1       5.526   4.861  16.838  0.00  0.00    +0.000 A 
ATOM     20  C   UNL     1       4.732   4.625  15.705  0.00  0.00    +0.000 A 
ATOM     21  C   UNL     1       5.315   4.514  14.444  0.00  0.00    +0.000 A 
ATOM     22  C   UNL     1       6.694   4.635  14.294  0.00  0.00    +0.000 A 
ATOM     23  C   UNL     1       7.495   4.866  15.410  0.00  0.00    +0.000 A 
ATOM     24  C   UNL     1       6.916   4.979  16.673  0.00  0.00    +0.000 A 
ENDBRANCH   7  19
BRANCH   1  25
ATOM     25  C   UNL     1       1.926   2.520  18.234  0.00  0.00    +0.000 C 
BRANCH  25  26
ATOM     26  N   UNL     1       1.699   1.668  19.418  0.00  0.00    +0.000 NA
ATOM     27  H   UNL     1       0.984   0.982  19.165  0.00  0.00    +0.000 HD
BRANCH  26  29
ATOM     28  C   UNL     1       2.482   2.693  21.477  0.00  0.00    +0.000 C 
ATOM     29  C   UNL     1       1.258   2.419  20.597  0.00  0.00    +0.000 C 
ATOM     30  C   UNL     1       0.589   3.746  20.232  0.00  0.00    +0.000 C 
ENDBRANCH  26  29
ENDBRANCH  25  26
ENDBRANCH   1  25
TORSDOF 5
ENDMDL
MODEL 3
REMARK VINA RESULT:      -8.3      2.717      7.442
REMARK  Name = 
REMARK  7 active torsions:
REMARK  status: ('A' for Active; 'I' for Inactive)
REMARK    1  A    between atoms: C_1  and  C_2
REMARK    2  A    between atoms: C_2  and  C_3
REMARK    3  A    between atoms: C_2  and  N_4
REMARK    4  A    between atoms: N_4  and  C_5
REMARK    5  A    between atoms: C_5  and  C_6
REMARK    6  A    between atoms: C_10  and  C_11
REMARK    7  A    between atoms: C_23  and  C_24
REMARK                            x       y       z     vdW  Elec       q    Type
REMARK                         _______ _______ _______ _____ _____    ______ ____
ROOT
ATOM      1  C   UNL     1       4.966   5.512  16.425  0.00  0.00    +0.000 C 
ATOM      2  O   UNL     1       5.107   4.461  15.796  0.00  0.00    +0.000 OA
ATOM      3  N   UNL     1       3.896   5.744  17.276  0.00  0.00    +0.000 N 
ATOM      4  N   UNL     1       3.637   6.978  17.807  0.00  0.00    +0.000 NA
ATOM      5  C   UNL     1       2.484   6.908  18.407  0.00  0.00    +0.000 C 
ATOM      6  C   UNL     1       1.824   5.551  18.351  0.00  0.00    +0.000 C 
ATOM      7  C   UNL     1       2.858   4.757  17.556  0.00  0.00    +0.000 C 
ENDROOT
BRANCH   5   8
ATOM      8  C   UNL     1       1.839   8.072  19.081  0.00  0.00    +0.000 A 
ATOM      9  C   UNL     1       1.390   7.868  20.331  0.00  0.00    +0.000 A 
ATOM     10  C   UNL     1       0.770   8.943  21.085  0.00  0.00    +0.000 A 
ATOM     11  C   UNL     1       0.295   8.770  22.387  0.00  0.00    +0.000 A 
ATOM     12  C   UNL     1      -0.281   9.846  23.071  0.00  0.00    +0.000 A 
ATOM     13  C   UNL     1      -0.382  11.096  22.458  0.00  0.00    +0.000 A 
ATOM     14  C   UNL     1       0.088  11.276  21.159  0.00  0.00    +0.000 A 
ATOM     15  C   UNL     1       0.656  10.195  20.492  0.00  0.00    +0.000 A 
ATOM     16  O   UNL     1       1.119  10.414  19.184  0.00  0.00    +0.000 OA
ATOM     17  C   UNL     1       1.711   9.400  18.439  0.00  0.00    +0.000 A 
ATOM     18  O   UNL     1       2.107   9.619  17.300  0.00  0.00    +0.000 OA
ENDBRANCH   5   8
BRANCH   7  19
ATOM     19  C   UNL     1       3.384   3.564  18.331  0.00  0.00    +0.000 A 
ATOM     20  C   UNL     1       3.249   2.268  17.808  0.00  0.00    +0.000 A 
ATOM     21  C   UNL     1       3.749   1.170  18.506  0.00  0.00    +0.000 A 
ATOM     22  C   UNL     1       4.386   1.345  19.732  0.00  0.00    +0.000 A 
ATOM     23  C   UNL     1       4.524   2.625  20.263  0.00  0.00    +0.000 A 
ATOM     24  C   UNL     1       4.028   3.727  19.569  0.00  0.00    +0.000 A 
ENDBRANCH   7  19
BRANCH   1  25
ATOM     25  C   UNL     1       5.979   6.660  16.314  0.00  0.00    +0.000 C 
BRANCH  25  26
ATOM     26  N   UNL     1       7.345   6.150  16.540  0.00  0.00    +0.000 NA
ATOM     27  H   UNL     1       7.289   5.130  16.559  0.00  0.00    +0.000 HD
BRANCH  26  29
ATOM     28  C   UNL     1       7.737   8.144  17.872  0.00  0.00    +0.000 C 
ATOM     29  C   UNL     1       7.942   6.628  17.791  0.00  0.00    +0.000 C 
ATOM     30  C   UNL     1       7.328   5.966  19.026  0.00  0.00    +0.000 C 
ENDBRANCH  26  29
ENDBRANCH  25  26
ENDBRANCH   1  25
TORSDOF 5
ENDMDL
MODEL 4
REMARK VINA RESULT:      -8.3      2.709      7.464
REMARK  Name = 
REMARK  7 active torsions:
REMARK  status: ('A' for Active; 'I' for Inactive)
REMARK    1  A    between atoms: C_1  and  C_2
REMARK    2  A    between atoms: C_2  and  C_3
REMARK    3  A    between atoms: C_2  and  N_4
REMARK    4  A    between atoms: N_4  and  C_5
REMARK    5  A    between atoms: C_5  and  C_6
REMARK    6  A    between atoms: C_10  and  C_11
REMARK    7  A    between atoms: C_23  and  C_24
REMARK                            x       y       z     vdW  Elec       q    Type
REMARK                         _______ _______ _______ _____ _____    ______ ____
ROOT
ATOM      1  C   UNL     1       4.994   5.475  16.301  0.00  0.00    +0.000 C 
ATOM      2  O   UNL     1       5.130   4.420  15.678  0.00  0.00    +0.000 OA
ATOM      3  N   UNL     1       3.942   5.704  17.176  0.00  0.00    +0.000 N 
ATOM      4  N   UNL     1       3.682   6.940  17.702  0.00  0.00    +0.000 NA
ATOM      5  C   UNL     1       2.544   6.864  18.330  0.00  0.00    +0.000 C 
ATOM      6  C   UNL     1       1.897   5.500  18.301  0.00  0.00    +0.000 C 
ATOM      7  C   UNL     1       2.920   4.709  17.488  0.00  0.00    +0.000 C 
ENDROOT
BRANCH   5   8
ATOM      8  C   UNL     1       1.904   8.027  19.010  0.00  0.00    +0.000 A 
ATOM      9  C   UNL     1       1.459   7.820  20.261  0.00  0.00    +0.000 A 
ATOM     10  C   UNL     1       0.843   8.895  21.019  0.00  0.00    +0.000 A 
ATOM     11  C   UNL     1       0.373   8.719  22.322  0.00  0.00    +0.000 A 
ATOM     12  C   UNL     1      -0.198   9.795  23.011  0.00  0.00    +0.000 A 
ATOM     13  C   UNL     1      -0.300  11.047  22.402  0.00  0.00    +0.000 A 
ATOM     14  C   UNL     1       0.166  11.229  21.102  0.00  0.00    +0.000 A 
ATOM     15  C   UNL     1       0.729  10.149  20.429  0.00  0.00    +0.000 A 
ATOM     16  O   UNL     1       1.188  10.371  19.121  0.00  0.00    +0.000 OA
ATOM     17  C   UNL     1       1.776   9.357  18.371  0.00  0.00    +0.000 A 
ATOM     18  O   UNL     1       2.169   9.578  17.231  0.00  0.00    +0.000 OA
ENDBRANCH   5   8
BRANCH   7  19
ATOM     19  C   UNL     1       3.475   3.529  18.260  0.00  0.00    +0.000 A 
ATOM     20  C   UNL     1       4.188   3.736  19.452  0.00  0.00    +0.000 A 
ATOM     21  C   UNL     1       4.683   2.653  20.177  0.00  0.00    +0.000 A 
ATOM     22  C   UNL     1       4.477   1.352  19.726  0.00  0.00    +0.000 A 
ATOM     23  C   UNL     1       3.775   1.132  18.544  0.00  0.00    +0.000 A 
ATOM     24  C   UNL     1       3.276   2.210  17.816  0.00  0.00    +0.000 A 
ENDBRANCH   7  19
BRANCH   1  25
ATOM     25  C   UNL     1       5.992   6.632  16.158  0.00  0.00    +0.000 C 
BRANCH  25  26
ATOM     26  N   UNL     1       7.262   6.287  16.824  0.00  0.00    +0.000 NA
ATOM     27  H   UNL     1       7.308   5.267  16.881  0.00  0.00    +0.000 HD
BRANCH  26  29
ATOM     28  C   UNL     1       7.967   5.782  19.094  0.00  0.00    +0.000 C 
ATOM     29  C   UNL     1       7.385   6.856  18.170  0.00  0.00    +0.000 C 
ATOM     30  C   UNL     1       8.280   8.095  18.205  0.00  0.00    +0.000 C 
ENDBRANCH  26  29
ENDBRANCH  25  26
ENDBRANCH   1  25
TORSDOF 5
ENDMDL
MODEL 5
REMARK VINA RESULT:      -8.2      2.446      7.816
REMARK  Name = 
REMARK  7 active torsions:
REMARK  status: ('A' for Active; 'I' for Inactive)
REMARK    1  A    between atoms: C_1  and  C_2
REMARK    2  A    between atoms: C_2  and  C_3
REMARK    3  A    between atoms: C_2  and  N_4
REMARK    4  A    between atoms: N_4  and  C_5
REMARK    5  A    between atoms: C_5  and  C_6
REMARK    6  A    between atoms: C_10  and  C_11
REMARK    7  A    between atoms: C_23  and  C_24
REMARK                            x       y       z     vdW  Elec       q    Type
REMARK                         _______ _______ _______ _____ _____    ______ ____
ROOT
ATOM      1  C   UNL     1       4.212   3.253  19.727  0.00  0.00    +0.000 C 
ATOM      2  O   UNL     1       5.278   2.640  19.641  0.00  0.00    +0.000 OA
ATOM      3  N   UNL     1       4.081   4.590  19.381  0.00  0.00    +0.000 N 
ATOM      4  N   UNL     1       2.958   5.315  19.671  0.00  0.00    +0.000 NA
ATOM      5  C   UNL     1       3.212   6.559  19.383  0.00  0.00    +0.000 C 
ATOM      6  C   UNL     1       4.595   6.808  18.831  0.00  0.00    +0.000 C 
ATOM      7  C   UNL     1       5.170   5.394  18.834  0.00  0.00    +0.000 C 
ENDROOT
BRANCH   5   8
ATOM      8  C   UNL     1       2.236   7.666  19.598  0.00  0.00    +0.000 A 
ATOM      9  C   UNL     1       1.742   7.798  20.840  0.00  0.00    +0.000 A 
ATOM     10  C   UNL     1       0.805   8.861  21.161  0.00  0.00    +0.000 A 
ATOM     11  C   UNL     1       0.274   9.031  22.441  0.00  0.00    +0.000 A 
ATOM     12  C   UNL     1      -0.614  10.082  22.695  0.00  0.00    +0.000 A 
ATOM     13  C   UNL     1      -0.972  10.965  21.675  0.00  0.00    +0.000 A 
ATOM     14  C   UNL     1      -0.447  10.799  20.395  0.00  0.00    +0.000 A 
ATOM     15  C   UNL     1       0.433   9.748  20.157  0.00  0.00    +0.000 A 
ATOM     16  O   UNL     1       0.942   9.613  18.855  0.00  0.00    +0.000 OA
ATOM     17  C   UNL     1       1.836   8.601  18.521  0.00  0.00    +0.000 A 
ATOM     18  O   UNL     1       2.266   8.506  17.377  0.00  0.00    +0.000 OA
ENDBRANCH   5   8
BRANCH   7  19
ATOM     19  C   UNL     1       5.587   4.942  17.448  0.00  0.00    +0.000 A 
ATOM     20  C   UNL     1       6.943   4.736  17.151  0.00  0.00    +0.000 A 
ATOM     21  C   UNL     1       7.331   4.301  15.885  0.00  0.00    +0.000 A 
ATOM     22  C   UNL     1       6.376   4.066  14.899  0.00  0.00    +0.000 A 
ATOM     23  C   UNL     1       5.027   4.269  15.179  0.00  0.00    +0.000 A 
ATOM     24  C   UNL     1       4.634   4.702  16.444  0.00  0.00    +0.000 A 
ENDBRANCH   7  19
BRANCH   1  25
ATOM     25  C   UNL     1       2.930   2.576  20.229  0.00  0.00    +0.000 C 
BRANCH  25  26
ATOM     26  N   UNL     1       2.250   1.894  19.110  0.00  0.00    +0.000 NA
ATOM     27  H   UNL     1       2.901   1.883  18.321  0.00  0.00    +0.000 HD
BRANCH  26  29
ATOM     28  C   UNL     1       0.385   3.211  19.940  0.00  0.00    +0.000 C 
ATOM     29  C   UNL     1       1.003   2.548  18.704  0.00  0.00    +0.000 C 
ATOM     30  C   UNL     1       1.219   3.603  17.617  0.00  0.00    +0.000 C 
ENDBRANCH  26  29
ENDBRANCH  25  26
ENDBRANCH   1  25
TORSDOF 5
ENDMDL
MODEL 6
REMARK VINA RESULT:      -7.6      2.603      7.236
REMARK  Name = 
REMARK  7 active torsions:
REMARK  status: ('A' for Active; 'I' for Inactive)
REMARK    1  A    between atoms: C_1  and  C_2
REMARK    2  A    between atoms: C_2  and  C_3
REMARK    3  A    between atoms: C_2  and  N_4
REMARK    4  A    between atoms: N_4  and  C_5
REMARK    5  A    between atoms: C_5  and  C_6
REMARK    6  A    between atoms: C_10  and  C_11
REMARK    7  A    between atoms: C_23  and  C_24
REMARK                            x       y       z     vdW  Elec       q    Type
REMARK                         _______ _______ _______ _____ _____    ______ ____
ROOT
ATOM      1  C   UNL     1       5.013   5.422  16.187  0.00  0.00    +0.000 C 
ATOM      2  O   UNL     1       5.100   4.355  15.576  0.00  0.00    +0.000 OA
ATOM      3  N   UNL     1       3.993   5.694  17.087  0.00  0.00    +0.000 N 
ATOM      4  N   UNL     1       3.785   6.944  17.603  0.00  0.00    +0.000 NA
ATOM      5  C   UNL     1       2.663   6.911  18.263  0.00  0.00    +0.000 C 
ATOM      6  C   UNL     1       1.975   5.567  18.271  0.00  0.00    +0.000 C 
ATOM      7  C   UNL     1       2.951   4.735  17.442  0.00  0.00    +0.000 C 
ENDROOT
BRANCH   5   8
ATOM      8  C   UNL     1       2.077   8.102  18.943  0.00  0.00    +0.000 A 
ATOM      9  C   UNL     1       2.055   9.245  18.237  0.00  0.00    +0.000 A 
ATOM     10  C   UNL     1       1.481  10.456  18.798  0.00  0.00    +0.000 A 
ATOM     11  C   UNL     1       1.437  11.661  18.094  0.00  0.00    +0.000 A 
ATOM     12  C   UNL     1       0.859  12.793  18.679  0.00  0.00    +0.000 A 
ATOM     13  C   UNL     1       0.324  12.724  19.967  0.00  0.00    +0.000 A 
ATOM     14  C   UNL     1       0.366  11.525  20.676  0.00  0.00    +0.000 A 
ATOM     15  C   UNL     1       0.946  10.409  20.080  0.00  0.00    +0.000 A 
ATOM     16  O   UNL     1       0.970   9.219  20.825  0.00  0.00    +0.000 OA
ATOM     17  C   UNL     1       1.519   8.048  20.313  0.00  0.00    +0.000 A 
ATOM     18  O   UNL     1       1.526   7.022  20.984  0.00  0.00    +0.000 OA
ENDBRANCH   5   8
BRANCH   7  19
ATOM     19  C   UNL     1       3.492   3.548  18.215  0.00  0.00    +0.000 A 
ATOM     20  C   UNL     1       4.233   3.750  19.390  0.00  0.00    +0.000 A 
ATOM     21  C   UNL     1       4.715   2.662  20.116  0.00  0.00    +0.000 A 
ATOM     22  C   UNL     1       4.468   1.362  19.684  0.00  0.00    +0.000 A 
ATOM     23  C   UNL     1       3.738   1.147  18.518  0.00  0.00    +0.000 A 
ATOM     24  C   UNL     1       3.251   2.231  17.789  0.00  0.00    +0.000 A 
ENDBRANCH   7  19
BRANCH   1  25
ATOM     25  C   UNL     1       6.040   6.546  16.000  0.00  0.00    +0.000 C 
BRANCH  25  26
ATOM     26  N   UNL     1       7.282   6.220  16.728  0.00  0.00    +0.000 NA
ATOM     27  H   UNL     1       7.334   5.201  16.798  0.00  0.00    +0.000 HD
BRANCH  26  29
ATOM     28  C   UNL     1       7.915   5.755  19.028  0.00  0.00    +0.000 C 
ATOM     29  C   UNL     1       7.335   6.803  18.072  0.00  0.00    +0.000 C 
ATOM     30  C   UNL     1       8.190   8.070  18.130  0.00  0.00    +0.000 C 
ENDBRANCH  26  29
ENDBRANCH  25  26
ENDBRANCH   1  25
TORSDOF 5
ENDMDL
MODEL 7
REMARK VINA RESULT:      -7.5      3.213      6.427
REMARK  Name = 
REMARK  7 active torsions:
REMARK  status: ('A' for Active; 'I' for Inactive)
REMARK    1  A    between atoms: C_1  and  C_2
REMARK    2  A    between atoms: C_2  and  C_3
REMARK    3  A    between atoms: C_2  and  N_4
REMARK    4  A    between atoms: N_4  and  C_5
REMARK    5  A    between atoms: C_5  and  C_6
REMARK    6  A    between atoms: C_10  and  C_11
REMARK    7  A    between atoms: C_23  and  C_24
REMARK                            x       y       z     vdW  Elec       q    Type
REMARK                         _______ _______ _______ _____ _____    ______ ____
ROOT
ATOM      1  C   UNL     1      -1.153  11.316  18.106  0.00  0.00    +0.000 C 
ATOM      2  O   UNL     1      -1.464  12.486  18.339  0.00  0.00    +0.000 OA
ATOM      3  N   UNL     1      -0.116  10.668  18.761  0.00  0.00    +0.000 N 
ATOM      4  N   UNL     1       0.354   9.448  18.358  0.00  0.00    +0.000 NA
ATOM      5  C   UNL     1       1.427   9.196  19.051  0.00  0.00    +0.000 C 
ATOM      6  C   UNL     1       1.798  10.266  20.049  0.00  0.00    +0.000 C 
ATOM      7  C   UNL     1       0.679  11.279  19.821  0.00  0.00    +0.000 C 
ENDROOT
BRANCH   5   8
ATOM      8  C   UNL     1       2.250   7.966  18.870  0.00  0.00    +0.000 A 
ATOM      9  C   UNL     1       3.036   7.924  17.781  0.00  0.00    +0.000 A 
ATOM     10  C   UNL     1       3.897   6.782  17.527  0.00  0.00    +0.000 A 
ATOM     11  C   UNL     1       4.729   6.705  16.408  0.00  0.00    +0.000 A 
ATOM     12  C   UNL     1       5.548   5.586  16.221  0.00  0.00    +0.000 A 
ATOM     13  C   UNL     1       5.539   4.543  17.150  0.00  0.00    +0.000 A 
ATOM     14  C   UNL     1       4.709   4.613  18.267  0.00  0.00    +0.000 A 
ATOM     15  C   UNL     1       3.899   5.732  18.437  0.00  0.00    +0.000 A 
ATOM     16  O   UNL     1       3.077   5.767  19.575  0.00  0.00    +0.000 OA
ATOM     17  C   UNL     1       2.239   6.845  19.839  0.00  0.00    +0.000 A 
ATOM     18  O   UNL     1       1.533   6.851  20.841  0.00  0.00    +0.000 OA
ENDBRANCH   5   8
BRANCH   7  19
ATOM     19  C   UNL     1      -0.129  11.533  21.079  0.00  0.00    +0.000 A 
ATOM     20  C   UNL     1      -0.471  10.467  21.926  0.00  0.00    +0.000 A 
ATOM     21  C   UNL     1      -1.195  10.698  23.094  0.00  0.00    +0.000 A 
ATOM     22  C   UNL     1      -1.589  11.989  23.435  0.00  0.00    +0.000 A 
ATOM     23  C   UNL     1      -1.259  13.056  22.603  0.00  0.00    +0.000 A 
ATOM     24  C   UNL     1      -0.533  12.832  21.434  0.00  0.00    +0.000 A 
ENDBRANCH   7  19
BRANCH   1  25
ATOM     25  C   UNL     1      -1.901  10.475  17.064  0.00  0.00    +0.000 C 
BRANCH  25  26
ATOM     26  N   UNL     1      -2.304  11.324  15.926  0.00  0.00    +0.000 NA
ATOM     27  H   UNL     1      -2.094  12.292  16.181  0.00  0.00    +0.000 HD
BRANCH  26  29
ATOM     28  C   UNL     1      -3.902   9.999  14.663  0.00  0.00    +0.000 C 
ATOM     29  C   UNL     1      -3.726  11.206  15.591  0.00  0.00    +0.000 C 
ATOM     30  C   UNL     1      -4.609  11.027  16.827  0.00  0.00    +0.000 C 
ENDBRANCH  26  29
ENDBRANCH  25  26
ENDBRANCH   1  25
TORSDOF 5
ENDMDL
MODEL 8
REMARK VINA RESULT:      -7.5      3.223      6.593
REMARK  Name = 
REMARK  7 active torsions:
REMARK  status: ('A' for Active; 'I' for Inactive)
REMARK    1  A    between atoms: C_1  and  C_2
REMARK    2  A    between atoms: C_2  and  C_3
REMARK    3  A    between atoms: C_2  and  N_4
REMARK    4  A    between atoms: N_4  and  C_5
REMARK    5  A    between atoms: C_5  and  C_6
REMARK    6  A    between atoms: C_10  and  C_11
REMARK    7  A    between atoms: C_23  and  C_24
REMARK                            x       y       z     vdW  Elec       q    Type
REMARK                         _______ _______ _______ _____ _____    ______ ____
ROOT
ATOM      1  C   UNL     1       0.914  12.616  18.717  0.00  0.00    +0.000 C 
ATOM      2  O   UNL     1       0.052  13.406  19.108  0.00  0.00    +0.000 OA
ATOM      3  N   UNL     1       0.769  11.239  18.804  0.00  0.00    +0.000 N 
ATOM      4  N   UNL     1       1.804  10.377  18.561  0.00  0.00    +0.000 NA
ATOM      5  C   UNL     1       1.404   9.184  18.896  0.00  0.00    +0.000 C 
ATOM      6  C   UNL     1      -0.014   9.116  19.409  0.00  0.00    +0.000 C 
ATOM      7  C   UNL     1      -0.429  10.583  19.316  0.00  0.00    +0.000 C 
ENDROOT
BRANCH   5   8
ATOM      8  C   UNL     1       2.271   7.974  18.808  0.00  0.00    +0.000 A 
ATOM      9  C   UNL     1       3.049   7.871  17.717  0.00  0.00    +0.000 A 
ATOM     10  C   UNL     1       3.950   6.744  17.548  0.00  0.00    +0.000 A 
ATOM     11  C   UNL     1       4.775   6.605  16.431  0.00  0.00    +0.000 A 
ATOM     12  C   UNL     1       5.634   5.505  16.328  0.00  0.00    +0.000 A 
ATOM     13  C   UNL     1       5.671   4.544  17.339  0.00  0.00    +0.000 A 
ATOM     14  C   UNL     1       4.848   4.675  18.456  0.00  0.00    +0.000 A 
ATOM     15  C   UNL     1       3.998   5.773  18.542  0.00  0.00    +0.000 A 
ATOM     16  O   UNL     1       3.184   5.872  19.682  0.00  0.00    +0.000 OA
ATOM     17  C   UNL     1       2.309   6.938  19.866  0.00  0.00    +0.000 A 
ATOM     18  O   UNL     1       1.611   7.001  20.871  0.00  0.00    +0.000 OA
ENDBRANCH   5   8
BRANCH   7  19
ATOM     19  C   UNL     1      -1.632  10.782  18.415  0.00  0.00    +0.000 A 
ATOM     20  C   UNL     1      -1.698  10.131  17.172  0.00  0.00    +0.000 A 
ATOM     21  C   UNL     1      -2.810  10.294  16.348  0.00  0.00    +0.000 A 
ATOM     22  C   UNL     1      -3.869  11.106  16.747  0.00  0.00    +0.000 A 
ATOM     23  C   UNL     1      -3.815  11.760  17.976  0.00  0.00    +0.000 A 
ATOM     24  C   UNL     1      -2.706  11.599  18.805  0.00  0.00    +0.000 A 
ENDBRANCH   7  19
BRANCH   1  25
ATOM     25  C   UNL     1       2.229  13.100  18.093  0.00  0.00    +0.000 C 
BRANCH  25  26
ATOM     26  N   UNL     1       2.475  14.507  18.464  0.00  0.00    +0.000 NA
ATOM     27  H   UNL     1       1.571  14.985  18.456  0.00  0.00    +0.000 HD
BRANCH  26  29
ATOM     28  C   UNL     1       3.097  16.695  17.610  0.00  0.00    +0.000 C 
ATOM     29  C   UNL     1       3.398  15.194  17.555  0.00  0.00    +0.000 C 
ATOM     30  C   UNL     1       4.865  14.957  17.917  0.00  0.00    +0.000 C 
ENDBRANCH  26  29
ENDBRANCH  25  26
ENDBRANCH   1  25
TORSDOF 5
ENDMDL
MODEL 9
REMARK VINA RESULT:      -7.5      2.144      7.827
REMARK  Name = 
REMARK  7 active torsions:
REMARK  status: ('A' for Active; 'I' for Inactive)
REMARK    1  A    between atoms: C_1  and  C_2
REMARK    2  A    between atoms: C_2  and  C_3
REMARK    3  A    between atoms: C_2  and  N_4
REMARK    4  A    between atoms: N_4  and  C_5
REMARK    5  A    between atoms: C_5  and  C_6
REMARK    6  A    between atoms: C_10  and  C_11
REMARK    7  A    between atoms: C_23  and  C_24
REMARK                            x       y       z     vdW  Elec       q    Type
REMARK                         _______ _______ _______ _____ _____    ______ ____
ROOT
ATOM      1  C   UNL     1       4.336   3.370  19.016  0.00  0.00    +0.000 C 
ATOM      2  O   UNL     1       5.406   2.773  18.883  0.00  0.00    +0.000 OA
ATOM      3  N   UNL     1       4.190   4.724  18.753  0.00  0.00    +0.000 N 
ATOM      4  N   UNL     1       3.064   5.420  19.097  0.00  0.00    +0.000 NA
ATOM      5  C   UNL     1       3.305   6.682  18.884  0.00  0.00    +0.000 C 
ATOM      6  C   UNL     1       4.680   6.976  18.334  0.00  0.00    +0.000 C 
ATOM      7  C   UNL     1       5.267   5.569  18.246  0.00  0.00    +0.000 C 
ENDROOT
BRANCH   5   8
ATOM      8  C   UNL     1       2.322   7.765  19.174  0.00  0.00    +0.000 A 
ATOM      9  C   UNL     1       1.838   7.816  20.427  0.00  0.00    +0.000 A 
ATOM     10  C   UNL     1       0.896   8.849  20.820  0.00  0.00    +0.000 A 
ATOM     11  C   UNL     1       0.374   8.935  22.113  0.00  0.00    +0.000 A 
ATOM     12  C   UNL     1      -0.519   9.961  22.439  0.00  0.00    +0.000 A 
ATOM     13  C   UNL     1      -0.893  10.902  21.478  0.00  0.00    +0.000 A 
ATOM     14  C   UNL     1      -0.378  10.820  20.186  0.00  0.00    +0.000 A 
ATOM     15  C   UNL     1       0.508   9.793  19.877  0.00  0.00    +0.000 A 
ATOM     16  O   UNL     1       1.007   9.744  18.565  0.00  0.00    +0.000 OA
ATOM     17  C   UNL     1       1.905   8.761  18.161  0.00  0.00    +0.000 A 
ATOM     18  O   UNL     1       2.326   8.742  17.010  0.00  0.00    +0.000 OA
ENDBRANCH   5   8
BRANCH   7  19
ATOM     19  C   UNL     1       5.673   5.206  16.831  0.00  0.00    +0.000 A 
ATOM     20  C   UNL     1       7.025   5.239  16.455  0.00  0.00    +0.000 A 
ATOM     21  C   UNL     1       7.407   4.886  15.161  0.00  0.00    +0.000 A 
ATOM     22  C   UNL     1       6.451   4.498  14.227  0.00  0.00    +0.000 A 
ATOM     23  C   UNL     1       5.106   4.464  14.586  0.00  0.00    +0.000 A 
ATOM     24  C   UNL     1       4.718   4.814  15.878  0.00  0.00    +0.000 A 
ENDBRANCH   7  19
BRANCH   1  25
ATOM     25  C   UNL     1       3.064   2.652  19.488  0.00  0.00    +0.000 C 
BRANCH  25  26
ATOM     26  N   UNL     1       2.963   2.720  20.958  0.00  0.00    +0.000 NA
ATOM     27  H   UNL     1       3.142   1.780  21.318  0.00  0.00    +0.000 HD
BRANCH  26  29
ATOM     28  C   UNL     1       0.726   3.311  20.215  0.00  0.00    +0.000 C 
ATOM     29  C   UNL     1       1.653   3.181  21.429  0.00  0.00    +0.000 C 
ATOM     30  C   UNL     1       1.025   2.227  22.447  0.00  0.00    +0.000 C 
ENDBRANCH  26  29
ENDBRANCH  25  26
ENDBRANCH   1  25
TORSDOF 5
ENDMDL
