MODEL 1
REMARK VINA RESULT:      -8.4      0.000      0.000
REMARK  Name = 
REMARK  5 active torsions:
REMARK  status: ('A' for Active; 'I' for Inactive)
REMARK    1  A    between atoms: C_1  and  O_2
REMARK    2  A    between atoms: O_2  and  C_3
REMARK    3  A    between atoms: C_7  and  S_8
REMARK    4  A    between atoms: S_8  and  O_11
REMARK    5  A    between atoms: O_11  and  C_12
REMARK                            x       y       z     vdW  Elec       q    Type
REMARK                         _______ _______ _______ _____ _____    ______ ____
ROOT
ATOM      1  C   UNL     1       3.681   5.139  17.660  0.00  0.00    +0.000 A 
ATOM      2  C   UNL     1       3.481   3.970  18.440  0.00  0.00    +0.000 A 
ATOM      3  C   UNL     1       4.207   2.784  18.285  0.00  0.00    +0.000 A 
ATOM      4  C   UNL     1       3.574   1.566  18.448  0.00  0.00    +0.000 A 
ATOM      5  C   UNL     1       2.369   1.529  19.127  0.00  0.00    +0.000 A 
ATOM      6  C   UNL     1       1.888   2.699  19.716  0.00  0.00    +0.000 A 
ATOM      7  C   UNL     1       2.431   3.950  19.359  0.00  0.00    +0.000 A 
ATOM      8  C   UNL     1       1.909   5.168  19.817  0.00  0.00    +0.000 A 
ATOM      9  C   UNL     1       2.272   6.385  19.210  0.00  0.00    +0.000 A 
ATOM     10  C   UNL     1       1.748   7.596  19.700  0.00  0.00    +0.000 A 
ATOM     11  C   UNL     1       2.004   8.793  19.034  0.00  0.00    +0.000 A 
ATOM     12  C   UNL     1       2.765   8.795  17.867  0.00  0.00    +0.000 A 
ATOM     13  C   UNL     1       3.310   7.598  17.387  0.00  0.00    +0.000 A 
ATOM     14  C   UNL     1       3.105   6.374  18.061  0.00  0.00    +0.000 A 
ENDROOT
BRANCH   1  15
ATOM     15  O   UNL     1       4.301   5.083  16.401  0.00  0.00    +0.000 OA
BRANCH  15  16
ATOM     16  S   UNL     1       5.929   5.372  16.268  0.00  0.00    +0.000 S 
ATOM     17  O   UNL     1       6.665   4.557  17.212  0.00  0.00    +0.000 OA
ATOM     18  O   UNL     1       6.135   6.809  16.192  0.00  0.00    +0.000 OA
BRANCH  16  23
ATOM     19  C   UNL     1       5.923   3.548  12.675  0.00  0.00    +0.000 A 
ATOM     20  C   UNL     1       7.028   4.121  12.074  0.00  0.00    +0.000 A 
ATOM     21  C   UNL     1       7.838   5.039  12.745  0.00  0.00    +0.000 A 
ATOM     22  C   UNL     1       7.544   5.396  14.058  0.00  0.00    +0.000 A 
ATOM     23  C   UNL     1       6.446   4.801  14.675  0.00  0.00    +0.000 A 
ATOM     24  C   UNL     1       5.610   3.909  13.984  0.00  0.00    +0.000 A 
BRANCH  19  26
ATOM     25  C   UNL     1       4.057   3.211  11.218  0.00  0.00    +0.000 C 
ATOM     26  O   UNL     1       5.186   2.683  11.908  0.00  0.00    +0.000 OA
ENDBRANCH  19  26
ENDBRANCH  16  23
ENDBRANCH  15  16
ENDBRANCH   1  15
TORSDOF 4
ENDMDL
MODEL 2
REMARK VINA RESULT:      -8.4      3.036      7.229
REMARK  Name = 
REMARK  5 active torsions:
REMARK  status: ('A' for Active; 'I' for Inactive)
REMARK    1  A    between atoms: C_1  and  O_2
REMARK    2  A    between atoms: O_2  and  C_3
REMARK    3  A    between atoms: C_7  and  S_8
REMARK    4  A    between atoms: S_8  and  O_11
REMARK    5  A    between atoms: O_11  and  C_12
REMARK                            x       y       z     vdW  Elec       q    Type
REMARK                         _______ _______ _______ _____ _____    ______ ____
ROOT
ATOM      1  C   UNL     1       3.304   5.723  18.353  0.00  0.00    +0.000 A 
ATOM      2  C   UNL     1       2.655   4.645  19.009  0.00  0.00    +0.000 A 
ATOM      3  C   UNL     1       1.597   4.793  19.912  0.00  0.00    +0.000 A 
ATOM      4  C   UNL     1       1.511   3.956  21.010  0.00  0.00    +0.000 A 
ATOM      5  C   UNL     1       2.218   2.768  20.997  0.00  0.00    +0.000 A 
ATOM      6  C   UNL     1       2.906   2.402  19.838  0.00  0.00    +0.000 A 
ATOM      7  C   UNL     1       3.153   3.354  18.828  0.00  0.00    +0.000 A 
ATOM      8  C   UNL     1       3.945   3.085  17.702  0.00  0.00    +0.000 A 
ATOM      9  C   UNL     1       4.418   4.128  16.884  0.00  0.00    +0.000 A 
ATOM     10  C   UNL     1       5.196   3.832  15.749  0.00  0.00    +0.000 A 
ATOM     11  C   UNL     1       5.769   4.859  15.002  0.00  0.00    +0.000 A 
ATOM     12  C   UNL     1       5.590   6.186  15.385  0.00  0.00    +0.000 A 
ATOM     13  C   UNL     1       4.798   6.491  16.499  0.00  0.00    +0.000 A 
ATOM     14  C   UNL     1       4.168   5.476  17.253  0.00  0.00    +0.000 A 
ENDROOT
BRANCH   1  15
ATOM     15  O   UNL     1       3.249   7.032  18.862  0.00  0.00    +0.000 OA
BRANCH  15  16
ATOM     16  S   UNL     1       2.160   8.117  18.238  0.00  0.00    +0.000 S 
ATOM     17  O   UNL     1       1.119   7.423  17.508  0.00  0.00    +0.000 OA
ATOM     18  O   UNL     1       2.899   9.214  17.638  0.00  0.00    +0.000 OA
BRANCH  16  23
ATOM     19  C   UNL     1      -0.349  10.449  20.360  0.00  0.00    +0.000 A 
ATOM     20  C   UNL     1      -0.233   9.901  21.623  0.00  0.00    +0.000 A 
ATOM     21  C   UNL     1       0.638   8.842  21.889  0.00  0.00    +0.000 A 
ATOM     22  C   UNL     1       1.423   8.315  20.867  0.00  0.00    +0.000 A 
ATOM     23  C   UNL     1       1.328   8.882  19.599  0.00  0.00    +0.000 A 
ATOM     24  C   UNL     1       0.420   9.920  19.325  0.00  0.00    +0.000 A 
BRANCH  19  26
ATOM     25  C   UNL     1      -1.220  12.216  19.003  0.00  0.00    +0.000 C 
ATOM     26  O   UNL     1      -1.259  11.464  20.213  0.00  0.00    +0.000 OA
ENDBRANCH  19  26
ENDBRANCH  16  23
ENDBRANCH  15  16
ENDBRANCH   1  15
TORSDOF 4
ENDMDL
MODEL 3
REMARK VINA RESULT:      -8.3      2.991      7.420
REMARK  Name = 
REMARK  5 active torsions:
REMARK  status: ('A' for Active; 'I' for Inactive)
REMARK    1  A    between atoms: C_1  and  O_2
REMARK    2  A    between atoms: O_2  and  C_3
REMARK    3  A    between atoms: C_7  and  S_8
REMARK    4  A    between atoms: S_8  and  O_11
REMARK    5  A    between atoms: O_11  and  C_12
REMARK                            x       y       z     vdW  Elec       q    Type
REMARK                         _______ _______ _______ _____ _____    ______ ____
ROOT
ATOM      1  C   UNL     1       3.625   5.566  18.814  0.00  0.00    +0.000 A 
ATOM      2  C   UNL     1       4.585   5.340  17.793  0.00  0.00    +0.000 A 
ATOM      3  C   UNL     1       5.623   6.222  17.476  0.00  0.00    +0.000 A 
ATOM      4  C   UNL     1       6.006   6.385  16.157  0.00  0.00    +0.000 A 
ATOM      5  C   UNL     1       5.647   5.417  15.237  0.00  0.00    +0.000 A 
ATOM      6  C   UNL     1       5.006   4.261  15.685  0.00  0.00    +0.000 A 
ATOM      7  C   UNL     1       4.443   4.216  16.977  0.00  0.00    +0.000 A 
ATOM      8  C   UNL     1       3.678   3.136  17.440  0.00  0.00    +0.000 A 
ATOM      9  C   UNL     1       2.885   3.253  18.597  0.00  0.00    +0.000 A 
ATOM     10  C   UNL     1       2.141   2.149  19.052  0.00  0.00    +0.000 A 
ATOM     11  C   UNL     1       1.262   2.287  20.124  0.00  0.00    +0.000 A 
ATOM     12  C   UNL     1       1.101   3.525  20.741  0.00  0.00    +0.000 A 
ATOM     13  C   UNL     1       1.855   4.624  20.310  0.00  0.00    +0.000 A 
ATOM     14  C   UNL     1       2.786   4.507  19.254  0.00  0.00    +0.000 A 
ENDROOT
BRANCH   1  15
ATOM     15  O   UNL     1       3.359   6.858  19.297  0.00  0.00    +0.000 OA
BRANCH  15  16
ATOM     16  S   UNL     1       2.337   7.860  18.457  0.00  0.00    +0.000 S 
ATOM     17  O   UNL     1       1.371   7.083  17.709  0.00  0.00    +0.000 OA
ATOM     18  O   UNL     1       3.133   8.893  17.816  0.00  0.00    +0.000 OA
BRANCH  16  23
ATOM     19  C   UNL     1      -0.319  10.429  20.065  0.00  0.00    +0.000 A 
ATOM     20  C   UNL     1      -0.371   9.987  21.373  0.00  0.00    +0.000 A 
ATOM     21  C   UNL     1       0.424   8.933  21.827  0.00  0.00    +0.000 A 
ATOM     22  C   UNL     1       1.304   8.301  20.953  0.00  0.00    +0.000 A 
ATOM     23  C   UNL     1       1.379   8.760  19.641  0.00  0.00    +0.000 A 
ATOM     24  C   UNL     1       0.547   9.793  19.177  0.00  0.00    +0.000 A 
BRANCH  19  26
ATOM     25  C   UNL     1      -1.107  11.947  18.393  0.00  0.00    +0.000 C 
ATOM     26  O   UNL     1      -1.168  11.451  19.727  0.00  0.00    +0.000 OA
ENDBRANCH  19  26
ENDBRANCH  16  23
ENDBRANCH  15  16
ENDBRANCH   1  15
TORSDOF 4
ENDMDL
MODEL 4
REMARK VINA RESULT:      -8.3      2.897      7.416
REMARK  Name = 
REMARK  5 active torsions:
REMARK  status: ('A' for Active; 'I' for Inactive)
REMARK    1  A    between atoms: C_1  and  O_2
REMARK    2  A    between atoms: O_2  and  C_3
REMARK    3  A    between atoms: C_7  and  S_8
REMARK    4  A    between atoms: S_8  and  O_11
REMARK    5  A    between atoms: O_11  and  C_12
REMARK                            x       y       z     vdW  Elec       q    Type
REMARK                         _______ _______ _______ _____ _____    ______ ____
ROOT
ATOM      1  C   UNL     1       3.664   5.568  18.775  0.00  0.00    +0.000 A 
ATOM      2  C   UNL     1       4.686   5.274  17.835  0.00  0.00    +0.000 A 
ATOM      3  C   UNL     1       5.712   6.157  17.483  0.00  0.00    +0.000 A 
ATOM      4  C   UNL     1       6.164   6.199  16.176  0.00  0.00    +0.000 A 
ATOM      5  C   UNL     1       5.887   5.129  15.344  0.00  0.00    +0.000 A 
ATOM      6  C   UNL     1       5.258   4.002  15.876  0.00  0.00    +0.000 A 
ATOM      7  C   UNL     1       4.625   4.069  17.133  0.00  0.00    +0.000 A 
ATOM      8  C   UNL     1       3.869   3.015  17.665  0.00  0.00    +0.000 A 
ATOM      9  C   UNL     1       3.010   3.220  18.761  0.00  0.00    +0.000 A 
ATOM     10  C   UNL     1       2.275   2.141  19.288  0.00  0.00    +0.000 A 
ATOM     11  C   UNL     1       1.334   2.356  20.293  0.00  0.00    +0.000 A 
ATOM     12  C   UNL     1       1.100   3.644  20.768  0.00  0.00    +0.000 A 
ATOM     13  C   UNL     1       1.844   4.719  20.266  0.00  0.00    +0.000 A 
ATOM     14  C   UNL     1       2.835   4.530  19.278  0.00  0.00    +0.000 A 
ENDROOT
BRANCH   1  15
ATOM     15  O   UNL     1       3.332   6.892  19.107  0.00  0.00    +0.000 OA
BRANCH  15  16
ATOM     16  S   UNL     1       2.385   7.788  18.081  0.00  0.00    +0.000 S 
ATOM     17  O   UNL     1       1.416   6.940  17.418  0.00  0.00    +0.000 OA
ATOM     18  O   UNL     1       3.245   8.683  17.326  0.00  0.00    +0.000 OA
BRANCH  16  23
ATOM     19  C   UNL     1       0.828   9.685  21.278  0.00  0.00    +0.000 A 
ATOM     20  C   UNL     1       0.200  10.761  20.680  0.00  0.00    +0.000 A 
ATOM     21  C   UNL     1       0.184  10.928  19.293  0.00  0.00    +0.000 A 
ATOM     22  C   UNL     1       0.808   9.991  18.474  0.00  0.00    +0.000 A 
ATOM     23  C   UNL     1       1.419   8.892  19.072  0.00  0.00    +0.000 A 
ATOM     24  C   UNL     1       1.469   8.749  20.469  0.00  0.00    +0.000 A 
BRANCH  19  26
ATOM     25  C   UNL     1      -0.453   9.837  23.292  0.00  0.00    +0.000 C 
ATOM     26  O   UNL     1       0.804   9.644  22.648  0.00  0.00    +0.000 OA
ENDBRANCH  19  26
ENDBRANCH  16  23
ENDBRANCH  15  16
ENDBRANCH   1  15
TORSDOF 4
ENDMDL
MODEL 5
REMARK VINA RESULT:      -8.0      1.046      1.078
REMARK  Name = 
REMARK  5 active torsions:
REMARK  status: ('A' for Active; 'I' for Inactive)
REMARK    1  A    between atoms: C_1  and  O_2
REMARK    2  A    between atoms: O_2  and  C_3
REMARK    3  A    between atoms: C_7  and  S_8
REMARK    4  A    between atoms: S_8  and  O_11
REMARK    5  A    between atoms: O_11  and  C_12
REMARK                            x       y       z     vdW  Elec       q    Type
REMARK                         _______ _______ _______ _____ _____    ______ ____
ROOT
ATOM      1  C   UNL     1       3.607   5.640  18.433  0.00  0.00    +0.000 A 
ATOM      2  C   UNL     1       3.576   4.695  19.491  0.00  0.00    +0.000 A 
ATOM      3  C   UNL     1       4.436   3.595  19.592  0.00  0.00    +0.000 A 
ATOM      4  C   UNL     1       3.961   2.397  20.093  0.00  0.00    +0.000 A 
ATOM      5  C   UNL     1       2.793   2.404  20.834  0.00  0.00    +0.000 A 
ATOM      6  C   UNL     1       2.193   3.626  21.142  0.00  0.00    +0.000 A 
ATOM      7  C   UNL     1       2.568   4.796  20.451  0.00  0.00    +0.000 A 
ATOM      8  C   UNL     1       1.918   6.026  20.622  0.00  0.00    +0.000 A 
ATOM      9  C   UNL     1       2.109   7.080  19.709  0.00  0.00    +0.000 A 
ATOM     10  C   UNL     1       1.459   8.312  19.913  0.00  0.00    +0.000 A 
ATOM     11  C   UNL     1       1.546   9.319  18.954  0.00  0.00    +0.000 A 
ATOM     12  C   UNL     1       2.262   9.106  17.779  0.00  0.00    +0.000 A 
ATOM     13  C   UNL     1       2.931   7.892  17.579  0.00  0.00    +0.000 A 
ATOM     14  C   UNL     1       2.899   6.867  18.549  0.00  0.00    +0.000 A 
ENDROOT
BRANCH   1  15
ATOM     15  O   UNL     1       4.187   5.333  17.191  0.00  0.00    +0.000 OA
BRANCH  15  16
ATOM     16  S   UNL     1       5.798   5.636  16.934  0.00  0.00    +0.000 S 
ATOM     17  O   UNL     1       6.609   4.875  17.862  0.00  0.00    +0.000 OA
ATOM     18  O   UNL     1       5.975   7.070  16.777  0.00  0.00    +0.000 OA
BRANCH  16  23
ATOM     19  C   UNL     1       5.468   3.976  13.277  0.00  0.00    +0.000 A 
ATOM     20  C   UNL     1       6.704   4.264  12.731  0.00  0.00    +0.000 A 
ATOM     21  C   UNL     1       7.695   4.926  13.460  0.00  0.00    +0.000 A 
ATOM     22  C   UNL     1       7.449   5.309  14.776  0.00  0.00    +0.000 A 
ATOM     23  C   UNL     1       6.214   4.997  15.337  0.00  0.00    +0.000 A 
ATOM     24  C   UNL     1       5.205   4.368  14.588  0.00  0.00    +0.000 A 
BRANCH  19  26
ATOM     25  C   UNL     1       5.081   2.518  11.420  0.00  0.00    +0.000 C 
ATOM     26  O   UNL     1       4.566   3.349  12.456  0.00  0.00    +0.000 OA
ENDBRANCH  19  26
ENDBRANCH  16  23
ENDBRANCH  15  16
ENDBRANCH   1  15
TORSDOF 4
ENDMDL
MODEL 6
REMARK VINA RESULT:      -8.0      5.948      9.069
REMARK  Name = 
REMARK  5 active torsions:
REMARK  status: ('A' for Active; 'I' for Inactive)
REMARK    1  A    between atoms: C_1  and  O_2
REMARK    2  A    between atoms: O_2  and  C_3
REMARK    3  A    between atoms: C_7  and  S_8
REMARK    4  A    between atoms: S_8  and  O_11
REMARK    5  A    between atoms: O_11  and  C_12
REMARK                            x       y       z     vdW  Elec       q    Type
REMARK                         _______ _______ _______ _____ _____    ______ ____
ROOT
ATOM      1  C   UNL     1      -1.795  11.555  19.547  0.00  0.00    +0.000 A 
ATOM      2  C   UNL     1      -2.533  10.976  18.481  0.00  0.00    +0.000 A 
ATOM      3  C   UNL     1      -2.066   9.935  17.671  0.00  0.00    +0.000 A 
ATOM      4  C   UNL     1      -2.383   9.919  16.325  0.00  0.00    +0.000 A 
ATOM      5  C   UNL     1      -3.448  10.684  15.884  0.00  0.00    +0.000 A 
ATOM      6  C   UNL     1      -4.231  11.359  16.821  0.00  0.00    +0.000 A 
ATOM      7  C   UNL     1      -3.767  11.533  18.141  0.00  0.00    +0.000 A 
ATOM      8  C   UNL     1      -4.444  12.309  19.093  0.00  0.00    +0.000 A 
ATOM      9  C   UNL     1      -3.811  12.709  20.285  0.00  0.00    +0.000 A 
ATOM     10  C   UNL     1      -4.518  13.472  21.233  0.00  0.00    +0.000 A 
ATOM     11  C   UNL     1      -3.867  13.975  22.358  0.00  0.00    +0.000 A 
ATOM     12  C   UNL     1      -2.507  13.740  22.541  0.00  0.00    +0.000 A 
ATOM     13  C   UNL     1      -1.801  12.962  21.615  0.00  0.00    +0.000 A 
ATOM     14  C   UNL     1      -2.440  12.403  20.486  0.00  0.00    +0.000 A 
ENDROOT
BRANCH   1  15
ATOM     15  O   UNL     1      -0.395  11.448  19.612  0.00  0.00    +0.000 OA
BRANCH  15  16
ATOM     16  S   UNL     1       0.303  10.383  20.674  0.00  0.00    +0.000 S 
ATOM     17  O   UNL     1      -0.707   9.543  21.285  0.00  0.00    +0.000 OA
ATOM     18  O   UNL     1       1.270  11.107  21.481  0.00  0.00    +0.000 OA
BRANCH  16  23
ATOM     19  C   UNL     1       2.340   7.093  19.550  0.00  0.00    +0.000 A 
ATOM     20  C   UNL     1       2.600   7.370  18.222  0.00  0.00    +0.000 A 
ATOM     21  C   UNL     1       2.212   8.575  17.631  0.00  0.00    +0.000 A 
ATOM     22  C   UNL     1       1.549   9.537  18.388  0.00  0.00    +0.000 A 
ATOM     23  C   UNL     1       1.309   9.272  19.734  0.00  0.00    +0.000 A 
ATOM     24  C   UNL     1       1.664   8.042  20.314  0.00  0.00    +0.000 A 
BRANCH  19  26
ATOM     25  C   UNL     1       3.883   5.271  19.398  0.00  0.00    +0.000 C 
ATOM     26  O   UNL     1       2.742   5.865  20.011  0.00  0.00    +0.000 OA
ENDBRANCH  19  26
ENDBRANCH  16  23
ENDBRANCH  15  16
ENDBRANCH   1  15
TORSDOF 4
ENDMDL
MODEL 7
REMARK VINA RESULT:      -7.9      2.384      4.199
REMARK  Name = 
REMARK  5 active torsions:
REMARK  status: ('A' for Active; 'I' for Inactive)
REMARK    1  A    between atoms: C_1  and  O_2
REMARK    2  A    between atoms: O_2  and  C_3
REMARK    3  A    between atoms: C_7  and  S_8
REMARK    4  A    between atoms: S_8  and  O_11
REMARK    5  A    between atoms: O_11  and  C_12
REMARK                            x       y       z     vdW  Elec       q    Type
REMARK                         _______ _______ _______ _____ _____    ______ ____
ROOT
ATOM      1  C   UNL     1       4.928   5.068  16.820  0.00  0.00    +0.000 A 
ATOM      2  C   UNL     1       5.780   5.885  17.609  0.00  0.00    +0.000 A 
ATOM      3  C   UNL     1       6.393   7.057  17.153  0.00  0.00    +0.000 A 
ATOM      4  C   UNL     1       7.672   7.370  17.574  0.00  0.00    +0.000 A 
ATOM      5  C   UNL     1       8.167   6.755  18.710  0.00  0.00    +0.000 A 
ATOM      6  C   UNL     1       7.325   5.924  19.451  0.00  0.00    +0.000 A 
ATOM      7  C   UNL     1       6.117   5.458  18.894  0.00  0.00    +0.000 A 
ATOM      8  C   UNL     1       5.291   4.522  19.534  0.00  0.00    +0.000 A 
ATOM      9  C   UNL     1       4.270   3.856  18.831  0.00  0.00    +0.000 A 
ATOM     10  C   UNL     1       3.443   2.935  19.499  0.00  0.00    +0.000 A 
ATOM     11  C   UNL     1       2.510   2.182  18.789  0.00  0.00    +0.000 A 
ATOM     12  C   UNL     1       2.403   2.324  17.408  0.00  0.00    +0.000 A 
ATOM     13  C   UNL     1       3.206   3.255  16.737  0.00  0.00    +0.000 A 
ATOM     14  C   UNL     1       4.132   4.064  17.433  0.00  0.00    +0.000 A 
ENDROOT
BRANCH   1  15
ATOM     15  O   UNL     1       4.967   5.109  15.416  0.00  0.00    +0.000 OA
BRANCH  15  16
ATOM     16  S   UNL     1       6.275   4.488  14.608  0.00  0.00    +0.000 S 
ATOM     17  O   UNL     1       6.849   3.383  15.349  0.00  0.00    +0.000 OA
ATOM     18  O   UNL     1       7.097   5.594  14.147  0.00  0.00    +0.000 OA
BRANCH  16  23
ATOM     19  C   UNL     1       5.860   1.997  11.468  0.00  0.00    +0.000 A 
ATOM     20  C   UNL     1       4.643   2.402  10.954  0.00  0.00    +0.000 A 
ATOM     21  C   UNL     1       3.929   3.468  11.505  0.00  0.00    +0.000 A 
ATOM     22  C   UNL     1       4.444   4.156  12.600  0.00  0.00    +0.000 A 
ATOM     23  C   UNL     1       5.682   3.767  13.105  0.00  0.00    +0.000 A 
ATOM     24  C   UNL     1       6.379   2.669  12.573  0.00  0.00    +0.000 A 
BRANCH  19  26
ATOM     25  C   UNL     1       6.195  -0.371  11.407  0.00  0.00    +0.000 C 
ATOM     26  O   UNL     1       6.454   0.920  10.862  0.00  0.00    +0.000 OA
ENDBRANCH  19  26
ENDBRANCH  16  23
ENDBRANCH  15  16
ENDBRANCH   1  15
TORSDOF 4
ENDMDL
MODEL 8
REMARK VINA RESULT:      -7.9      2.906      7.232
REMARK  Name = 
REMARK  5 active torsions:
REMARK  status: ('A' for Active; 'I' for Inactive)
REMARK    1  A    between atoms: C_1  and  O_2
REMARK    2  A    between atoms: O_2  and  C_3
REMARK    3  A    between atoms: C_7  and  S_8
REMARK    4  A    between atoms: S_8  and  O_11
REMARK    5  A    between atoms: O_11  and  C_12
REMARK                            x       y       z     vdW  Elec       q    Type
REMARK                         _______ _______ _______ _____ _____    ______ ____
ROOT
ATOM      1  C   UNL     1       3.333   5.713  18.371  0.00  0.00    +0.000 A 
ATOM      2  C   UNL     1       2.754   4.660  19.125  0.00  0.00    +0.000 A 
ATOM      3  C   UNL     1       1.682   4.819  20.010  0.00  0.00    +0.000 A 
ATOM      4  C   UNL     1       1.645   4.086  21.182  0.00  0.00    +0.000 A 
ATOM      5  C   UNL     1       2.431   2.953  21.282  0.00  0.00    +0.000 A 
ATOM      6  C   UNL     1       3.150   2.527  20.163  0.00  0.00    +0.000 A 
ATOM      7  C   UNL     1       3.339   3.394  19.068  0.00  0.00    +0.000 A 
ATOM      8  C   UNL     1       4.155   3.076  17.973  0.00  0.00    +0.000 A 
ATOM      9  C   UNL     1       4.563   4.066  17.060  0.00  0.00    +0.000 A 
ATOM     10  C   UNL     1       5.367   3.718  15.959  0.00  0.00    +0.000 A 
ATOM     11  C   UNL     1       5.874   4.707  15.119  0.00  0.00    +0.000 A 
ATOM     12  C   UNL     1       5.604   6.048  15.374  0.00  0.00    +0.000 A 
ATOM     13  C   UNL     1       4.785   6.402  16.454  0.00  0.00    +0.000 A 
ATOM     14  C   UNL     1       4.220   5.423  17.300  0.00  0.00    +0.000 A 
ENDROOT
BRANCH   1  15
ATOM     15  O   UNL     1       3.186   7.057  18.755  0.00  0.00    +0.000 OA
BRANCH  15  16
ATOM     16  S   UNL     1       2.100   8.029  17.963  0.00  0.00    +0.000 S 
ATOM     17  O   UNL     1       0.991   7.243  17.462  0.00  0.00    +0.000 OA
ATOM     18  O   UNL     1       2.839   8.929  17.093  0.00  0.00    +0.000 OA
BRANCH  16  23
ATOM     19  C   UNL     1       0.991   9.634  21.488  0.00  0.00    +0.000 A 
ATOM     20  C   UNL     1       0.575  10.893  21.099  0.00  0.00    +0.000 A 
ATOM     21  C   UNL     1       0.571  11.285  19.759  0.00  0.00    +0.000 A 
ATOM     22  C   UNL     1       0.988  10.395  18.773  0.00  0.00    +0.000 A 
ATOM     23  C   UNL     1       1.383   9.117  19.159  0.00  0.00    +0.000 A 
ATOM     24  C   UNL     1       1.426   8.739  20.512  0.00  0.00    +0.000 A 
BRANCH  19  26
ATOM     25  C   UNL     1      -0.244   9.570  23.536  0.00  0.00    +0.000 C 
ATOM     26  O   UNL     1       0.980   9.373  22.834  0.00  0.00    +0.000 OA
ENDBRANCH  19  26
ENDBRANCH  16  23
ENDBRANCH  15  16
ENDBRANCH   1  15
TORSDOF 4
ENDMDL
MODEL 9
REMARK VINA RESULT:      -7.8      5.659      9.074
REMARK  Name = 
REMARK  5 active torsions:
REMARK  status: ('A' for Active; 'I' for Inactive)
REMARK    1  A    between atoms: C_1  and  O_2
REMARK    2  A    between atoms: O_2  and  C_3
REMARK    3  A    between atoms: C_7  and  S_8
REMARK    4  A    between atoms: S_8  and  O_11
REMARK    5  A    between atoms: O_11  and  C_12
REMARK                            x       y       z     vdW  Elec       q    Type
REMARK                         _______ _______ _______ _____ _____    ______ ____
ROOT
ATOM      1  C   UNL     1      -1.167  11.811  19.739  0.00  0.00    +0.000 A 
ATOM      2  C   UNL     1      -1.660  12.595  20.815  0.00  0.00    +0.000 A 
ATOM      3  C   UNL     1      -0.851  13.245  21.753  0.00  0.00    +0.000 A 
ATOM      4  C   UNL     1      -1.255  13.320  23.073  0.00  0.00    +0.000 A 
ATOM      5  C   UNL     1      -2.590  13.110  23.372  0.00  0.00    +0.000 A 
ATOM      6  C   UNL     1      -3.498  12.937  22.327  0.00  0.00    +0.000 A 
ATOM      7  C   UNL     1      -3.038  12.654  21.025  0.00  0.00    +0.000 A 
ATOM      8  C   UNL     1      -3.898  12.345  19.961  0.00  0.00    +0.000 A 
ATOM      9  C   UNL     1      -3.405  11.775  18.772  0.00  0.00    +0.000 A 
ATOM     10  C   UNL     1      -4.285  11.491  17.712  0.00  0.00    +0.000 A 
ATOM     11  C   UNL     1      -3.829  10.818  16.580  0.00  0.00    +0.000 A 
ATOM     12  C   UNL     1      -2.502  10.405  16.500  0.00  0.00    +0.000 A 
ATOM     13  C   UNL     1      -1.613  10.704  17.540  0.00  0.00    +0.000 A 
ATOM     14  C   UNL     1      -2.033  11.422  18.682  0.00  0.00    +0.000 A 
ENDROOT
BRANCH   1  15
ATOM     15  O   UNL     1       0.125  11.260  19.765  0.00  0.00    +0.000 OA
BRANCH  15  16
ATOM     16  S   UNL     1       0.442   9.941  20.721  0.00  0.00    +0.000 S 
ATOM     17  O   UNL     1      -0.776   9.199  20.977  0.00  0.00    +0.000 OA
ATOM     18  O   UNL     1       1.311  10.360  21.807  0.00  0.00    +0.000 OA
BRANCH  16  23
ATOM     19  C   UNL     1       2.493   6.658  19.604  0.00  0.00    +0.000 A 
ATOM     20  C   UNL     1       2.768   6.942  18.280  0.00  0.00    +0.000 A 
ATOM     21  C   UNL     1       2.388   8.151  17.692  0.00  0.00    +0.000 A 
ATOM     22  C   UNL     1       1.716   9.109  18.446  0.00  0.00    +0.000 A 
ATOM     23  C   UNL     1       1.459   8.836  19.787  0.00  0.00    +0.000 A 
ATOM     24  C   UNL     1       1.807   7.603  20.365  0.00  0.00    +0.000 A 
BRANCH  19  26
ATOM     25  C   UNL     1       3.555   4.564  19.145  0.00  0.00    +0.000 C 
ATOM     26  O   UNL     1       2.889   5.428  20.062  0.00  0.00    +0.000 OA
ENDBRANCH  19  26
ENDBRANCH  16  23
ENDBRANCH  15  16
ENDBRANCH   1  15
TORSDOF 4
ENDMDL
