MODEL 1
REMARK VINA RESULT:      -7.3      0.000      0.000
REMARK  Name = 
REMARK  6 active torsions:
REMARK  status: ('A' for Active; 'I' for Inactive)
REMARK    1  A    between atoms: C_1  and  C_2
REMARK    2  A    between atoms: N_4  and  C_5
REMARK    3  A    between atoms: C_13  and  C_14
REMARK    4  A    between atoms: N_20  and  C_21
REMARK    5  A    between atoms: C_21  and  C_22
REMARK    6  A    between atoms: C_22  and  O_24
REMARK                            x       y       z     vdW  Elec       q    Type
REMARK                         _______ _______ _______ _____ _____    ______ ____
ROOT
ATOM      1  C   UNL     1       2.391   9.138  18.193  0.00  0.00    +0.000 C 
ATOM      2  C   UNL     1       2.898   7.743  18.256  0.00  0.00    +0.000 A 
ATOM      3  N   UNL     1       3.857   7.382  17.404  0.00  0.00    +0.000 NA
ATOM      4  N   UNL     1       4.054   6.049  17.592  0.00  0.00    +0.000 N 
ATOM      5  C   UNL     1       3.332   5.586  18.703  0.00  0.00    +0.000 A 
ATOM      6  C   UNL     1       2.576   6.677  19.118  0.00  0.00    +0.000 A 
ATOM      7  C   UNL     1       1.749   6.560  20.273  0.00  0.00    +0.000 A 
ATOM      8  C   UNL     1       1.742   5.409  20.965  0.00  0.00    +0.000 A 
ATOM      9  C   UNL     1       2.584   4.256  20.563  0.00  0.00    +0.000 A 
ATOM     10  O   UNL     1       2.532   3.236  21.246  0.00  0.00    +0.000 OA
ATOM     11  N   UNL     1       3.370   4.354  19.401  0.00  0.00    +0.000 N 
ENDROOT
BRANCH   4  12
ATOM     12  C   UNL     1       4.902   5.389  16.669  0.00  0.00    +0.000 A 
ATOM     13  C   UNL     1       6.259   5.749  16.626  0.00  0.00    +0.000 A 
ATOM     14  C   UNL     1       7.134   5.084  15.764  0.00  0.00    +0.000 A 
ATOM     15  C   UNL     1       6.655   4.076  14.932  0.00  0.00    +0.000 A 
ATOM     16  C   UNL     1       5.296   3.762  14.927  0.00  0.00    +0.000 A 
ATOM     17  C   UNL     1       4.414   4.438  15.773  0.00  0.00    +0.000 A 
ENDBRANCH   4  12
BRANCH   7  18
ATOM     18  C   UNL     1       0.944   7.750  20.705  0.00  0.00    +0.000 C 
ATOM     19  F   UNL     1      -0.178   7.376  21.381  0.00  0.00    +0.000 F 
ATOM     20  F   UNL     1       1.645   8.534  21.567  0.00  0.00    +0.000 F 
ENDBRANCH   7  18
BRANCH  11  21
ATOM     21  C   UNL     1       4.340   3.262  19.222  0.00  0.00    +0.000 C 
BRANCH  21  22
ATOM     22  C   UNL     1       3.819   2.015  18.500  0.00  0.00    +0.000 C 
ATOM     23  O   UNL     1       2.875   2.039  17.722  0.00  0.00    +0.000 OA
BRANCH  22  24
ATOM     24  O   UNL     1       4.453   0.861  18.806  0.00  0.00    +0.000 OA
ATOM     25  H   UNL     1       4.745   0.373  18.012  0.00  0.00    +0.000 HD
ENDBRANCH  22  24
ENDBRANCH  21  22
ENDBRANCH  11  21
TORSDOF 5
ENDMDL
MODEL 2
REMARK VINA RESULT:      -6.7      2.888      5.507
REMARK  Name = 
REMARK  6 active torsions:
REMARK  status: ('A' for Active; 'I' for Inactive)
REMARK    1  A    between atoms: C_1  and  C_2
REMARK    2  A    between atoms: N_4  and  C_5
REMARK    3  A    between atoms: C_13  and  C_14
REMARK    4  A    between atoms: N_20  and  C_21
REMARK    5  A    between atoms: C_21  and  C_22
REMARK    6  A    between atoms: C_22  and  O_24
REMARK                            x       y       z     vdW  Elec       q    Type
REMARK                         _______ _______ _______ _____ _____    ______ ____
ROOT
ATOM      1  C   UNL     1       5.778   6.790  15.557  0.00  0.00    +0.000 C 
ATOM      2  C   UNL     1       4.742   6.388  16.544  0.00  0.00    +0.000 A 
ATOM      3  N   UNL     1       3.952   7.333  17.049  0.00  0.00    +0.000 NA
ATOM      4  N   UNL     1       3.184   6.726  17.995  0.00  0.00    +0.000 N 
ATOM      5  C   UNL     1       3.365   5.335  17.970  0.00  0.00    +0.000 A 
ATOM      6  C   UNL     1       4.381   5.122  17.046  0.00  0.00    +0.000 A 
ATOM      7  C   UNL     1       4.787   3.789  16.741  0.00  0.00    +0.000 A 
ATOM      8  C   UNL     1       4.155   2.758  17.324  0.00  0.00    +0.000 A 
ATOM      9  C   UNL     1       3.034   2.971  18.273  0.00  0.00    +0.000 A 
ATOM     10  O   UNL     1       2.498   1.981  18.765  0.00  0.00    +0.000 OA
ATOM     11  N   UNL     1       2.659   4.283  18.606  0.00  0.00    +0.000 N 
ENDROOT
BRANCH   4  12
ATOM     12  C   UNL     1       2.385   7.565  18.809  0.00  0.00    +0.000 A 
ATOM     13  C   UNL     1       1.788   8.697  18.227  0.00  0.00    +0.000 A 
ATOM     14  C   UNL     1       0.954   9.518  18.988  0.00  0.00    +0.000 A 
ATOM     15  C   UNL     1       0.729   9.225  20.331  0.00  0.00    +0.000 A 
ATOM     16  C   UNL     1       1.372   8.140  20.925  0.00  0.00    +0.000 A 
ATOM     17  C   UNL     1       2.223   7.327  20.173  0.00  0.00    +0.000 A 
ENDBRANCH   4  12
BRANCH   7  18
ATOM     18  C   UNL     1       5.884   3.583  15.738  0.00  0.00    +0.000 C 
ATOM     19  F   UNL     1       5.553   4.103  14.522  0.00  0.00    +0.000 F 
ATOM     20  F   UNL     1       7.022   4.226  16.113  0.00  0.00    +0.000 F 
ENDBRANCH   7  18
BRANCH  11  21
ATOM     21  C   UNL     1       1.398   4.390  19.357  0.00  0.00    +0.000 C 
BRANCH  21  22
ATOM     22  C   UNL     1       1.420   3.835  20.785  0.00  0.00    +0.000 C 
ATOM     23  O   UNL     1       2.169   4.260  21.656  0.00  0.00    +0.000 OA
BRANCH  22  24
ATOM     24  O   UNL     1       0.573   2.808  21.021  0.00  0.00    +0.000 OA
ATOM     25  H   UNL     1       0.364   2.705  21.970  0.00  0.00    +0.000 HD
ENDBRANCH  22  24
ENDBRANCH  21  22
ENDBRANCH  11  21
TORSDOF 5
ENDMDL
MODEL 3
REMARK VINA RESULT:      -6.6      3.024      5.650
REMARK  Name = 
REMARK  6 active torsions:
REMARK  status: ('A' for Active; 'I' for Inactive)
REMARK    1  A    between atoms: C_1  and  C_2
REMARK    2  A    between atoms: N_4  and  C_5
REMARK    3  A    between atoms: C_13  and  C_14
REMARK    4  A    between atoms: N_20  and  C_21
REMARK    5  A    between atoms: C_21  and  C_22
REMARK    6  A    between atoms: C_22  and  O_24
REMARK                            x       y       z     vdW  Elec       q    Type
REMARK                         _______ _______ _______ _____ _____    ______ ____
ROOT
ATOM      1  C   UNL     1       6.469   7.378  16.659  0.00  0.00    +0.000 C 
ATOM      2  C   UNL     1       5.200   6.839  17.213  0.00  0.00    +0.000 A 
ATOM      3  N   UNL     1       4.340   7.694  17.765  0.00  0.00    +0.000 NA
ATOM      4  N   UNL     1       3.334   6.940  18.287  0.00  0.00    +0.000 N 
ATOM      5  C   UNL     1       3.466   5.595  17.909  0.00  0.00    +0.000 A 
ATOM      6  C   UNL     1       4.678   5.531  17.231  0.00  0.00    +0.000 A 
ATOM      7  C   UNL     1       5.101   4.294  16.663  0.00  0.00    +0.000 A 
ATOM      8  C   UNL     1       4.304   3.218  16.759  0.00  0.00    +0.000 A 
ATOM      9  C   UNL     1       2.985   3.286  17.435  0.00  0.00    +0.000 A 
ATOM     10  O   UNL     1       2.306   2.263  17.481  0.00  0.00    +0.000 OA
ATOM     11  N   UNL     1       2.583   4.494  18.031  0.00  0.00    +0.000 N 
ENDROOT
BRANCH   4  12
ATOM     12  C   UNL     1       2.382   7.611  19.093  0.00  0.00    +0.000 A 
ATOM     13  C   UNL     1       1.737   8.745  18.571  0.00  0.00    +0.000 A 
ATOM     14  C   UNL     1       0.757   9.401  19.319  0.00  0.00    +0.000 A 
ATOM     15  C   UNL     1       0.433   8.940  20.592  0.00  0.00    +0.000 A 
ATOM     16  C   UNL     1       1.117   7.854  21.137  0.00  0.00    +0.000 A 
ATOM     17  C   UNL     1       2.112   7.208  20.400  0.00  0.00    +0.000 A 
ENDBRANCH   4  12
BRANCH   7  18
ATOM     18  C   UNL     1       6.411   4.248  15.934  0.00  0.00    +0.000 C 
ATOM     19  F   UNL     1       7.453   4.045  16.789  0.00  0.00    +0.000 F 
ATOM     20  F   UNL     1       6.453   3.210  15.057  0.00  0.00    +0.000 F 
ENDBRANCH   7  18
BRANCH  11  21
ATOM     21  C   UNL     1       1.175   4.529  18.459  0.00  0.00    +0.000 C 
BRANCH  21  22
ATOM     22  C   UNL     1       0.840   3.731  19.723  0.00  0.00    +0.000 C 
ATOM     23  O   UNL     1       1.238   4.046  20.837  0.00  0.00    +0.000 OA
BRANCH  22  24
ATOM     24  O   UNL     1       0.095   2.620  19.528  0.00  0.00    +0.000 OA
ATOM     25  H   UNL     1      -0.449   2.671  18.718  0.00  0.00    +0.000 HD
ENDBRANCH  22  24
ENDBRANCH  21  22
ENDBRANCH  11  21
TORSDOF 5
ENDMDL
MODEL 4
REMARK VINA RESULT:      -6.5      2.951      5.509
REMARK  Name = 
REMARK  6 active torsions:
REMARK  status: ('A' for Active; 'I' for Inactive)
REMARK    1  A    between atoms: C_1  and  C_2
REMARK    2  A    between atoms: N_4  and  C_5
REMARK    3  A    between atoms: C_13  and  C_14
REMARK    4  A    between atoms: N_20  and  C_21
REMARK    5  A    between atoms: C_21  and  C_22
REMARK    6  A    between atoms: C_22  and  O_24
REMARK                            x       y       z     vdW  Elec       q    Type
REMARK                         _______ _______ _______ _____ _____    ______ ____
ROOT
ATOM      1  C   UNL     1       5.099   7.148  15.742  0.00  0.00    +0.000 C 
ATOM      2  C   UNL     1       4.361   6.763  16.973  0.00  0.00    +0.000 A 
ATOM      3  N   UNL     1       3.399   7.574  17.410  0.00  0.00    +0.000 NA
ATOM      4  N   UNL     1       2.969   7.055  18.593  0.00  0.00    +0.000 N 
ATOM      5  C   UNL     1       3.545   5.797  18.828  0.00  0.00    +0.000 A 
ATOM      6  C   UNL     1       4.453   5.620  17.790  0.00  0.00    +0.000 A 
ATOM      7  C   UNL     1       5.190   4.402  17.701  0.00  0.00    +0.000 A 
ATOM      8  C   UNL     1       4.966   3.430  18.600  0.00  0.00    +0.000 A 
ATOM      9  C   UNL     1       3.963   3.587  19.681  0.00  0.00    +0.000 A 
ATOM     10  O   UNL     1       3.807   2.654  20.465  0.00  0.00    +0.000 OA
ATOM     11  N   UNL     1       3.265   4.801  19.796  0.00  0.00    +0.000 N 
ENDROOT
BRANCH   4  12
ATOM     12  C   UNL     1       2.069   7.844  19.351  0.00  0.00    +0.000 A 
ATOM     13  C   UNL     1       1.473   8.959  18.738  0.00  0.00    +0.000 A 
ATOM     14  C   UNL     1       0.543   9.729  19.440  0.00  0.00    +0.000 A 
ATOM     15  C   UNL     1       0.222   9.402  20.755  0.00  0.00    +0.000 A 
ATOM     16  C   UNL     1       0.861   8.335  21.384  0.00  0.00    +0.000 A 
ATOM     17  C   UNL     1       1.807   7.574  20.693  0.00  0.00    +0.000 A 
ENDBRANCH   4  12
BRANCH   7  18
ATOM     18  C   UNL     1       6.162   4.231  16.572  0.00  0.00    +0.000 C 
ATOM     19  F   UNL     1       7.440   4.099  17.028  0.00  0.00    +0.000 F 
ATOM     20  F   UNL     1       5.907   3.095  15.868  0.00  0.00    +0.000 F 
ENDBRANCH   7  18
BRANCH  11  21
ATOM     21  C   UNL     1       2.134   4.773  20.737  0.00  0.00    +0.000 C 
BRANCH  21  22
ATOM     22  C   UNL     1       1.101   3.664  20.510  0.00  0.00    +0.000 C 
ATOM     23  O   UNL     1       0.430   3.575  19.490  0.00  0.00    +0.000 OA
BRANCH  22  24
ATOM     24  O   UNL     1       0.948   2.795  21.534  0.00  0.00    +0.000 OA
ATOM     25  H   UNL     1       1.563   2.973  22.271  0.00  0.00    +0.000 HD
ENDBRANCH  22  24
ENDBRANCH  21  22
ENDBRANCH  11  21
TORSDOF 5
ENDMDL
MODEL 5
REMARK VINA RESULT:      -6.4      1.363      1.567
REMARK  Name = 
REMARK  6 active torsions:
REMARK  status: ('A' for Active; 'I' for Inactive)
REMARK    1  A    between atoms: C_1  and  C_2
REMARK    2  A    between atoms: N_4  and  C_5
REMARK    3  A    between atoms: C_13  and  C_14
REMARK    4  A    between atoms: N_20  and  C_21
REMARK    5  A    between atoms: C_21  and  C_22
REMARK    6  A    between atoms: C_22  and  O_24
REMARK                            x       y       z     vdW  Elec       q    Type
REMARK                         _______ _______ _______ _____ _____    ______ ____
ROOT
ATOM      1  C   UNL     1       2.034   9.467  17.964  0.00  0.00    +0.000 C 
ATOM      2  C   UNL     1       2.667   8.128  18.087  0.00  0.00    +0.000 A 
ATOM      3  N   UNL     1       3.631   7.806  17.227  0.00  0.00    +0.000 NA
ATOM      4  N   UNL     1       3.954   6.508  17.482  0.00  0.00    +0.000 N 
ATOM      5  C   UNL     1       3.308   6.049  18.640  0.00  0.00    +0.000 A 
ATOM      6  C   UNL     1       2.467   7.090  19.018  0.00  0.00    +0.000 A 
ATOM      7  C   UNL     1       1.686   6.967  20.204  0.00  0.00    +0.000 A 
ATOM      8  C   UNL     1       1.803   5.863  20.959  0.00  0.00    +0.000 A 
ATOM      9  C   UNL     1       2.735   4.768  20.594  0.00  0.00    +0.000 A 
ATOM     10  O   UNL     1       2.794   3.789  21.334  0.00  0.00    +0.000 OA
ATOM     11  N   UNL     1       3.477   4.868  19.404  0.00  0.00    +0.000 N 
ENDROOT
BRANCH   4  12
ATOM     12  C   UNL     1       4.833   5.874  16.570  0.00  0.00    +0.000 A 
ATOM     13  C   UNL     1       6.086   6.461  16.325  0.00  0.00    +0.000 A 
ATOM     14  C   UNL     1       6.998   5.837  15.471  0.00  0.00    +0.000 A 
ATOM     15  C   UNL     1       6.655   4.640  14.847  0.00  0.00    +0.000 A 
ATOM     16  C   UNL     1       5.388   4.091  15.039  0.00  0.00    +0.000 A 
ATOM     17  C   UNL     1       4.466   4.722  15.877  0.00  0.00    +0.000 A 
ENDBRANCH   4  12
BRANCH   7  18
ATOM     18  C   UNL     1       0.788   8.103  20.594  0.00  0.00    +0.000 C 
ATOM     19  F   UNL     1      -0.256   7.676  21.359  0.00  0.00    +0.000 F 
ATOM     20  F   UNL     1       1.448   9.016  21.356  0.00  0.00    +0.000 F 
ENDBRANCH   7  18
BRANCH  11  21
ATOM     21  C   UNL     1       4.537   3.859  19.255  0.00  0.00    +0.000 C 
BRANCH  21  22
ATOM     22  C   UNL     1       5.973   4.391  19.258  0.00  0.00    +0.000 C 
ATOM     23  O   UNL     1       6.348   5.302  19.984  0.00  0.00    +0.000 OA
BRANCH  22  24
ATOM     24  O   UNL     1       6.810   3.807  18.369  0.00  0.00    +0.000 OA
ATOM     25  H   UNL     1       7.112   4.426  17.677  0.00  0.00    +0.000 HD
ENDBRANCH  22  24
ENDBRANCH  21  22
ENDBRANCH  11  21
TORSDOF 5
ENDMDL
MODEL 6
REMARK VINA RESULT:      -6.3      9.285     11.898
REMARK  Name = 
REMARK  6 active torsions:
REMARK  status: ('A' for Active; 'I' for Inactive)
REMARK    1  A    between atoms: C_1  and  C_2
REMARK    2  A    between atoms: N_4  and  C_5
REMARK    3  A    between atoms: C_13  and  C_14
REMARK    4  A    between atoms: N_20  and  C_21
REMARK    5  A    between atoms: C_21  and  C_22
REMARK    6  A    between atoms: C_22  and  O_24
REMARK                            x       y       z     vdW  Elec       q    Type
REMARK                         _______ _______ _______ _____ _____    ______ ____
ROOT
ATOM      1  C   UNL     1      -0.417  12.035  18.411  0.00  0.00    +0.000 C 
ATOM      2  C   UNL     1      -1.761  12.201  19.021  0.00  0.00    +0.000 A 
ATOM      3  N   UNL     1      -1.850  12.845  20.184  0.00  0.00    +0.000 NA
ATOM      4  N   UNL     1      -3.152  12.758  20.571  0.00  0.00    +0.000 N 
ATOM      5  C   UNL     1      -3.942  12.202  19.553  0.00  0.00    +0.000 A 
ATOM      6  C   UNL     1      -3.040  11.829  18.563  0.00  0.00    +0.000 A 
ATOM      7  C   UNL     1      -3.525  11.263  17.347  0.00  0.00    +0.000 A 
ATOM      8  C   UNL     1      -4.848  11.133  17.163  0.00  0.00    +0.000 A 
ATOM      9  C   UNL     1      -5.823  11.575  18.190  0.00  0.00    +0.000 A 
ATOM     10  O   UNL     1      -7.019  11.431  17.951  0.00  0.00    +0.000 OA
ATOM     11  N   UNL     1      -5.347  12.096  19.405  0.00  0.00    +0.000 N 
ENDROOT
BRANCH   4  12
ATOM     12  C   UNL     1      -3.466  13.211  21.876  0.00  0.00    +0.000 A 
ATOM     13  C   UNL     1      -3.808  14.562  22.055  0.00  0.00    +0.000 A 
ATOM     14  C   UNL     1      -4.171  15.031  23.319  0.00  0.00    +0.000 A 
ATOM     15  C   UNL     1      -4.176  14.161  24.407  0.00  0.00    +0.000 A 
ATOM     16  C   UNL     1      -3.774  12.836  24.242  0.00  0.00    +0.000 A 
ATOM     17  C   UNL     1      -3.391  12.368  22.984  0.00  0.00    +0.000 A 
ENDBRANCH   4  12
BRANCH   7  18
ATOM     18  C   UNL     1      -2.533  10.871  16.292  0.00  0.00    +0.000 C 
ATOM     19  F   UNL     1      -2.302   9.528  16.298  0.00  0.00    +0.000 F 
ATOM     20  F   UNL     1      -3.000  11.156  15.046  0.00  0.00    +0.000 F 
ENDBRANCH   7  18
BRANCH  11  21
ATOM     21  C   UNL     1      -6.377  12.722  20.250  0.00  0.00    +0.000 C 
BRANCH  21  22
ATOM     22  C   UNL     1      -6.897  11.870  21.413  0.00  0.00    +0.000 C 
ATOM     23  O   UNL     1      -6.879  12.246  22.578  0.00  0.00    +0.000 OA
BRANCH  22  24
ATOM     24  O   UNL     1      -7.353  10.643  21.074  0.00  0.00    +0.000 OA
ATOM     25  H   UNL     1      -8.328  10.592  21.078  0.00  0.00    +0.000 HD
ENDBRANCH  22  24
ENDBRANCH  21  22
ENDBRANCH  11  21
TORSDOF 5
ENDMDL
MODEL 7
REMARK VINA RESULT:      -6.2      7.627     10.567
REMARK  Name = 
REMARK  6 active torsions:
REMARK  status: ('A' for Active; 'I' for Inactive)
REMARK    1  A    between atoms: C_1  and  C_2
REMARK    2  A    between atoms: N_4  and  C_5
REMARK    3  A    between atoms: C_13  and  C_14
REMARK    4  A    between atoms: N_20  and  C_21
REMARK    5  A    between atoms: C_21  and  C_22
REMARK    6  A    between atoms: C_22  and  O_24
REMARK                            x       y       z     vdW  Elec       q    Type
REMARK                         _______ _______ _______ _____ _____    ______ ____
ROOT
ATOM      1  C   UNL     1      -5.226  11.825  17.872  0.00  0.00    +0.000 C 
ATOM      2  C   UNL     1      -4.122  11.986  18.853  0.00  0.00    +0.000 A 
ATOM      3  N   UNL     1      -4.400  12.549  20.028  0.00  0.00    +0.000 NA
ATOM      4  N   UNL     1      -3.212  12.679  20.681  0.00  0.00    +0.000 N 
ATOM      5  C   UNL     1      -2.183  12.027  19.984  0.00  0.00    +0.000 A 
ATOM      6  C   UNL     1      -2.770  11.596  18.799  0.00  0.00    +0.000 A 
ATOM      7  C   UNL     1      -1.998  10.844  17.866  0.00  0.00    +0.000 A 
ATOM      8  C   UNL     1      -0.726  10.531  18.162  0.00  0.00    +0.000 A 
ATOM      9  C   UNL     1      -0.105  10.940  19.446  0.00  0.00    +0.000 A 
ATOM     10  O   UNL     1       1.061  10.614  19.653  0.00  0.00    +0.000 OA
ATOM     11  N   UNL     1      -0.850  11.716  20.350  0.00  0.00    +0.000 N 
ENDROOT
BRANCH   4  12
ATOM     12  C   UNL     1      -3.220  13.424  21.885  0.00  0.00    +0.000 A 
ATOM     13  C   UNL     1      -3.801  12.850  23.028  0.00  0.00    +0.000 A 
ATOM     14  C   UNL     1      -3.781  13.536  24.244  0.00  0.00    +0.000 A 
ATOM     15  C   UNL     1      -3.200  14.799  24.318  0.00  0.00    +0.000 A 
ATOM     16  C   UNL     1      -2.680  15.397  23.171  0.00  0.00    +0.000 A 
ATOM     17  C   UNL     1      -2.716  14.723  21.948  0.00  0.00    +0.000 A 
ENDBRANCH   4  12
BRANCH   7  18
ATOM     18  C   UNL     1      -2.652  10.387  16.595  0.00  0.00    +0.000 C 
ATOM     19  F   UNL     1      -2.475  11.290  15.589  0.00  0.00    +0.000 F 
ATOM     20  F   UNL     1      -2.102   9.227  16.146  0.00  0.00    +0.000 F 
ENDBRANCH   7  18
BRANCH  11  21
ATOM     21  C   UNL     1      -0.239  11.865  21.681  0.00  0.00    +0.000 C 
BRANCH  21  22
ATOM     22  C   UNL     1      -0.364  10.656  22.614  0.00  0.00    +0.000 C 
ATOM     23  O   UNL     1      -1.356  10.438  23.297  0.00  0.00    +0.000 OA
BRANCH  22  24
ATOM     24  O   UNL     1       0.720   9.849  22.666  0.00  0.00    +0.000 OA
ATOM     25  H   UNL     1       1.521  10.317  22.968  0.00  0.00    +0.000 HD
ENDBRANCH  22  24
ENDBRANCH  21  22
ENDBRANCH  11  21
TORSDOF 5
ENDMDL
MODEL 8
REMARK VINA RESULT:      -6.1      7.515     10.561
REMARK  Name = 
REMARK  6 active torsions:
REMARK  status: ('A' for Active; 'I' for Inactive)
REMARK    1  A    between atoms: C_1  and  C_2
REMARK    2  A    between atoms: N_4  and  C_5
REMARK    3  A    between atoms: C_13  and  C_14
REMARK    4  A    between atoms: N_20  and  C_21
REMARK    5  A    between atoms: C_21  and  C_22
REMARK    6  A    between atoms: C_22  and  O_24
REMARK                            x       y       z     vdW  Elec       q    Type
REMARK                         _______ _______ _______ _____ _____    ______ ____
ROOT
ATOM      1  C   UNL     1      -5.578  11.948  17.416  0.00  0.00    +0.000 C 
ATOM      2  C   UNL     1      -4.411  11.934  18.334  0.00  0.00    +0.000 A 
ATOM      3  N   UNL     1      -4.550  12.486  19.539  0.00  0.00    +0.000 NA
ATOM      4  N   UNL     1      -3.322  12.442  20.124  0.00  0.00    +0.000 N 
ATOM      5  C   UNL     1      -2.423  11.691  19.350  0.00  0.00    +0.000 A 
ATOM      6  C   UNL     1      -3.124  11.380  18.190  0.00  0.00    +0.000 A 
ATOM      7  C   UNL     1      -2.506  10.571  17.192  0.00  0.00    +0.000 A 
ATOM      8  C   UNL     1      -1.270  10.091  17.404  0.00  0.00    +0.000 A 
ATOM      9  C   UNL     1      -0.533  10.373  18.660  0.00  0.00    +0.000 A 
ATOM     10  O   UNL     1       0.592   9.896  18.789  0.00  0.00    +0.000 OA
ATOM     11  N   UNL     1      -1.123  11.203  19.629  0.00  0.00    +0.000 N 
ENDROOT
BRANCH   4  12
ATOM     12  C   UNL     1      -3.168  13.139  21.348  0.00  0.00    +0.000 A 
ATOM     13  C   UNL     1      -2.771  14.486  21.309  0.00  0.00    +0.000 A 
ATOM     14  C   UNL     1      -2.658  15.218  22.493  0.00  0.00    +0.000 A 
ATOM     15  C   UNL     1      -2.923  14.605  23.715  0.00  0.00    +0.000 A 
ATOM     16  C   UNL     1      -3.254  13.251  23.759  0.00  0.00    +0.000 A 
ATOM     17  C   UNL     1      -3.349  12.510  22.579  0.00  0.00    +0.000 A 
ENDBRANCH   4  12
BRANCH   7  18
ATOM     18  C   UNL     1      -3.281  10.245  15.949  0.00  0.00    +0.000 C 
ATOM     19  F   UNL     1      -3.254  11.277  15.058  0.00  0.00    +0.000 F 
ATOM     20  F   UNL     1      -2.741   9.183  15.294  0.00  0.00    +0.000 F 
ENDBRANCH   7  18
BRANCH  11  21
ATOM     21  C   UNL     1      -0.425  11.226  20.924  0.00  0.00    +0.000 C 
BRANCH  21  22
ATOM     22  C   UNL     1       0.522  12.408  21.154  0.00  0.00    +0.000 C 
ATOM     23  O   UNL     1       0.359  13.234  22.043  0.00  0.00    +0.000 OA
BRANCH  22  24
ATOM     24  O   UNL     1       1.548  12.507  20.279  0.00  0.00    +0.000 OA
ATOM     25  H   UNL     1       2.420  12.442  20.715  0.00  0.00    +0.000 HD
ENDBRANCH  22  24
ENDBRANCH  21  22
ENDBRANCH  11  21
TORSDOF 5
ENDMDL
MODEL 9
REMARK VINA RESULT:      -6.1      7.468     10.346
REMARK  Name = 
REMARK  6 active torsions:
REMARK  status: ('A' for Active; 'I' for Inactive)
REMARK    1  A    between atoms: C_1  and  C_2
REMARK    2  A    between atoms: N_4  and  C_5
REMARK    3  A    between atoms: C_13  and  C_14
REMARK    4  A    between atoms: N_20  and  C_21
REMARK    5  A    between atoms: C_21  and  C_22
REMARK    6  A    between atoms: C_22  and  O_24
REMARK                            x       y       z     vdW  Elec       q    Type
REMARK                         _______ _______ _______ _____ _____    ______ ____
ROOT
ATOM      1  C   UNL     1      -5.439  11.896  17.743  0.00  0.00    +0.000 C 
ATOM      2  C   UNL     1      -4.253  11.946  18.636  0.00  0.00    +0.000 A 
ATOM      3  N   UNL     1      -4.393  12.500  19.840  0.00  0.00    +0.000 NA
ATOM      4  N   UNL     1      -3.152  12.520  20.398  0.00  0.00    +0.000 N 
ATOM      5  C   UNL     1      -2.235  11.810  19.609  0.00  0.00    +0.000 A 
ATOM      6  C   UNL     1      -2.944  11.455  18.467  0.00  0.00    +0.000 A 
ATOM      7  C   UNL     1      -2.308  10.670  17.461  0.00  0.00    +0.000 A 
ATOM      8  C   UNL     1      -1.046  10.253  17.649  0.00  0.00    +0.000 A 
ATOM      9  C   UNL     1      -0.296  10.580  18.887  0.00  0.00    +0.000 A 
ATOM     10  O   UNL     1       0.853  10.160  18.994  0.00  0.00    +0.000 OA
ATOM     11  N   UNL     1      -0.906  11.388  19.863  0.00  0.00    +0.000 N 
ENDROOT
BRANCH   4  12
ATOM     12  C   UNL     1      -3.007  13.234  21.614  0.00  0.00    +0.000 A 
ATOM     13  C   UNL     1      -2.310  14.454  21.598  0.00  0.00    +0.000 A 
ATOM     14  C   UNL     1      -2.192  15.208  22.767  0.00  0.00    +0.000 A 
ATOM     15  C   UNL     1      -2.748  14.739  23.954  0.00  0.00    +0.000 A 
ATOM     16  C   UNL     1      -3.383  13.498  23.985  0.00  0.00    +0.000 A 
ATOM     17  C   UNL     1      -3.487  12.731  22.822  0.00  0.00    +0.000 A 
ENDBRANCH   4  12
BRANCH   7  18
ATOM     18  C   UNL     1      -3.093  10.297  16.238  0.00  0.00    +0.000 C 
ATOM     19  F   UNL     1      -3.125  11.317  15.334  0.00  0.00    +0.000 F 
ATOM     20  F   UNL     1      -2.523   9.249  15.585  0.00  0.00    +0.000 F 
ENDBRANCH   7  18
BRANCH  11  21
ATOM     21  C   UNL     1      -0.183  11.455  21.143  0.00  0.00    +0.000 C 
BRANCH  21  22
ATOM     22  C   UNL     1      -0.520  10.362  22.161  0.00  0.00    +0.000 C 
ATOM     23  O   UNL     1      -0.822  10.600  23.323  0.00  0.00    +0.000 OA
BRANCH  22  24
ATOM     24  O   UNL     1      -0.430   9.093  21.701  0.00  0.00    +0.000 OA
ATOM     25  H   UNL     1      -0.283   9.054  20.736  0.00  0.00    +0.000 HD
ENDBRANCH  22  24
ENDBRANCH  21  22
ENDBRANCH  11  21
TORSDOF 5
ENDMDL
