MODEL 1
REMARK VINA RESULT:      -7.4      0.000      0.000
REMARK  Name = 
REMARK  8 active torsions:
REMARK  status: ('A' for Active; 'I' for Inactive)
REMARK    1  A    between atoms: C_1  and  O_2
REMARK    2  A    between atoms: O_2  and  C_3
REMARK    3  A    between atoms: C_8  and  N_9
REMARK    4  A    between atoms: C_11  and  C_12
REMARK    5  A    between atoms: C_12  and  C_13
REMARK    6  A    between atoms: C_13  and  C_14
REMARK    7  A    between atoms: C_14  and  O_15
REMARK    8  A    between atoms: C_17  and  C_18
REMARK                            x       y       z     vdW  Elec       q    Type
REMARK                         _______ _______ _______ _____ _____    ______ ____
ROOT
ATOM      1  N   UNL     1       3.393   4.966  17.562  0.00  0.00    +0.000 N 
ATOM      2  N   UNL     1       4.298   4.472  16.665  0.00  0.00    +0.000 NA
ATOM      3  C   UNL     1       5.100   5.493  16.362  0.00  0.00    +0.000 A 
ATOM      4  C   UNL     1       4.663   6.685  16.958  0.00  0.00    +0.000 A 
ATOM      5  C   UNL     1       3.537   6.361  17.697  0.00  0.00    +0.000 A 
ENDROOT
BRANCH   5   6
ATOM      6  C   UNL     1       2.670   7.289  18.445  0.00  0.00    +0.000 A 
ATOM      7  C   UNL     1       2.348   7.088  19.797  0.00  0.00    +0.000 A 
ATOM      8  C   UNL     1       1.592   8.031  20.502  0.00  0.00    +0.000 A 
ATOM      9  C   UNL     1       1.091   9.151  19.847  0.00  0.00    +0.000 A 
ATOM     10 CL   UNL     1       0.161  10.309  20.713  0.00  0.00    +0.000 Cl
ATOM     11  C   UNL     1       1.342   9.337  18.491  0.00  0.00    +0.000 A 
ATOM     12  C   UNL     1       2.134   8.416  17.798  0.00  0.00    +0.000 A 
ENDBRANCH   5   6
BRANCH   1  18
ATOM     13  C   UNL     1       3.037   3.270  19.359  0.00  0.00    +0.000 A 
ATOM     14  C   UNL     1       2.152   2.390  20.005  0.00  0.00    +0.000 A 
ATOM     15  C   UNL     1       0.825   2.263  19.593  0.00  0.00    +0.000 A 
ATOM     16  C   UNL     1       0.346   3.053  18.559  0.00  0.00    +0.000 A 
ATOM     17  C   UNL     1       1.192   3.971  17.942  0.00  0.00    +0.000 A 
ATOM     18  C   UNL     1       2.548   4.067  18.302  0.00  0.00    +0.000 A 
BRANCH  13  20
ATOM     19  C   UNL     1       4.925   2.234  20.385  0.00  0.00    +0.000 C 
ATOM     20  O   UNL     1       4.361   3.352  19.706  0.00  0.00    +0.000 OA
ENDBRANCH  13  20
ENDBRANCH   1  18
BRANCH   3  21
ATOM     21  C   UNL     1       6.298   5.290  15.498  0.00  0.00    +0.000 C 
BRANCH  21  22
ATOM     22  C   UNL     1       7.412   4.511  16.205  0.00  0.00    +0.000 C 
BRANCH  22  23
ATOM     23  C   UNL     1       7.616   4.927  17.659  0.00  0.00    +0.000 C 
BRANCH  23  24
ATOM     24  O   UNL     1       6.872   4.057  18.507  0.00  0.00    +0.000 OA
ATOM     25  H   UNL     1       5.971   3.998  18.144  0.00  0.00    +0.000 HD
ENDBRANCH  23  24
ENDBRANCH  22  23
ENDBRANCH  21  22
ENDBRANCH   3  21
TORSDOF 7
ENDMDL
MODEL 2
REMARK VINA RESULT:      -7.3      1.386      1.615
REMARK  Name = 
REMARK  8 active torsions:
REMARK  status: ('A' for Active; 'I' for Inactive)
REMARK    1  A    between atoms: C_1  and  O_2
REMARK    2  A    between atoms: O_2  and  C_3
REMARK    3  A    between atoms: C_8  and  N_9
REMARK    4  A    between atoms: C_11  and  C_12
REMARK    5  A    between atoms: C_12  and  C_13
REMARK    6  A    between atoms: C_13  and  C_14
REMARK    7  A    between atoms: C_14  and  O_15
REMARK    8  A    between atoms: C_17  and  C_18
REMARK                            x       y       z     vdW  Elec       q    Type
REMARK                         _______ _______ _______ _____ _____    ______ ____
ROOT
ATOM      1  N   UNL     1       3.522   4.915  17.518  0.00  0.00    +0.000 N 
ATOM      2  N   UNL     1       4.446   4.403  16.650  0.00  0.00    +0.000 NA
ATOM      3  C   UNL     1       5.265   5.414  16.359  0.00  0.00    +0.000 A 
ATOM      4  C   UNL     1       4.822   6.617  16.931  0.00  0.00    +0.000 A 
ATOM      5  C   UNL     1       3.674   6.310  17.642  0.00  0.00    +0.000 A 
ENDROOT
BRANCH   5   6
ATOM      6  C   UNL     1       2.796   7.253  18.358  0.00  0.00    +0.000 A 
ATOM      7  C   UNL     1       2.403   7.047  19.690  0.00  0.00    +0.000 A 
ATOM      8  C   UNL     1       1.638   8.002  20.368  0.00  0.00    +0.000 A 
ATOM      9  C   UNL     1       1.199   9.142  19.702  0.00  0.00    +0.000 A 
ATOM     10 CL   UNL     1       0.259  10.315  20.534  0.00  0.00    +0.000 Cl
ATOM     11  C   UNL     1       1.522   9.335  18.362  0.00  0.00    +0.000 A 
ATOM     12  C   UNL     1       2.322   8.400  17.699  0.00  0.00    +0.000 A 
ENDBRANCH   5   6
BRANCH   1  18
ATOM     13  C   UNL     1       3.122   3.170  19.259  0.00  0.00    +0.000 A 
ATOM     14  C   UNL     1       2.209   2.311  19.894  0.00  0.00    +0.000 A 
ATOM     15  C   UNL     1       0.868   2.265  19.510  0.00  0.00    +0.000 A 
ATOM     16  C   UNL     1       0.406   3.117  18.519  0.00  0.00    +0.000 A 
ATOM     17  C   UNL     1       1.283   4.016  17.915  0.00  0.00    +0.000 A 
ATOM     18  C   UNL     1       2.650   4.031  18.245  0.00  0.00    +0.000 A 
BRANCH  13  20
ATOM     19  C   UNL     1       4.931   2.112  20.399  0.00  0.00    +0.000 C 
ATOM     20  O   UNL     1       4.456   3.173  19.576  0.00  0.00    +0.000 OA
ENDBRANCH  13  20
ENDBRANCH   1  18
BRANCH   3  21
ATOM     21  C   UNL     1       6.484   5.192  15.529  0.00  0.00    +0.000 C 
BRANCH  21  22
ATOM     22  C   UNL     1       6.451   3.857  14.778  0.00  0.00    +0.000 C 
BRANCH  22  23
ATOM     23  C   UNL     1       6.089   3.998  13.302  0.00  0.00    +0.000 C 
BRANCH  23  24
ATOM     24  O   UNL     1       6.321   2.759  12.640  0.00  0.00    +0.000 OA
ATOM     25  H   UNL     1       5.657   2.679  11.932  0.00  0.00    +0.000 HD
ENDBRANCH  23  24
ENDBRANCH  22  23
ENDBRANCH  21  22
ENDBRANCH   3  21
TORSDOF 7
ENDMDL
MODEL 3
REMARK VINA RESULT:      -7.3      1.441      1.947
REMARK  Name = 
REMARK  8 active torsions:
REMARK  status: ('A' for Active; 'I' for Inactive)
REMARK    1  A    between atoms: C_1  and  O_2
REMARK    2  A    between atoms: O_2  and  C_3
REMARK    3  A    between atoms: C_8  and  N_9
REMARK    4  A    between atoms: C_11  and  C_12
REMARK    5  A    between atoms: C_12  and  C_13
REMARK    6  A    between atoms: C_13  and  C_14
REMARK    7  A    between atoms: C_14  and  O_15
REMARK    8  A    between atoms: C_17  and  C_18
REMARK                            x       y       z     vdW  Elec       q    Type
REMARK                         _______ _______ _______ _____ _____    ______ ____
ROOT
ATOM      1  N   UNL     1       3.761   4.567  17.634  0.00  0.00    +0.000 N 
ATOM      2  N   UNL     1       4.699   3.921  16.877  0.00  0.00    +0.000 NA
ATOM      3  C   UNL     1       5.588   4.853  16.534  0.00  0.00    +0.000 A 
ATOM      4  C   UNL     1       5.186   6.130  16.956  0.00  0.00    +0.000 A 
ATOM      5  C   UNL     1       3.986   5.958  17.626  0.00  0.00    +0.000 A 
ENDROOT
BRANCH   5   6
ATOM      6  C   UNL     1       3.127   7.014  18.191  0.00  0.00    +0.000 A 
ATOM      7  C   UNL     1       2.755   8.151  17.457  0.00  0.00    +0.000 A 
ATOM      8  C   UNL     1       1.871   9.094  17.991  0.00  0.00    +0.000 A 
ATOM      9  C   UNL     1       1.402   8.946  19.293  0.00  0.00    +0.000 A 
ATOM     10 CL   UNL     1       0.316  10.105  19.951  0.00  0.00    +0.000 Cl
ATOM     11  C   UNL     1       1.809   7.861  20.063  0.00  0.00    +0.000 A 
ATOM     12  C   UNL     1       2.659   6.898  19.512  0.00  0.00    +0.000 A 
ENDBRANCH   5   6
BRANCH   1  18
ATOM     13  C   UNL     1       3.170   3.033  19.514  0.00  0.00    +0.000 A 
ATOM     14  C   UNL     1       2.177   2.293  20.177  0.00  0.00    +0.000 A 
ATOM     15  C   UNL     1       0.857   2.278  19.723  0.00  0.00    +0.000 A 
ATOM     16  C   UNL     1       0.498   3.047  18.627  0.00  0.00    +0.000 A 
ATOM     17  C   UNL     1       1.456   3.833  17.989  0.00  0.00    +0.000 A 
ATOM     18  C   UNL     1       2.802   3.809  18.394  0.00  0.00    +0.000 A 
BRANCH  13  20
ATOM     19  C   UNL     1       4.926   1.834  20.595  0.00  0.00    +0.000 C 
ATOM     20  O   UNL     1       4.484   2.998  19.905  0.00  0.00    +0.000 OA
ENDBRANCH  13  20
ENDBRANCH   1  18
BRANCH   3  21
ATOM     21  C   UNL     1       6.834   4.484  15.803  0.00  0.00    +0.000 C 
BRANCH  21  22
ATOM     22  C   UNL     1       6.763   4.814  14.309  0.00  0.00    +0.000 C 
BRANCH  22  23
ATOM     23  C   UNL     1       5.818   3.906  13.529  0.00  0.00    +0.000 C 
BRANCH  23  24
ATOM     24  O   UNL     1       6.577   3.061  12.670  0.00  0.00    +0.000 OA
ATOM     25  H   UNL     1       7.470   3.444  12.600  0.00  0.00    +0.000 HD
ENDBRANCH  23  24
ENDBRANCH  22  23
ENDBRANCH  21  22
ENDBRANCH   3  21
TORSDOF 7
ENDMDL
MODEL 4
REMARK VINA RESULT:      -7.2      1.515      1.968
REMARK  Name = 
REMARK  8 active torsions:
REMARK  status: ('A' for Active; 'I' for Inactive)
REMARK    1  A    between atoms: C_1  and  O_2
REMARK    2  A    between atoms: O_2  and  C_3
REMARK    3  A    between atoms: C_8  and  N_9
REMARK    4  A    between atoms: C_11  and  C_12
REMARK    5  A    between atoms: C_12  and  C_13
REMARK    6  A    between atoms: C_13  and  C_14
REMARK    7  A    between atoms: C_14  and  O_15
REMARK    8  A    between atoms: C_17  and  C_18
REMARK                            x       y       z     vdW  Elec       q    Type
REMARK                         _______ _______ _______ _____ _____    ______ ____
ROOT
ATOM      1  N   UNL     1       3.432   4.370  18.090  0.00  0.00    +0.000 N 
ATOM      2  N   UNL     1       4.164   3.560  17.268  0.00  0.00    +0.000 NA
ATOM      3  C   UNL     1       4.923   4.378  16.538  0.00  0.00    +0.000 A 
ATOM      4  C   UNL     1       4.613   5.724  16.786  0.00  0.00    +0.000 A 
ATOM      5  C   UNL     1       3.621   5.725  17.753  0.00  0.00    +0.000 A 
ENDROOT
BRANCH   5   6
ATOM      6  C   UNL     1       2.910   6.897  18.292  0.00  0.00    +0.000 A 
ATOM      7  C   UNL     1       2.595   8.013  17.501  0.00  0.00    +0.000 A 
ATOM      8  C   UNL     1       1.846   9.074  18.021  0.00  0.00    +0.000 A 
ATOM      9  C   UNL     1       1.461   9.062  19.358  0.00  0.00    +0.000 A 
ATOM     10 CL   UNL     1       0.541  10.366  19.998  0.00  0.00    +0.000 Cl
ATOM     11  C   UNL     1       1.818   7.997  20.179  0.00  0.00    +0.000 A 
ATOM     12  C   UNL     1       2.531   6.919  19.646  0.00  0.00    +0.000 A 
ENDBRANCH   5   6
BRANCH   1  18
ATOM     13  C   UNL     1       3.347   3.089  20.233  0.00  0.00    +0.000 A 
ATOM     14  C   UNL     1       2.560   2.539  21.258  0.00  0.00    +0.000 A 
ATOM     15  C   UNL     1       1.168   2.650  21.245  0.00  0.00    +0.000 A 
ATOM     16  C   UNL     1       0.544   3.361  20.231  0.00  0.00    +0.000 A 
ATOM     17  C   UNL     1       1.310   3.962  19.235  0.00  0.00    +0.000 A 
ATOM     18  C   UNL     1       2.707   3.806  19.198  0.00  0.00    +0.000 A 
BRANCH  13  20
ATOM     19  C   UNL     1       5.220   1.657  20.590  0.00  0.00    +0.000 C 
ATOM     20  O   UNL     1       4.707   2.925  20.194  0.00  0.00    +0.000 OA
ENDBRANCH  13  20
ENDBRANCH   1  18
BRANCH   3  21
ATOM     21  C   UNL     1       5.955   3.834  15.610  0.00  0.00    +0.000 C 
BRANCH  21  22
ATOM     22  C   UNL     1       6.976   4.890  15.177  0.00  0.00    +0.000 C 
BRANCH  22  23
ATOM     23  C   UNL     1       7.250   4.892  13.676  0.00  0.00    +0.000 C 
BRANCH  23  24
ATOM     24  O   UNL     1       8.351   5.752  13.399  0.00  0.00    +0.000 OA
ATOM     25  H   UNL     1       9.154   5.314  13.733  0.00  0.00    +0.000 HD
ENDBRANCH  23  24
ENDBRANCH  22  23
ENDBRANCH  21  22
ENDBRANCH   3  21
TORSDOF 7
ENDMDL
MODEL 5
REMARK VINA RESULT:      -7.0      1.587      2.048
REMARK  Name = 
REMARK  8 active torsions:
REMARK  status: ('A' for Active; 'I' for Inactive)
REMARK    1  A    between atoms: C_1  and  O_2
REMARK    2  A    between atoms: O_2  and  C_3
REMARK    3  A    between atoms: C_8  and  N_9
REMARK    4  A    between atoms: C_11  and  C_12
REMARK    5  A    between atoms: C_12  and  C_13
REMARK    6  A    between atoms: C_13  and  C_14
REMARK    7  A    between atoms: C_14  and  O_15
REMARK    8  A    between atoms: C_17  and  C_18
REMARK                            x       y       z     vdW  Elec       q    Type
REMARK                         _______ _______ _______ _____ _____    ______ ____
ROOT
ATOM      1  N   UNL     1       3.744   5.019  17.226  0.00  0.00    +0.000 N 
ATOM      2  N   UNL     1       4.572   4.575  16.234  0.00  0.00    +0.000 NA
ATOM      3  C   UNL     1       5.241   5.649  15.815  0.00  0.00    +0.000 A 
ATOM      4  C   UNL     1       4.779   6.819  16.438  0.00  0.00    +0.000 A 
ATOM      5  C   UNL     1       3.783   6.425  17.316  0.00  0.00    +0.000 A 
ENDROOT
BRANCH   5   6
ATOM      6  C   UNL     1       2.938   7.299  18.148  0.00  0.00    +0.000 A 
ATOM      7  C   UNL     1       2.408   8.507  17.668  0.00  0.00    +0.000 A 
ATOM      8  C   UNL     1       1.541   9.274  18.454  0.00  0.00    +0.000 A 
ATOM      9  C   UNL     1       1.248   8.877  19.754  0.00  0.00    +0.000 A 
ATOM     10 CL   UNL     1       0.183   9.818  20.721  0.00  0.00    +0.000 Cl
ATOM     11  C   UNL     1       1.813   7.716  20.275  0.00  0.00    +0.000 A 
ATOM     12  C   UNL     1       2.646   6.930  19.473  0.00  0.00    +0.000 A 
ENDBRANCH   5   6
BRANCH   1  18
ATOM     13  C   UNL     1       3.761   3.328  19.063  0.00  0.00    +0.000 A 
ATOM     14  C   UNL     1       3.037   2.400  19.831  0.00  0.00    +0.000 A 
ATOM     15  C   UNL     1       1.677   2.177  19.610  0.00  0.00    +0.000 A 
ATOM     16  C   UNL     1       1.005   2.919  18.651  0.00  0.00    +0.000 A 
ATOM     17  C   UNL     1       1.691   3.884  17.917  0.00  0.00    +0.000 A 
ATOM     18  C   UNL     1       3.075   4.075  18.082  0.00  0.00    +0.000 A 
BRANCH  13  20
ATOM     19  C   UNL     1       5.555   4.788  19.645  0.00  0.00    +0.000 C 
ATOM     20  O   UNL     1       5.111   3.503  19.219  0.00  0.00    +0.000 OA
ENDBRANCH  13  20
ENDBRANCH   1  18
BRANCH   3  21
ATOM     21  C   UNL     1       6.339   5.520  14.814  0.00  0.00    +0.000 C 
BRANCH  21  22
ATOM     22  C   UNL     1       6.679   4.061  14.495  0.00  0.00    +0.000 C 
BRANCH  22  23
ATOM     23  C   UNL     1       6.263   3.631  13.092  0.00  0.00    +0.000 C 
BRANCH  23  24
ATOM     24  O   UNL     1       4.859   3.817  12.939  0.00  0.00    +0.000 OA
ATOM     25  H   UNL     1       4.631   4.665  13.359  0.00  0.00    +0.000 HD
ENDBRANCH  23  24
ENDBRANCH  22  23
ENDBRANCH  21  22
ENDBRANCH   3  21
TORSDOF 7
ENDMDL
MODEL 6
REMARK VINA RESULT:      -6.9      1.679      2.201
REMARK  Name = 
REMARK  8 active torsions:
REMARK  status: ('A' for Active; 'I' for Inactive)
REMARK    1  A    between atoms: C_1  and  O_2
REMARK    2  A    between atoms: O_2  and  C_3
REMARK    3  A    between atoms: C_8  and  N_9
REMARK    4  A    between atoms: C_11  and  C_12
REMARK    5  A    between atoms: C_12  and  C_13
REMARK    6  A    between atoms: C_13  and  C_14
REMARK    7  A    between atoms: C_14  and  O_15
REMARK    8  A    between atoms: C_17  and  C_18
REMARK                            x       y       z     vdW  Elec       q    Type
REMARK                         _______ _______ _______ _____ _____    ______ ____
ROOT
ATOM      1  N   UNL     1       3.867   4.847  18.624  0.00  0.00    +0.000 N 
ATOM      2  N   UNL     1       4.934   4.182  18.086  0.00  0.00    +0.000 NA
ATOM      3  C   UNL     1       5.749   5.127  17.618  0.00  0.00    +0.000 A 
ATOM      4  C   UNL     1       5.178   6.404  17.735  0.00  0.00    +0.000 A 
ATOM      5  C   UNL     1       3.945   6.225  18.341  0.00  0.00    +0.000 A 
ENDROOT
BRANCH   5   6
ATOM      6  C   UNL     1       2.932   7.260  18.611  0.00  0.00    +0.000 A 
ATOM      7  C   UNL     1       2.275   7.362  19.848  0.00  0.00    +0.000 A 
ATOM      8  C   UNL     1       1.380   8.406  20.102  0.00  0.00    +0.000 A 
ATOM      9  C   UNL     1       1.078   9.322  19.099  0.00  0.00    +0.000 A 
ATOM     10 CL   UNL     1      -0.022  10.605  19.410  0.00  0.00    +0.000 Cl
ATOM     11  C   UNL     1       1.667   9.202  17.844  0.00  0.00    +0.000 A 
ATOM     12  C   UNL     1       2.594   8.183  17.606  0.00  0.00    +0.000 A 
ENDBRANCH   5   6
BRANCH   1  18
ATOM     13  C   UNL     1       1.797   3.484  18.928  0.00  0.00    +0.000 A 
ATOM     14  C   UNL     1       0.909   2.854  19.816  0.00  0.00    +0.000 A 
ATOM     15  C   UNL     1       1.099   2.911  21.197  0.00  0.00    +0.000 A 
ATOM     16  C   UNL     1       2.213   3.556  21.713  0.00  0.00    +0.000 A 
ATOM     17  C   UNL     1       3.137   4.138  20.847  0.00  0.00    +0.000 A 
ATOM     18  C   UNL     1       2.927   4.145  19.457  0.00  0.00    +0.000 A 
BRANCH  13  20
ATOM     19  C   UNL     1       2.411   2.658  16.776  0.00  0.00    +0.000 C 
ATOM     20  O   UNL     1       1.583   3.498  17.574  0.00  0.00    +0.000 OA
ENDBRANCH  13  20
ENDBRANCH   1  18
BRANCH   3  21
ATOM     21  C   UNL     1       7.090   4.773  17.070  0.00  0.00    +0.000 C 
BRANCH  21  22
ATOM     22  C   UNL     1       7.116   4.760  15.538  0.00  0.00    +0.000 C 
BRANCH  22  23
ATOM     23  C   UNL     1       5.959   3.985  14.915  0.00  0.00    +0.000 C 
BRANCH  23  24
ATOM     24  O   UNL     1       6.383   3.416  13.680  0.00  0.00    +0.000 OA
ATOM     25  H   UNL     1       7.108   2.798  13.878  0.00  0.00    +0.000 HD
ENDBRANCH  23  24
ENDBRANCH  22  23
ENDBRANCH  21  22
ENDBRANCH   3  21
TORSDOF 7
ENDMDL
MODEL 7
REMARK VINA RESULT:      -6.9      1.606      1.835
REMARK  Name = 
REMARK  8 active torsions:
REMARK  status: ('A' for Active; 'I' for Inactive)
REMARK    1  A    between atoms: C_1  and  O_2
REMARK    2  A    between atoms: O_2  and  C_3
REMARK    3  A    between atoms: C_8  and  N_9
REMARK    4  A    between atoms: C_11  and  C_12
REMARK    5  A    between atoms: C_12  and  C_13
REMARK    6  A    between atoms: C_13  and  C_14
REMARK    7  A    between atoms: C_14  and  O_15
REMARK    8  A    between atoms: C_17  and  C_18
REMARK                            x       y       z     vdW  Elec       q    Type
REMARK                         _______ _______ _______ _____ _____    ______ ____
ROOT
ATOM      1  N   UNL     1       3.815   4.837  17.287  0.00  0.00    +0.000 N 
ATOM      2  N   UNL     1       4.694   4.343  16.363  0.00  0.00    +0.000 NA
ATOM      3  C   UNL     1       5.413   5.390  15.956  0.00  0.00    +0.000 A 
ATOM      4  C   UNL     1       4.939   6.587  16.512  0.00  0.00    +0.000 A 
ATOM      5  C   UNL     1       3.881   6.243  17.336  0.00  0.00    +0.000 A 
ENDROOT
BRANCH   5   6
ATOM      6  C   UNL     1       3.005   7.161  18.086  0.00  0.00    +0.000 A 
ATOM      7  C   UNL     1       2.654   6.936  19.426  0.00  0.00    +0.000 A 
ATOM      8  C   UNL     1       1.890   7.869  20.135  0.00  0.00    +0.000 A 
ATOM      9  C   UNL     1       1.410   9.005  19.492  0.00  0.00    +0.000 A 
ATOM     10 CL   UNL     1       0.470  10.152  20.363  0.00  0.00    +0.000 Cl
ATOM     11  C   UNL     1       1.690   9.218  18.146  0.00  0.00    +0.000 A 
ATOM     12  C   UNL     1       2.489   8.305  17.451  0.00  0.00    +0.000 A 
ENDBRANCH   5   6
BRANCH   1  18
ATOM     13  C   UNL     1       3.683   3.175  19.146  0.00  0.00    +0.000 A 
ATOM     14  C   UNL     1       2.890   2.290  19.896  0.00  0.00    +0.000 A 
ATOM     15  C   UNL     1       1.532   2.120  19.620  0.00  0.00    +0.000 A 
ATOM     16  C   UNL     1       0.932   2.874  18.623  0.00  0.00    +0.000 A 
ATOM     17  C   UNL     1       1.689   3.798  17.905  0.00  0.00    +0.000 A 
ATOM     18  C   UNL     1       3.071   3.935  18.126  0.00  0.00    +0.000 A 
BRANCH  13  20
ATOM     19  C   UNL     1       5.512   4.571  19.775  0.00  0.00    +0.000 C 
ATOM     20  O   UNL     1       5.032   3.297  19.357  0.00  0.00    +0.000 OA
ENDBRANCH  13  20
ENDBRANCH   1  18
BRANCH   3  21
ATOM     21  C   UNL     1       6.568   5.205  15.031  0.00  0.00    +0.000 C 
BRANCH  21  22
ATOM     22  C   UNL     1       6.221   4.337  13.818  0.00  0.00    +0.000 C 
BRANCH  22  23
ATOM     23  C   UNL     1       7.256   4.411  12.700  0.00  0.00    +0.000 C 
BRANCH  23  24
ATOM     24  O   UNL     1       8.006   5.615  12.831  0.00  0.00    +0.000 OA
ATOM     25  H   UNL     1       8.501   5.559  13.667  0.00  0.00    +0.000 HD
ENDBRANCH  23  24
ENDBRANCH  22  23
ENDBRANCH  21  22
ENDBRANCH   3  21
TORSDOF 7
ENDMDL
MODEL 8
REMARK VINA RESULT:      -6.9      1.525      1.957
REMARK  Name = 
REMARK  8 active torsions:
REMARK  status: ('A' for Active; 'I' for Inactive)
REMARK    1  A    between atoms: C_1  and  O_2
REMARK    2  A    between atoms: O_2  and  C_3
REMARK    3  A    between atoms: C_8  and  N_9
REMARK    4  A    between atoms: C_11  and  C_12
REMARK    5  A    between atoms: C_12  and  C_13
REMARK    6  A    between atoms: C_13  and  C_14
REMARK    7  A    between atoms: C_14  and  O_15
REMARK    8  A    between atoms: C_17  and  C_18
REMARK                            x       y       z     vdW  Elec       q    Type
REMARK                         _______ _______ _______ _____ _____    ______ ____
ROOT
ATOM      1  N   UNL     1       3.596   5.256  18.532  0.00  0.00    +0.000 N 
ATOM      2  N   UNL     1       4.675   4.689  17.913  0.00  0.00    +0.000 NA
ATOM      3  C   UNL     1       5.416   5.708  17.477  0.00  0.00    +0.000 A 
ATOM      4  C   UNL     1       4.780   6.939  17.697  0.00  0.00    +0.000 A 
ATOM      5  C   UNL     1       3.585   6.651  18.336  0.00  0.00    +0.000 A 
ENDROOT
BRANCH   5   6
ATOM      6  C   UNL     1       2.527   7.606  18.711  0.00  0.00    +0.000 A 
ATOM      7  C   UNL     1       2.013   7.682  20.015  0.00  0.00    +0.000 A 
ATOM      8  C   UNL     1       1.070   8.656  20.359  0.00  0.00    +0.000 A 
ATOM      9  C   UNL     1       0.577   9.520  19.387  0.00  0.00    +0.000 A 
ATOM     10 CL   UNL     1      -0.583  10.716  19.809  0.00  0.00    +0.000 Cl
ATOM     11  C   UNL     1       1.024   9.421  18.073  0.00  0.00    +0.000 A 
ATOM     12  C   UNL     1       1.998   8.475  17.741  0.00  0.00    +0.000 A 
ENDBRANCH   5   6
BRANCH   1  18
ATOM     13  C   UNL     1       1.752   3.594  18.804  0.00  0.00    +0.000 A 
ATOM     14  C   UNL     1       0.924   2.870  19.679  0.00  0.00    +0.000 A 
ATOM     15  C   UNL     1       1.025   3.016  21.063  0.00  0.00    +0.000 A 
ATOM     16  C   UNL     1       1.993   3.851  21.599  0.00  0.00    +0.000 A 
ATOM     17  C   UNL     1       2.862   4.536  20.751  0.00  0.00    +0.000 A 
ATOM     18  C   UNL     1       2.732   4.450  19.353  0.00  0.00    +0.000 A 
BRANCH  13  20
ATOM     19  C   UNL     1       2.404   2.544  16.764  0.00  0.00    +0.000 C 
ATOM     20  O   UNL     1       1.614   3.516  17.443  0.00  0.00    +0.000 OA
ENDBRANCH  13  20
ENDBRANCH   1  18
BRANCH   3  21
ATOM     21  C   UNL     1       6.751   5.468  16.856  0.00  0.00    +0.000 C 
BRANCH  21  22
ATOM     22  C   UNL     1       7.773   4.910  17.851  0.00  0.00    +0.000 C 
BRANCH  22  23
ATOM     23  C   UNL     1       7.829   5.684  19.165  0.00  0.00    +0.000 C 
BRANCH  23  24
ATOM     24  O   UNL     1       8.430   6.955  18.938  0.00  0.00    +0.000 OA
ATOM     25  H   UNL     1       9.229   7.002  19.493  0.00  0.00    +0.000 HD
ENDBRANCH  23  24
ENDBRANCH  22  23
ENDBRANCH  21  22
ENDBRANCH   3  21
TORSDOF 7
ENDMDL
MODEL 9
REMARK VINA RESULT:      -6.8      1.482      2.176
REMARK  Name = 
REMARK  8 active torsions:
REMARK  status: ('A' for Active; 'I' for Inactive)
REMARK    1  A    between atoms: C_1  and  O_2
REMARK    2  A    between atoms: O_2  and  C_3
REMARK    3  A    between atoms: C_8  and  N_9
REMARK    4  A    between atoms: C_11  and  C_12
REMARK    5  A    between atoms: C_12  and  C_13
REMARK    6  A    between atoms: C_13  and  C_14
REMARK    7  A    between atoms: C_14  and  O_15
REMARK    8  A    between atoms: C_17  and  C_18
REMARK                            x       y       z     vdW  Elec       q    Type
REMARK                         _______ _______ _______ _____ _____    ______ ____
ROOT
ATOM      1  N   UNL     1       3.630   5.254  18.541  0.00  0.00    +0.000 N 
ATOM      2  N   UNL     1       4.718   4.663  17.961  0.00  0.00    +0.000 NA
ATOM      3  C   UNL     1       5.483   5.665  17.526  0.00  0.00    +0.000 A 
ATOM      4  C   UNL     1       4.856   6.907  17.707  0.00  0.00    +0.000 A 
ATOM      5  C   UNL     1       3.642   6.645  18.320  0.00  0.00    +0.000 A 
ENDROOT
BRANCH   5   6
ATOM      6  C   UNL     1       2.586   7.619  18.649  0.00  0.00    +0.000 A 
ATOM      7  C   UNL     1       2.049   8.495  17.692  0.00  0.00    +0.000 A 
ATOM      8  C   UNL     1       0.990   9.350  18.016  0.00  0.00    +0.000 A 
ATOM      9  C   UNL     1       0.502   9.389  19.318  0.00  0.00    +0.000 A 
ATOM     10 CL   UNL     1      -0.798  10.440  19.716  0.00  0.00    +0.000 Cl
ATOM     11  C   UNL     1       1.063   8.578  20.299  0.00  0.00    +0.000 A 
ATOM     12  C   UNL     1       2.093   7.694  19.963  0.00  0.00    +0.000 A 
ENDBRANCH   5   6
BRANCH   1  18
ATOM     13  C   UNL     1       1.711   3.676  18.796  0.00  0.00    +0.000 A 
ATOM     14  C   UNL     1       0.857   2.974  19.663  0.00  0.00    +0.000 A 
ATOM     15  C   UNL     1       0.975   3.088  21.049  0.00  0.00    +0.000 A 
ATOM     16  C   UNL     1       1.985   3.866  21.593  0.00  0.00    +0.000 A 
ATOM     17  C   UNL     1       2.879   4.526  20.751  0.00  0.00    +0.000 A 
ATOM     18  C   UNL     1       2.735   4.473  19.353  0.00  0.00    +0.000 A 
BRANCH  13  20
ATOM     19  C   UNL     1       2.360   2.693  16.722  0.00  0.00    +0.000 C 
ATOM     20  O   UNL     1       1.560   3.631  17.435  0.00  0.00    +0.000 OA
ENDBRANCH  13  20
ENDBRANCH   1  18
BRANCH   3  21
ATOM     21  C   UNL     1       6.830   5.397  16.945  0.00  0.00    +0.000 C 
BRANCH  21  22
ATOM     22  C   UNL     1       7.851   4.958  17.999  0.00  0.00    +0.000 C 
BRANCH  22  23
ATOM     23  C   UNL     1       8.036   5.970  19.126  0.00  0.00    +0.000 C 
BRANCH  23  24
ATOM     24  O   UNL     1       8.100   5.282  20.371  0.00  0.00    +0.000 OA
ATOM     25  H   UNL     1       7.779   5.893  21.058  0.00  0.00    +0.000 HD
ENDBRANCH  23  24
ENDBRANCH  22  23
ENDBRANCH  21  22
ENDBRANCH   3  21
TORSDOF 7
ENDMDL
