MODEL 1
REMARK VINA RESULT:      -8.0      0.000      0.000
REMARK  Name = 
REMARK  9 active torsions:
REMARK  status: ('A' for Active; 'I' for Inactive)
REMARK    1  A    between atoms: C_1  and  C_2
REMARK    2  A    between atoms: C_2  and  O_3
REMARK    3  A    between atoms: O_3  and  C_4
REMARK    4  A    between atoms: C_4  and  C_6
REMARK    5  A    between atoms: C_11  and  O_12
REMARK    6  A    between atoms: O_12  and  C_13
REMARK    7  A    between atoms: C_13  and  C_15
REMARK    8  A    between atoms: CA_26  and  C_27
REMARK    9  A    between atoms: C_27  and  OXT_29
REMARK                            x       y       z     vdW  Elec       q    Type
REMARK                         _______ _______ _______ _____ _____    ______ ____
ROOT
ATOM      1  C   UNL     1       2.449   7.351  18.292  0.00  0.00    +0.000 A 
ATOM      2  C   UNL     1       2.319   6.808  19.585  0.00  0.00    +0.000 A 
ATOM      3  C   UNL     1       3.206   5.828  20.004  0.00  0.00    +0.000 A 
ATOM      4  C   UNL     1       4.176   5.422  19.102  0.00  0.00    +0.000 A 
ATOM      5  C   UNL     1       4.008   5.604  17.717  0.00  0.00    +0.000 A 
ATOM      6  C   UNL     1       3.217   6.683  17.325  0.00  0.00    +0.000 A 
ATOM      7  C   UNL     1       4.902   4.758  16.834  0.00  0.00    +0.000 C 
ATOM      8  C   UNL     1       4.974   5.099  15.386  0.00  0.00    +0.000 C 
ATOM      9  C   UNL     1       6.219   5.379  14.996  0.00  0.00    +0.000 C 
ATOM     10  C   UNL     1       7.203   5.312  16.118  0.00  0.00    +0.000 C 
ATOM     11  C   UNL     1       6.380   4.807  17.312  0.00  0.00    +0.000 C 
ATOM     12  CA  UNL     1       6.453   5.677  18.566  0.00  0.00    +0.000 C 
ATOM     13  N   UNL     1       5.487   5.105  19.594  0.00  0.00    +0.000 N 
ATOM     14  H   UNL     1       5.580   4.086  19.632  0.00  0.00    +0.000 HD
ENDROOT
BRANCH   1  15
ATOM     15  C   UNL     1       2.060   8.771  18.068  0.00  0.00    +0.000 C 
ATOM     16  O   UNL     1       2.526   9.477  17.184  0.00  0.00    +0.000 OA
BRANCH  15  17
ATOM     17  O   UNL     1       1.242   9.176  19.101  0.00  0.00    +0.000 OA
BRANCH  17  23
ATOM     18  C   UNL     1       0.265  11.396  19.196  0.00  0.00    +0.000 A 
ATOM     19  C   UNL     1      -0.694  12.310  18.729  0.00  0.00    +0.000 A 
ATOM     20  C   UNL     1      -1.712  11.893  17.868  0.00  0.00    +0.000 A 
ATOM     21  C   UNL     1      -1.792  10.556  17.485  0.00  0.00    +0.000 A 
ATOM     22  C   UNL     1      -0.852   9.637  17.953  0.00  0.00    +0.000 A 
ATOM     23  C   UNL     1       0.182  10.055  18.805  0.00  0.00    +0.000 A 
BRANCH  18  24
ATOM     24  C   UNL     1       1.367  11.974  19.998  0.00  0.00    +0.000 C 
ATOM     25  O   UNL     1       1.340  12.034  21.216  0.00  0.00    +0.000 OA
BRANCH  24  26
ATOM     26  O   UNL     1       2.245  12.610  19.183  0.00  0.00    +0.000 OA
BRANCH  26  28
ATOM     27  C   UNL     1       2.711  14.744  18.253  0.00  0.00    +0.000 C 
ATOM     28  C   UNL     1       2.521  13.969  19.545  0.00  0.00    +0.000 C 
ENDBRANCH  26  28
ENDBRANCH  24  26
ENDBRANCH  18  24
ENDBRANCH  17  23
ENDBRANCH  15  17
ENDBRANCH   1  15
BRANCH  12  29
ATOM     29  C   UNL     1       7.821   5.879  19.204  0.00  0.00    +0.000 C 
ATOM     30  O   UNL     1       8.450   5.041  19.829  0.00  0.00    +0.000 OA
BRANCH  29  31
ATOM     31  OXT UNL     1       8.321   7.103  18.879  0.00  0.00    +0.000 OA
ATOM     32  HXT UNL     1       8.554   7.561  19.724  0.00  0.00    +0.000 HD
ENDBRANCH  29  31
ENDBRANCH  12  29
TORSDOF 8
ENDMDL
MODEL 2
REMARK VINA RESULT:      -7.7      1.455      2.022
REMARK  Name = 
REMARK  9 active torsions:
REMARK  status: ('A' for Active; 'I' for Inactive)
REMARK    1  A    between atoms: C_1  and  C_2
REMARK    2  A    between atoms: C_2  and  O_3
REMARK    3  A    between atoms: O_3  and  C_4
REMARK    4  A    between atoms: C_4  and  C_6
REMARK    5  A    between atoms: C_11  and  O_12
REMARK    6  A    between atoms: O_12  and  C_13
REMARK    7  A    between atoms: C_13  and  C_15
REMARK    8  A    between atoms: CA_26  and  C_27
REMARK    9  A    between atoms: C_27  and  OXT_29
REMARK                            x       y       z     vdW  Elec       q    Type
REMARK                         _______ _______ _______ _____ _____    ______ ____
ROOT
ATOM      1  C   UNL     1       2.311   7.406  18.346  0.00  0.00    +0.000 A 
ATOM      2  C   UNL     1       2.109   6.820  19.610  0.00  0.00    +0.000 A 
ATOM      3  C   UNL     1       2.968   5.821  20.043  0.00  0.00    +0.000 A 
ATOM      4  C   UNL     1       3.985   5.442  19.181  0.00  0.00    +0.000 A 
ATOM      5  C   UNL     1       3.894   5.673  17.796  0.00  0.00    +0.000 A 
ATOM      6  C   UNL     1       3.129   6.769  17.399  0.00  0.00    +0.000 A 
ATOM      7  C   UNL     1       4.832   4.854  16.934  0.00  0.00    +0.000 C 
ATOM      8  C   UNL     1       4.984   5.244  15.506  0.00  0.00    +0.000 C 
ATOM      9  C   UNL     1       6.250   5.532  15.194  0.00  0.00    +0.000 C 
ATOM     10  C   UNL     1       7.170   5.421  16.365  0.00  0.00    +0.000 C 
ATOM     11  C   UNL     1       6.282   4.878  17.495  0.00  0.00    +0.000 C 
ATOM     12  CA  UNL     1       6.289   5.704  18.780  0.00  0.00    +0.000 C 
ATOM     13  N   UNL     1       5.266   5.101  19.732  0.00  0.00    +0.000 N 
ATOM     14  H   UNL     1       5.354   4.081  19.740  0.00  0.00    +0.000 HD
ENDROOT
BRANCH   1  15
ATOM     15  C   UNL     1       1.939   8.836  18.152  0.00  0.00    +0.000 C 
ATOM     16  O   UNL     1       2.416   9.555  17.283  0.00  0.00    +0.000 OA
BRANCH  15  17
ATOM     17  O   UNL     1       1.123   9.229  19.191  0.00  0.00    +0.000 OA
BRANCH  17  23
ATOM     18  C   UNL     1      -0.624  10.806  19.783  0.00  0.00    +0.000 A 
ATOM     19  C   UNL     1      -1.711  11.603  19.387  0.00  0.00    +0.000 A 
ATOM     20  C   UNL     1      -2.236  11.497  18.097  0.00  0.00    +0.000 A 
ATOM     21  C   UNL     1      -1.694  10.578  17.200  0.00  0.00    +0.000 A 
ATOM     22  C   UNL     1      -0.623   9.772  17.588  0.00  0.00    +0.000 A 
ATOM     23  C   UNL     1      -0.082   9.887  18.878  0.00  0.00    +0.000 A 
BRANCH  18  24
ATOM     24  C   UNL     1      -0.071  11.093  21.126  0.00  0.00    +0.000 C 
ATOM     25  O   UNL     1       0.855  11.865  21.311  0.00  0.00    +0.000 OA
BRANCH  24  26
ATOM     26  O   UNL     1      -0.577  10.216  22.029  0.00  0.00    +0.000 OA
BRANCH  26  28
ATOM     27  C   UNL     1      -2.092  11.750  23.022  0.00  0.00    +0.000 C 
ATOM     28  C   UNL     1      -0.941  10.796  23.288  0.00  0.00    +0.000 C 
ENDBRANCH  26  28
ENDBRANCH  24  26
ENDBRANCH  18  24
ENDBRANCH  17  23
ENDBRANCH  15  17
ENDBRANCH   1  15
BRANCH  12  29
ATOM     29  C   UNL     1       7.621   5.876  19.499  0.00  0.00    +0.000 C 
ATOM     30  O   UNL     1       8.055   5.157  20.382  0.00  0.00    +0.000 OA
BRANCH  29  31
ATOM     31  OXT UNL     1       8.337   6.888  18.934  0.00  0.00    +0.000 OA
ATOM     32  HXT UNL     1       8.670   6.563  18.061  0.00  0.00    +0.000 HD
ENDBRANCH  29  31
ENDBRANCH  12  29
TORSDOF 8
ENDMDL
MODEL 3
REMARK VINA RESULT:      -7.4      4.613     10.074
REMARK  Name = 
REMARK  9 active torsions:
REMARK  status: ('A' for Active; 'I' for Inactive)
REMARK    1  A    between atoms: C_1  and  C_2
REMARK    2  A    between atoms: C_2  and  O_3
REMARK    3  A    between atoms: O_3  and  C_4
REMARK    4  A    between atoms: C_4  and  C_6
REMARK    5  A    between atoms: C_11  and  O_12
REMARK    6  A    between atoms: O_12  and  C_13
REMARK    7  A    between atoms: C_13  and  C_15
REMARK    8  A    between atoms: CA_26  and  C_27
REMARK    9  A    between atoms: C_27  and  OXT_29
REMARK                            x       y       z     vdW  Elec       q    Type
REMARK                         _______ _______ _______ _____ _____    ______ ____
ROOT
ATOM      1  C   UNL     1      -1.930  12.098  19.190  0.00  0.00    +0.000 A 
ATOM      2  C   UNL     1      -1.230  13.216  19.682  0.00  0.00    +0.000 A 
ATOM      3  C   UNL     1      -1.880  14.113  20.517  0.00  0.00    +0.000 A 
ATOM      4  C   UNL     1      -3.210  13.858  20.809  0.00  0.00    +0.000 A 
ATOM      5  C   UNL     1      -4.002  13.053  19.969  0.00  0.00    +0.000 A 
ATOM      6  C   UNL     1      -3.333  12.069  19.243  0.00  0.00    +0.000 A 
ATOM      7  C   UNL     1      -5.499  13.197  20.148  0.00  0.00    +0.000 C 
ATOM      8  C   UNL     1      -6.378  12.186  19.499  0.00  0.00    +0.000 C 
ATOM      9  C   UNL     1      -7.149  11.548  20.383  0.00  0.00    +0.000 C 
ATOM     10  C   UNL     1      -6.902  11.991  21.788  0.00  0.00    +0.000 C 
ATOM     11  C   UNL     1      -5.898  13.144  21.650  0.00  0.00    +0.000 C 
ATOM     12  CA  UNL     1      -4.624  12.999  22.482  0.00  0.00    +0.000 C 
ATOM     13  N   UNL     1      -3.696  14.152  22.127  0.00  0.00    +0.000 N 
ATOM     14  H   UNL     1      -4.225  15.029  22.089  0.00  0.00    +0.000 HD
ENDROOT
BRANCH   1  15
ATOM     15  C   UNL     1      -1.179  10.837  18.936  0.00  0.00    +0.000 C 
ATOM     16  O   UNL     1      -1.662   9.849  18.398  0.00  0.00    +0.000 OA
BRANCH  15  17
ATOM     17  O   UNL     1       0.055  10.923  19.546  0.00  0.00    +0.000 OA
BRANCH  17  23
ATOM     18  C   UNL     1       1.018   8.820  20.281  0.00  0.00    +0.000 A 
ATOM     19  C   UNL     1       1.781   7.678  19.987  0.00  0.00    +0.000 A 
ATOM     20  C   UNL     1       2.468   7.575  18.776  0.00  0.00    +0.000 A 
ATOM     21  C   UNL     1       2.416   8.622  17.858  0.00  0.00    +0.000 A 
ATOM     22  C   UNL     1       1.672   9.766  18.145  0.00  0.00    +0.000 A 
ATOM     23  C   UNL     1       0.967   9.867  19.354  0.00  0.00    +0.000 A 
BRANCH  18  24
ATOM     24  C   UNL     1       0.233   8.765  21.535  0.00  0.00    +0.000 C 
ATOM     25  O   UNL     1      -0.696   7.991  21.703  0.00  0.00    +0.000 OA
BRANCH  24  26
ATOM     26  O   UNL     1       0.546   9.825  22.321  0.00  0.00    +0.000 OA
BRANCH  26  28
ATOM     27  C   UNL     1      -1.174  11.355  22.898  0.00  0.00    +0.000 C 
ATOM     28  C   UNL     1      -0.415  10.118  23.343  0.00  0.00    +0.000 C 
ENDBRANCH  26  28
ENDBRANCH  24  26
ENDBRANCH  18  24
ENDBRANCH  17  23
ENDBRANCH  15  17
ENDBRANCH   1  15
BRANCH  12  29
ATOM     29  C   UNL     1      -4.779  12.912  23.995  0.00  0.00    +0.000 C 
ATOM     30  O   UNL     1      -4.834  11.885  24.650  0.00  0.00    +0.000 OA
BRANCH  29  31
ATOM     31  OXT UNL     1      -4.725  14.155  24.550  0.00  0.00    +0.000 OA
ATOM     32  HXT UNL     1      -4.424  14.780  23.846  0.00  0.00    +0.000 HD
ENDBRANCH  29  31
ENDBRANCH  12  29
TORSDOF 8
ENDMDL
MODEL 4
REMARK VINA RESULT:      -7.4      1.699      2.711
REMARK  Name = 
REMARK  9 active torsions:
REMARK  status: ('A' for Active; 'I' for Inactive)
REMARK    1  A    between atoms: C_1  and  C_2
REMARK    2  A    between atoms: C_2  and  O_3
REMARK    3  A    between atoms: O_3  and  C_4
REMARK    4  A    between atoms: C_4  and  C_6
REMARK    5  A    between atoms: C_11  and  O_12
REMARK    6  A    between atoms: O_12  and  C_13
REMARK    7  A    between atoms: C_13  and  C_15
REMARK    8  A    between atoms: CA_26  and  C_27
REMARK    9  A    between atoms: C_27  and  OXT_29
REMARK                            x       y       z     vdW  Elec       q    Type
REMARK                         _______ _______ _______ _____ _____    ______ ____
ROOT
ATOM      1  C   UNL     1       2.423   7.274  18.444  0.00  0.00    +0.000 A 
ATOM      2  C   UNL     1       2.320   6.658  19.705  0.00  0.00    +0.000 A 
ATOM      3  C   UNL     1       3.234   5.677  20.061  0.00  0.00    +0.000 A 
ATOM      4  C   UNL     1       4.203   5.345  19.128  0.00  0.00    +0.000 A 
ATOM      5  C   UNL     1       4.015   5.598  17.757  0.00  0.00    +0.000 A 
ATOM      6  C   UNL     1       3.195   6.678  17.433  0.00  0.00    +0.000 A 
ATOM      7  C   UNL     1       4.919   4.824  16.820  0.00  0.00    +0.000 C 
ATOM      8  C   UNL     1       4.966   5.246  15.393  0.00  0.00    +0.000 C 
ATOM      9  C   UNL     1       6.201   5.576  15.007  0.00  0.00    +0.000 C 
ATOM     10  C   UNL     1       7.198   5.471  16.113  0.00  0.00    +0.000 C 
ATOM     11  C   UNL     1       6.401   4.881  17.286  0.00  0.00    +0.000 C 
ATOM     12  CA  UNL     1       6.467   5.682  18.585  0.00  0.00    +0.000 C 
ATOM     13  N   UNL     1       5.526   5.032  19.589  0.00  0.00    +0.000 N 
ATOM     14  H   UNL     1       5.643   4.014  19.570  0.00  0.00    +0.000 HD
ENDROOT
BRANCH   1  15
ATOM     15  C   UNL     1       1.999   8.695  18.302  0.00  0.00    +0.000 C 
ATOM     16  O   UNL     1       2.755   9.607  17.993  0.00  0.00    +0.000 OA
BRANCH  15  17
ATOM     17  O   UNL     1       0.695   8.815  18.733  0.00  0.00    +0.000 OA
BRANCH  17  23
ATOM     18  C   UNL     1      -0.416  10.688  19.804  0.00  0.00    +0.000 A 
ATOM     19  C   UNL     1      -0.820  11.333  20.985  0.00  0.00    +0.000 A 
ATOM     20  C   UNL     1      -0.387  10.871  22.230  0.00  0.00    +0.000 A 
ATOM     21  C   UNL     1       0.471   9.775  22.303  0.00  0.00    +0.000 A 
ATOM     22  C   UNL     1       0.889   9.136  21.136  0.00  0.00    +0.000 A 
ATOM     23  C   UNL     1       0.443   9.587  19.884  0.00  0.00    +0.000 A 
BRANCH  18  24
ATOM     24  C   UNL     1      -1.037  11.185  18.555  0.00  0.00    +0.000 C 
ATOM     25  O   UNL     1      -0.741  12.255  18.047  0.00  0.00    +0.000 OA
BRANCH  24  26
ATOM     26  O   UNL     1      -2.101  10.410  18.231  0.00  0.00    +0.000 OA
BRANCH  26  28
ATOM     27  C   UNL     1      -3.019  10.756  16.069  0.00  0.00    +0.000 C 
ATOM     28  C   UNL     1      -2.080   9.893  16.894  0.00  0.00    +0.000 C 
ENDBRANCH  26  28
ENDBRANCH  24  26
ENDBRANCH  18  24
ENDBRANCH  17  23
ENDBRANCH  15  17
ENDBRANCH   1  15
BRANCH  12  29
ATOM     29  C   UNL     1       7.838   5.880  19.220  0.00  0.00    +0.000 C 
ATOM     30  O   UNL     1       8.465   5.042  19.844  0.00  0.00    +0.000 OA
BRANCH  29  31
ATOM     31  OXT UNL     1       8.340   7.103  18.892  0.00  0.00    +0.000 OA
ATOM     32  HXT UNL     1       8.077   7.290  17.958  0.00  0.00    +0.000 HD
ENDBRANCH  29  31
ENDBRANCH  12  29
TORSDOF 8
ENDMDL
MODEL 5
REMARK VINA RESULT:      -7.4      3.080      8.694
REMARK  Name = 
REMARK  9 active torsions:
REMARK  status: ('A' for Active; 'I' for Inactive)
REMARK    1  A    between atoms: C_1  and  C_2
REMARK    2  A    between atoms: C_2  and  O_3
REMARK    3  A    between atoms: O_3  and  C_4
REMARK    4  A    between atoms: C_4  and  C_6
REMARK    5  A    between atoms: C_11  and  O_12
REMARK    6  A    between atoms: O_12  and  C_13
REMARK    7  A    between atoms: C_13  and  C_15
REMARK    8  A    between atoms: CA_26  and  C_27
REMARK    9  A    between atoms: C_27  and  OXT_29
REMARK                            x       y       z     vdW  Elec       q    Type
REMARK                         _______ _______ _______ _____ _____    ______ ____
ROOT
ATOM      1  C   UNL     1       0.679   9.933  20.038  0.00  0.00    +0.000 A 
ATOM      2  C   UNL     1       1.135  11.186  20.488  0.00  0.00    +0.000 A 
ATOM      3  C   UNL     1       0.430  12.330  20.147  0.00  0.00    +0.000 A 
ATOM      4  C   UNL     1      -0.694  12.169  19.353  0.00  0.00    +0.000 A 
ATOM      5  C   UNL     1      -0.860  11.031  18.542  0.00  0.00    +0.000 A 
ATOM      6  C   UNL     1      -0.248   9.860  18.986  0.00  0.00    +0.000 A 
ATOM      7  C   UNL     1      -1.880  11.164  17.430  0.00  0.00    +0.000 C 
ATOM      8  C   UNL     1      -2.302   9.925  16.721  0.00  0.00    +0.000 C 
ATOM      9  C   UNL     1      -3.619   9.721  16.806  0.00  0.00    +0.000 C 
ATOM     10  C   UNL     1      -4.313  10.767  17.616  0.00  0.00    +0.000 C 
ATOM     11  C   UNL     1      -3.209  11.781  17.950  0.00  0.00    +0.000 C 
ATOM     12  CA  UNL     1      -3.045  12.095  19.437  0.00  0.00    +0.000 C 
ATOM     13  N   UNL     1      -1.835  13.006  19.595  0.00  0.00    +0.000 N 
ATOM     14  H   UNL     1      -1.855  13.741  18.881  0.00  0.00    +0.000 HD
ENDROOT
BRANCH   1  15
ATOM     15  C   UNL     1       0.918   8.734  20.890  0.00  0.00    +0.000 C 
ATOM     16  O   UNL     1       0.268   8.466  21.892  0.00  0.00    +0.000 OA
BRANCH  15  17
ATOM     17  O   UNL     1       2.066   8.103  20.458  0.00  0.00    +0.000 OA
BRANCH  17  23
ATOM     18  C   UNL     1       2.524   6.527  18.670  0.00  0.00    +0.000 A 
ATOM     19  C   UNL     1       2.578   5.197  18.224  0.00  0.00    +0.000 A 
ATOM     20  C   UNL     1       2.081   4.160  19.017  0.00  0.00    +0.000 A 
ATOM     21  C   UNL     1       1.506   4.448  20.253  0.00  0.00    +0.000 A 
ATOM     22  C   UNL     1       1.435   5.767  20.701  0.00  0.00    +0.000 A 
ATOM     23  C   UNL     1       1.949   6.810  19.914  0.00  0.00    +0.000 A 
BRANCH  18  24
ATOM     24  C   UNL     1       3.193   7.524  17.805  0.00  0.00    +0.000 C 
ATOM     25  O   UNL     1       2.601   8.456  17.285  0.00  0.00    +0.000 OA
BRANCH  24  26
ATOM     26  O   UNL     1       4.448   7.106  17.507  0.00  0.00    +0.000 OA
BRANCH  26  28
ATOM     27  C   UNL     1       5.450   5.695  15.882  0.00  0.00    +0.000 C 
ATOM     28  C   UNL     1       4.733   7.014  16.105  0.00  0.00    +0.000 C 
ENDBRANCH  26  28
ENDBRANCH  24  26
ENDBRANCH  18  24
ENDBRANCH  17  23
ENDBRANCH  15  17
ENDBRANCH   1  15
BRANCH  12  29
ATOM     29  C   UNL     1      -4.240  12.699  20.164  0.00  0.00    +0.000 C 
ATOM     30  O   UNL     1      -4.626  12.397  21.280  0.00  0.00    +0.000 OA
BRANCH  29  31
ATOM     31  OXT UNL     1      -4.765  13.727  19.441  0.00  0.00    +0.000 OA
ATOM     32  HXT UNL     1      -4.295  14.552  19.717  0.00  0.00    +0.000 HD
ENDBRANCH  29  31
ENDBRANCH  12  29
TORSDOF 8
ENDMDL
MODEL 6
REMARK VINA RESULT:      -7.3      1.331      2.862
REMARK  Name = 
REMARK  9 active torsions:
REMARK  status: ('A' for Active; 'I' for Inactive)
REMARK    1  A    between atoms: C_1  and  C_2
REMARK    2  A    between atoms: C_2  and  O_3
REMARK    3  A    between atoms: O_3  and  C_4
REMARK    4  A    between atoms: C_4  and  C_6
REMARK    5  A    between atoms: C_11  and  O_12
REMARK    6  A    between atoms: O_12  and  C_13
REMARK    7  A    between atoms: C_13  and  C_15
REMARK    8  A    between atoms: CA_26  and  C_27
REMARK    9  A    between atoms: C_27  and  OXT_29
REMARK                            x       y       z     vdW  Elec       q    Type
REMARK                         _______ _______ _______ _____ _____    ______ ____
ROOT
ATOM      1  C   UNL     1       2.379   7.259  18.363  0.00  0.00    +0.000 A 
ATOM      2  C   UNL     1       2.276   6.721  19.660  0.00  0.00    +0.000 A 
ATOM      3  C   UNL     1       3.185   5.759  20.072  0.00  0.00    +0.000 A 
ATOM      4  C   UNL     1       4.149   5.364  19.158  0.00  0.00    +0.000 A 
ATOM      5  C   UNL     1       3.958   5.535  17.774  0.00  0.00    +0.000 A 
ATOM      6  C   UNL     1       3.143   6.598  17.388  0.00  0.00    +0.000 A 
ATOM      7  C   UNL     1       4.853   4.699  16.883  0.00  0.00    +0.000 C 
ATOM      8  C   UNL     1       4.898   5.032  15.433  0.00  0.00    +0.000 C 
ATOM      9  C   UNL     1       6.133   5.331  15.024  0.00  0.00    +0.000 C 
ATOM     10  C   UNL     1       7.134   5.287  16.131  0.00  0.00    +0.000 C 
ATOM     11  C   UNL     1       6.337   4.774  17.340  0.00  0.00    +0.000 C 
ATOM     12  CA  UNL     1       6.413   5.653  18.588  0.00  0.00    +0.000 C 
ATOM     13  N   UNL     1       5.471   5.071  19.632  0.00  0.00    +0.000 N 
ATOM     14  H   UNL     1       5.582   4.053  19.675  0.00  0.00    +0.000 HD
ENDROOT
BRANCH   1  15
ATOM     15  C   UNL     1       1.963   8.672  18.137  0.00  0.00    +0.000 C 
ATOM     16  O   UNL     1       2.552   9.448  17.396  0.00  0.00    +0.000 OA
BRANCH  15  17
ATOM     17  O   UNL     1       0.940   8.979  19.008  0.00  0.00    +0.000 OA
BRANCH  17  23
ATOM     18  C   UNL     1      -0.542  10.879  18.718  0.00  0.00    +0.000 A 
ATOM     19  C   UNL     1      -0.932  12.171  19.106  0.00  0.00    +0.000 A 
ATOM     20  C   UNL     1      -0.160  12.905  20.009  0.00  0.00    +0.000 A 
ATOM     21  C   UNL     1       1.019  12.361  20.515  0.00  0.00    +0.000 A 
ATOM     22  C   UNL     1       1.423  11.084  20.126  0.00  0.00    +0.000 A 
ATOM     23  C   UNL     1       0.641  10.337  19.231  0.00  0.00    +0.000 A 
BRANCH  18  24
ATOM     24  C   UNL     1      -1.500  10.149  17.857  0.00  0.00    +0.000 C 
ATOM     25  O   UNL     1      -1.160   9.535  16.858  0.00  0.00    +0.000 OA
BRANCH  24  26
ATOM     26  O   UNL     1      -2.770  10.468  18.209  0.00  0.00    +0.000 OA
BRANCH  26  28
ATOM     27  C   UNL     1      -4.910  11.342  17.669  0.00  0.00    +0.000 C 
ATOM     28  C   UNL     1      -3.660  10.690  17.107  0.00  0.00    +0.000 C 
ENDBRANCH  26  28
ENDBRANCH  24  26
ENDBRANCH  18  24
ENDBRANCH  17  23
ENDBRANCH  15  17
ENDBRANCH   1  15
BRANCH  12  29
ATOM     29  C   UNL     1       7.787   5.880  19.205  0.00  0.00    +0.000 C 
ATOM     30  O   UNL     1       8.419   5.071  19.862  0.00  0.00    +0.000 OA
BRANCH  29  31
ATOM     31  OXT UNL     1       8.286   7.089  18.821  0.00  0.00    +0.000 OA
ATOM     32  HXT UNL     1       7.964   7.761  19.471  0.00  0.00    +0.000 HD
ENDBRANCH  29  31
ENDBRANCH  12  29
TORSDOF 8
ENDMDL
MODEL 7
REMARK VINA RESULT:      -7.2      2.409      3.409
REMARK  Name = 
REMARK  9 active torsions:
REMARK  status: ('A' for Active; 'I' for Inactive)
REMARK    1  A    between atoms: C_1  and  C_2
REMARK    2  A    between atoms: C_2  and  O_3
REMARK    3  A    between atoms: O_3  and  C_4
REMARK    4  A    between atoms: C_4  and  C_6
REMARK    5  A    between atoms: C_11  and  O_12
REMARK    6  A    between atoms: O_12  and  C_13
REMARK    7  A    between atoms: C_13  and  C_15
REMARK    8  A    between atoms: CA_26  and  C_27
REMARK    9  A    between atoms: C_27  and  OXT_29
REMARK                            x       y       z     vdW  Elec       q    Type
REMARK                         _______ _______ _______ _____ _____    ______ ____
ROOT
ATOM      1  C   UNL     1       2.502   4.285  19.682  0.00  0.00    +0.000 A 
ATOM      2  C   UNL     1       3.114   3.330  20.516  0.00  0.00    +0.000 A 
ATOM      3  C   UNL     1       4.430   2.963  20.280  0.00  0.00    +0.000 A 
ATOM      4  C   UNL     1       5.072   3.559  19.206  0.00  0.00    +0.000 A 
ATOM      5  C   UNL     1       4.345   4.114  18.137  0.00  0.00    +0.000 A 
ATOM      6  C   UNL     1       3.072   4.597  18.437  0.00  0.00    +0.000 A 
ATOM      7  C   UNL     1       5.129   4.338  16.860  0.00  0.00    +0.000 C 
ATOM      8  C   UNL     1       4.503   5.170  15.796  0.00  0.00    +0.000 C 
ATOM      9  C   UNL     1       5.249   6.232  15.484  0.00  0.00    +0.000 C 
ATOM     10  C   UNL     1       6.492   6.324  16.306  0.00  0.00    +0.000 C 
ATOM     11  C   UNL     1       6.488   5.038  17.145  0.00  0.00    +0.000 C 
ATOM     12  CA  UNL     1       6.616   5.246  18.654  0.00  0.00    +0.000 C 
ATOM     13  N   UNL     1       6.462   3.891  19.331  0.00  0.00    +0.000 N 
ATOM     14  H   UNL     1       7.010   3.185  18.829  0.00  0.00    +0.000 HD
ENDROOT
BRANCH   1  15
ATOM     15  C   UNL     1       1.465   5.184  20.261  0.00  0.00    +0.000 C 
ATOM     16  O   UNL     1       0.272   4.914  20.303  0.00  0.00    +0.000 OA
BRANCH  15  17
ATOM     17  O   UNL     1       2.049   6.394  20.571  0.00  0.00    +0.000 OA
BRANCH  17  23
ATOM     18  C   UNL     1       0.950   8.527  20.209  0.00  0.00    +0.000 A 
ATOM     19  C   UNL     1       0.837   9.711  19.462  0.00  0.00    +0.000 A 
ATOM     20  C   UNL     1       1.552   9.872  18.273  0.00  0.00    +0.000 A 
ATOM     21  C   UNL     1       2.368   8.842  17.810  0.00  0.00    +0.000 A 
ATOM     22  C   UNL     1       2.477   7.656  18.537  0.00  0.00    +0.000 A 
ATOM     23  C   UNL     1       1.773   7.497  19.741  0.00  0.00    +0.000 A 
BRANCH  18  24
ATOM     24  C   UNL     1       0.247   8.520  21.512  0.00  0.00    +0.000 C 
ATOM     25  O   UNL     1      -0.719   7.810  21.741  0.00  0.00    +0.000 OA
BRANCH  24  26
ATOM     26  O   UNL     1       0.683   9.553  22.275  0.00  0.00    +0.000 OA
BRANCH  26  28
ATOM     27  C   UNL     1      -0.874  11.300  22.673  0.00  0.00    +0.000 C 
ATOM     28  C   UNL     1      -0.267  10.028  23.238  0.00  0.00    +0.000 C 
ENDBRANCH  26  28
ENDBRANCH  24  26
ENDBRANCH  18  24
ENDBRANCH  17  23
ENDBRANCH  15  17
ENDBRANCH   1  15
BRANCH  12  29
ATOM     29  C   UNL     1       7.875   5.935  19.164  0.00  0.00    +0.000 C 
ATOM     30  O   UNL     1       8.316   7.002  18.771  0.00  0.00    +0.000 OA
BRANCH  29  31
ATOM     31  OXT UNL     1       8.393   5.253  20.223  0.00  0.00    +0.000 OA
ATOM     32  HXT UNL     1       9.055   5.844  20.660  0.00  0.00    +0.000 HD
ENDBRANCH  29  31
ENDBRANCH  12  29
TORSDOF 8
ENDMDL
MODEL 8
REMARK VINA RESULT:      -7.2      1.614      2.507
REMARK  Name = 
REMARK  9 active torsions:
REMARK  status: ('A' for Active; 'I' for Inactive)
REMARK    1  A    between atoms: C_1  and  C_2
REMARK    2  A    between atoms: C_2  and  O_3
REMARK    3  A    between atoms: O_3  and  C_4
REMARK    4  A    between atoms: C_4  and  C_6
REMARK    5  A    between atoms: C_11  and  O_12
REMARK    6  A    between atoms: O_12  and  C_13
REMARK    7  A    between atoms: C_13  and  C_15
REMARK    8  A    between atoms: CA_26  and  C_27
REMARK    9  A    between atoms: C_27  and  OXT_29
REMARK                            x       y       z     vdW  Elec       q    Type
REMARK                         _______ _______ _______ _____ _____    ______ ____
ROOT
ATOM      1  C   UNL     1       2.467   6.984  18.339  0.00  0.00    +0.000 A 
ATOM      2  C   UNL     1       2.381   6.471  19.647  0.00  0.00    +0.000 A 
ATOM      3  C   UNL     1       3.319   5.546  20.079  0.00  0.00    +0.000 A 
ATOM      4  C   UNL     1       4.296   5.163  19.173  0.00  0.00    +0.000 A 
ATOM      5  C   UNL     1       4.101   5.300  17.786  0.00  0.00    +0.000 A 
ATOM      6  C   UNL     1       3.253   6.329  17.378  0.00  0.00    +0.000 A 
ATOM      7  C   UNL     1       5.023   4.475  16.912  0.00  0.00    +0.000 C 
ATOM      8  C   UNL     1       5.058   4.780  15.455  0.00  0.00    +0.000 C 
ATOM      9  C   UNL     1       6.283   5.110  15.040  0.00  0.00    +0.000 C 
ATOM     10  C   UNL     1       7.284   5.120  16.149  0.00  0.00    +0.000 C 
ATOM     11  C   UNL     1       6.503   4.607  17.368  0.00  0.00    +0.000 C 
ATOM     12  CA  UNL     1       6.550   5.514  18.597  0.00  0.00    +0.000 C 
ATOM     13  N   UNL     1       5.627   4.923  19.653  0.00  0.00    +0.000 N 
ATOM     14  H   UNL     1       5.770   3.910  19.717  0.00  0.00    +0.000 HD
ENDROOT
BRANCH   1  15
ATOM     15  C   UNL     1       2.006   8.378  18.084  0.00  0.00    +0.000 C 
ATOM     16  O   UNL     1       2.238   8.998  17.055  0.00  0.00    +0.000 OA
BRANCH  15  17
ATOM     17  O   UNL     1       1.443   8.879  19.239  0.00  0.00    +0.000 OA
BRANCH  17  23
ATOM     18  C   UNL     1       0.909  10.825  20.586  0.00  0.00    +0.000 A 
ATOM     19  C   UNL     1       0.975  12.216  20.770  0.00  0.00    +0.000 A 
ATOM     20  C   UNL     1       1.460  13.045  19.756  0.00  0.00    +0.000 A 
ATOM     21  C   UNL     1       1.862  12.492  18.541  0.00  0.00    +0.000 A 
ATOM     22  C   UNL     1       1.789  11.113  18.343  0.00  0.00    +0.000 A 
ATOM     23  C   UNL     1       1.317  10.275  19.366  0.00  0.00    +0.000 A 
BRANCH  18  24
ATOM     24  C   UNL     1       0.498  10.038  21.771  0.00  0.00    +0.000 C 
ATOM     25  O   UNL     1       1.231   9.229  22.316  0.00  0.00    +0.000 OA
BRANCH  24  26
ATOM     26  O   UNL     1      -0.834  10.182  21.979  0.00  0.00    +0.000 OA
BRANCH  26  28
ATOM     27  C   UNL     1      -2.167  11.849  23.019  0.00  0.00    +0.000 C 
ATOM     28  C   UNL     1      -1.185  10.716  23.262  0.00  0.00    +0.000 C 
ENDBRANCH  26  28
ENDBRANCH  24  26
ENDBRANCH  18  24
ENDBRANCH  17  23
ENDBRANCH  15  17
ENDBRANCH   1  15
BRANCH  12  29
ATOM     29  C   UNL     1       7.916   5.797  19.210  0.00  0.00    +0.000 C 
ATOM     30  O   UNL     1       8.603   5.001  19.826  0.00  0.00    +0.000 OA
BRANCH  29  31
ATOM     31  OXT UNL     1       8.337   7.048  18.872  0.00  0.00    +0.000 OA
ATOM     32  HXT UNL     1       8.963   6.954  18.113  0.00  0.00    +0.000 HD
ENDBRANCH  29  31
ENDBRANCH  12  29
TORSDOF 8
ENDMDL
MODEL 9
REMARK VINA RESULT:      -7.1      3.407      9.027
REMARK  Name = 
REMARK  9 active torsions:
REMARK  status: ('A' for Active; 'I' for Inactive)
REMARK    1  A    between atoms: C_1  and  C_2
REMARK    2  A    between atoms: C_2  and  O_3
REMARK    3  A    between atoms: O_3  and  C_4
REMARK    4  A    between atoms: C_4  and  C_6
REMARK    5  A    between atoms: C_11  and  O_12
REMARK    6  A    between atoms: O_12  and  C_13
REMARK    7  A    between atoms: C_13  and  C_15
REMARK    8  A    between atoms: CA_26  and  C_27
REMARK    9  A    between atoms: C_27  and  OXT_29
REMARK                            x       y       z     vdW  Elec       q    Type
REMARK                         _______ _______ _______ _____ _____    ______ ____
ROOT
ATOM      1  C   UNL     1       0.823  10.203  19.937  0.00  0.00    +0.000 A 
ATOM      2  C   UNL     1       1.223  11.470  20.403  0.00  0.00    +0.000 A 
ATOM      3  C   UNL     1       0.432  12.576  20.130  0.00  0.00    +0.000 A 
ATOM      4  C   UNL     1      -0.718  12.366  19.387  0.00  0.00    +0.000 A 
ATOM      5  C   UNL     1      -0.854  11.242  18.551  0.00  0.00    +0.000 A 
ATOM      6  C   UNL     1      -0.149  10.100  18.929  0.00  0.00    +0.000 A 
ATOM      7  C   UNL     1      -1.934  11.341  17.493  0.00  0.00    +0.000 C 
ATOM      8  C   UNL     1      -2.314  10.098  16.769  0.00  0.00    +0.000 C 
ATOM      9  C   UNL     1      -3.609   9.809  16.910  0.00  0.00    +0.000 C 
ATOM     10  C   UNL     1      -4.325  10.786  17.784  0.00  0.00    +0.000 C 
ATOM     11  C   UNL     1      -3.271  11.858  18.096  0.00  0.00    +0.000 C 
ATOM     12  CA  UNL     1      -3.053  12.142  19.581  0.00  0.00    +0.000 C 
ATOM     13  N   UNL     1      -1.895  13.122  19.708  0.00  0.00    +0.000 N 
ATOM     14  H   UNL     1      -1.996  13.874  19.019  0.00  0.00    +0.000 HD
ENDROOT
BRANCH   1  15
ATOM     15  C   UNL     1       1.178   8.999  20.740  0.00  0.00    +0.000 C 
ATOM     16  O   UNL     1       1.677   9.044  21.857  0.00  0.00    +0.000 OA
BRANCH  15  17
ATOM     17  O   UNL     1       1.007   7.877  19.958  0.00  0.00    +0.000 OA
BRANCH  17  23
ATOM     18  C   UNL     1       2.520   6.024  19.547  0.00  0.00    +0.000 A 
ATOM     19  C   UNL     1       3.517   5.438  18.749  0.00  0.00    +0.000 A 
ATOM     20  C   UNL     1       4.106   6.157  17.707  0.00  0.00    +0.000 A 
ATOM     21  C   UNL     1       3.720   7.475  17.468  0.00  0.00    +0.000 A 
ATOM     22  C   UNL     1       2.741   8.071  18.263  0.00  0.00    +0.000 A 
ATOM     23  C   UNL     1       2.134   7.346  19.301  0.00  0.00    +0.000 A 
BRANCH  18  24
ATOM     24  C   UNL     1       1.880   5.129  20.537  0.00  0.00    +0.000 C 
ATOM     25  O   UNL     1       2.328   4.951  21.658  0.00  0.00    +0.000 OA
BRANCH  24  26
ATOM     26  O   UNL     1       0.910   4.397  19.935  0.00  0.00    +0.000 OA
BRANCH  26  28
ATOM     27  C   UNL     1       0.893   2.358  18.720  0.00  0.00    +0.000 C 
ATOM     28  C   UNL     1       1.042   2.979  20.098  0.00  0.00    +0.000 C 
ENDBRANCH  26  28
ENDBRANCH  24  26
ENDBRANCH  18  24
ENDBRANCH  17  23
ENDBRANCH  15  17
ENDBRANCH   1  15
BRANCH  12  29
ATOM     29  C   UNL     1      -4.245  12.648  20.382  0.00  0.00    +0.000 C 
ATOM     30  O   UNL     1      -4.603  12.235  21.472  0.00  0.00    +0.000 OA
BRANCH  29  31
ATOM     31  OXT UNL     1      -4.804  13.728  19.769  0.00  0.00    +0.000 OA
ATOM     32  HXT UNL     1      -5.782  13.582  19.745  0.00  0.00    +0.000 HD
ENDBRANCH  29  31
ENDBRANCH  12  29
TORSDOF 8
ENDMDL
