MODEL 1
REMARK VINA RESULT:      -7.6      0.000      0.000
REMARK  Name = 
REMARK  11 active torsions:
REMARK  status: ('A' for Active; 'I' for Inactive)
REMARK    1  A    between atoms: C_1  and  C_2
REMARK    2  A    between atoms: C_2  and  O_3
REMARK    3  A    between atoms: O_3  and  C_4
REMARK    4  A    between atoms: C_4  and  C_6
REMARK    5  A    between atoms: C_6  and  C_7
REMARK    6  A    between atoms: C_7  and  C_8
REMARK    7  A    between atoms: C_8  and  O_9
REMARK    8  A    between atoms: O_9  and  C_10
REMARK    9  A    between atoms: N_18  and  C_19
REMARK   10  A    between atoms: C_19  and  C_20
REMARK   11  A    between atoms: C_24  and  N_25
REMARK                            x       y       z     vdW  Elec       q    Type
REMARK                         _______ _______ _______ _____ _____    ______ ____
ROOT
ATOM      1  C   UNL     1       6.654   5.915  17.966  0.00  0.00    +0.000 C 
ATOM      2  C   UNL     1       5.830   7.145  17.524  0.00  0.00    +0.000 C 
ATOM      3  C   UNL     1       6.619   8.402  17.169  0.00  0.00    +0.000 C 
ATOM      4  N   UNL     1       7.667   8.733  18.150  0.00  0.00    +0.000 NA
ATOM      5  C   UNL     1       8.544   7.572  18.358  0.00  0.00    +0.000 C 
ATOM      6  C   UNL     1       7.719   6.416  18.972  0.00  0.00    +0.000 C 
ENDROOT
BRANCH   1   7
ATOM      7  C   UNL     1       7.443   5.147  16.892  0.00  0.00    +0.000 C 
ATOM      8  O   UNL     1       8.083   4.132  17.162  0.00  0.00    +0.000 OA
BRANCH   7   9
ATOM      9  O   UNL     1       7.311   5.618  15.627  0.00  0.00    +0.000 OA
BRANCH   9  11
ATOM     10  C   UNL     1       5.541   4.361  14.461  0.00  0.00    +0.000 C 
ATOM     11  C   UNL     1       7.037   4.583  14.656  0.00  0.00    +0.000 C 
ENDBRANCH   9  11
ENDBRANCH   7   9
ENDBRANCH   1   7
BRANCH   1  12
ATOM     12  C   UNL     1       5.608   4.926  18.562  0.00  0.00    +0.000 C 
BRANCH  12  13
ATOM     13  C   UNL     1       4.286   4.777  17.813  0.00  0.00    +0.000 C 
BRANCH  13  14
ATOM     14  O   UNL     1       3.799   3.451  18.074  0.00  0.00    +0.000 OA
BRANCH  14  15
ATOM     15  C   UNL     1       2.926   3.352  19.117  0.00  0.00    +0.000 A 
ATOM     16  C   UNL     1       3.428   2.722  20.266  0.00  0.00    +0.000 A 
ATOM     17  C   UNL     1       2.614   2.545  21.386  0.00  0.00    +0.000 A 
ATOM     18  C   UNL     1       1.304   3.018  21.379  0.00  0.00    +0.000 A 
ATOM     19  C   UNL     1       0.813   3.681  20.254  0.00  0.00    +0.000 A 
ATOM     20  C   UNL     1       1.620   3.853  19.130  0.00  0.00    +0.000 A 
ENDBRANCH  14  15
ENDBRANCH  13  14
ENDBRANCH  12  13
ENDBRANCH   1  12
BRANCH   4  21
ATOM     21  C   UNL     1       8.368   9.945  17.664  0.00  0.00    +0.000 C 
BRANCH  21  22
ATOM     22  C   UNL     1       9.267  10.654  18.651  0.00  0.00    +0.000 A 
ATOM     23  C   UNL     1      10.602  10.955  18.356  0.00  0.00    +0.000 A 
ATOM     24  C   UNL     1      11.398  11.621  19.291  0.00  0.00    +0.000 A 
ATOM     25  C   UNL     1      10.872  12.000  20.531  0.00  0.00    +0.000 A 
ATOM     26  C   UNL     1       9.546  11.684  20.851  0.00  0.00    +0.000 A 
ATOM     27  C   UNL     1       8.759  10.998  19.915  0.00  0.00    +0.000 A 
BRANCH  26  28
ATOM     28  N   UNL     1       8.974  12.050  22.101  0.00  0.00    +0.000 N 
ATOM     29  C   UNL     1       8.982  13.287  22.714  0.00  0.00    +0.000 A 
ATOM     30  C   UNL     1       8.299  13.159  23.899  0.00  0.00    +0.000 A 
ATOM     31  C   UNL     1       7.912  11.814  23.938  0.00  0.00    +0.000 A 
ATOM     32  N   UNL     1       8.298  11.140  22.855  0.00  0.00    +0.000 NA
ENDBRANCH  26  28
ENDBRANCH  21  22
ENDBRANCH   4  21
TORSDOF 10
ENDMDL
MODEL 2
REMARK VINA RESULT:      -7.4      2.150      2.739
REMARK  Name = 
REMARK  11 active torsions:
REMARK  status: ('A' for Active; 'I' for Inactive)
REMARK    1  A    between atoms: C_1  and  C_2
REMARK    2  A    between atoms: C_2  and  O_3
REMARK    3  A    between atoms: O_3  and  C_4
REMARK    4  A    between atoms: C_4  and  C_6
REMARK    5  A    between atoms: C_6  and  C_7
REMARK    6  A    between atoms: C_7  and  C_8
REMARK    7  A    between atoms: C_8  and  O_9
REMARK    8  A    between atoms: O_9  and  C_10
REMARK    9  A    between atoms: N_18  and  C_19
REMARK   10  A    between atoms: C_19  and  C_20
REMARK   11  A    between atoms: C_24  and  N_25
REMARK                            x       y       z     vdW  Elec       q    Type
REMARK                         _______ _______ _______ _____ _____    ______ ____
ROOT
ATOM      1  C   UNL     1       6.623   5.776  17.964  0.00  0.00    +0.000 C 
ATOM      2  C   UNL     1       6.033   7.021  17.264  0.00  0.00    +0.000 C 
ATOM      3  C   UNL     1       7.000   8.166  16.981  0.00  0.00    +0.000 C 
ATOM      4  N   UNL     1       7.862   8.503  18.127  0.00  0.00    +0.000 NA
ATOM      5  C   UNL     1       8.557   7.299  18.603  0.00  0.00    +0.000 C 
ATOM      6  C   UNL     1       7.513   6.283  19.124  0.00  0.00    +0.000 C 
ENDROOT
BRANCH   1   7
ATOM      7  C   UNL     1       7.526   4.842  17.140  0.00  0.00    +0.000 C 
ATOM      8  O   UNL     1       8.238   3.993  17.675  0.00  0.00    +0.000 OA
BRANCH   7   9
ATOM      9  O   UNL     1       7.415   4.965  15.794  0.00  0.00    +0.000 OA
BRANCH   9  11
ATOM     10  C   UNL     1       5.392   4.456  14.481  0.00  0.00    +0.000 C 
ATOM     11  C   UNL     1       6.631   3.914  15.186  0.00  0.00    +0.000 C 
ENDBRANCH   9  11
ENDBRANCH   7   9
ENDBRANCH   1   7
BRANCH   1  12
ATOM     12  C   UNL     1       5.385   4.942  18.408  0.00  0.00    +0.000 C 
BRANCH  12  13
ATOM     13  C   UNL     1       4.030   5.347  17.832  0.00  0.00    +0.000 C 
BRANCH  13  14
ATOM     14  O   UNL     1       3.203   5.747  18.936  0.00  0.00    +0.000 OA
BRANCH  14  15
ATOM     15  C   UNL     1       2.469   4.746  19.500  0.00  0.00    +0.000 A 
ATOM     16  C   UNL     1       1.813   3.897  18.596  0.00  0.00    +0.000 A 
ATOM     17  C   UNL     1       1.013   2.851  19.064  0.00  0.00    +0.000 A 
ATOM     18  C   UNL     1       0.886   2.628  20.433  0.00  0.00    +0.000 A 
ATOM     19  C   UNL     1       1.569   3.445  21.334  0.00  0.00    +0.000 A 
ATOM     20  C   UNL     1       2.362   4.496  20.872  0.00  0.00    +0.000 A 
ENDBRANCH  14  15
ENDBRANCH  13  14
ENDBRANCH  12  13
ENDBRANCH   1  12
BRANCH   4  21
ATOM     21  C   UNL     1       8.766   9.598  17.700  0.00  0.00    +0.000 C 
BRANCH  21  22
ATOM     22  C   UNL     1       9.019  10.702  18.702  0.00  0.00    +0.000 A 
ATOM     23  C   UNL     1       9.323  10.432  20.042  0.00  0.00    +0.000 A 
ATOM     24  C   UNL     1       9.561  11.480  20.935  0.00  0.00    +0.000 A 
ATOM     25  C   UNL     1       9.502  12.809  20.504  0.00  0.00    +0.000 A 
ATOM     26  C   UNL     1       9.173  13.096  19.174  0.00  0.00    +0.000 A 
ATOM     27  C   UNL     1       8.917  12.040  18.287  0.00  0.00    +0.000 A 
BRANCH  26  28
ATOM     28  N   UNL     1       9.101  14.434  18.695  0.00  0.00    +0.000 N 
ATOM     29  C   UNL     1       7.978  15.215  18.510  0.00  0.00    +0.000 A 
ATOM     30  C   UNL     1       8.403  16.435  18.039  0.00  0.00    +0.000 A 
ATOM     31  C   UNL     1       9.796  16.314  17.960  0.00  0.00    +0.000 A 
ATOM     32  N   UNL     1      10.229  15.121  18.366  0.00  0.00    +0.000 NA
ENDBRANCH  26  28
ENDBRANCH  21  22
ENDBRANCH   4  21
TORSDOF 10
ENDMDL
MODEL 3
REMARK VINA RESULT:      -7.2      5.510      7.942
REMARK  Name = 
REMARK  11 active torsions:
REMARK  status: ('A' for Active; 'I' for Inactive)
REMARK    1  A    between atoms: C_1  and  C_2
REMARK    2  A    between atoms: C_2  and  O_3
REMARK    3  A    between atoms: O_3  and  C_4
REMARK    4  A    between atoms: C_4  and  C_6
REMARK    5  A    between atoms: C_6  and  C_7
REMARK    6  A    between atoms: C_7  and  C_8
REMARK    7  A    between atoms: C_8  and  O_9
REMARK    8  A    between atoms: O_9  and  C_10
REMARK    9  A    between atoms: N_18  and  C_19
REMARK   10  A    between atoms: C_19  and  C_20
REMARK   11  A    between atoms: C_24  and  N_25
REMARK                            x       y       z     vdW  Elec       q    Type
REMARK                         _______ _______ _______ _____ _____    ______ ____
ROOT
ATOM      1  C   UNL     1       3.159   6.035  18.175  0.00  0.00    +0.000 C 
ATOM      2  C   UNL     1       2.685   7.231  17.319  0.00  0.00    +0.000 C 
ATOM      3  C   UNL     1       2.465   8.550  18.052  0.00  0.00    +0.000 C 
ATOM      4  N   UNL     1       1.709   8.405  19.308  0.00  0.00    +0.000 NA
ATOM      5  C   UNL     1       2.348   7.396  20.165  0.00  0.00    +0.000 C 
ATOM      6  C   UNL     1       2.294   6.021  19.459  0.00  0.00    +0.000 C 
ENDROOT
BRANCH   1   7
ATOM      7  C   UNL     1       4.616   6.031  18.670  0.00  0.00    +0.000 C 
ATOM      8  O   UNL     1       4.938   5.487  19.725  0.00  0.00    +0.000 OA
BRANCH   7   9
ATOM      9  O   UNL     1       5.517   6.589  17.825  0.00  0.00    +0.000 OA
BRANCH   9  11
ATOM     10  C   UNL     1       7.826   7.444  17.942  0.00  0.00    +0.000 C 
ATOM     11  C   UNL     1       6.887   6.261  18.151  0.00  0.00    +0.000 C 
ENDBRANCH   9  11
ENDBRANCH   7   9
ENDBRANCH   1   7
BRANCH   1  12
ATOM     12  C   UNL     1       2.983   4.790  17.256  0.00  0.00    +0.000 C 
BRANCH  12  13
ATOM     13  C   UNL     1       3.982   3.649  17.431  0.00  0.00    +0.000 C 
BRANCH  13  14
ATOM     14  O   UNL     1       3.236   2.493  17.845  0.00  0.00    +0.000 OA
BRANCH  14  15
ATOM     15  C   UNL     1       2.700   2.570  19.097  0.00  0.00    +0.000 A 
ATOM     16  C   UNL     1       1.298   2.605  19.150  0.00  0.00    +0.000 A 
ATOM     17  C   UNL     1       0.642   2.707  20.379  0.00  0.00    +0.000 A 
ATOM     18  C   UNL     1       1.376   2.747  21.562  0.00  0.00    +0.000 A 
ATOM     19  C   UNL     1       2.768   2.672  21.516  0.00  0.00    +0.000 A 
ATOM     20  C   UNL     1       3.428   2.577  20.290  0.00  0.00    +0.000 A 
ENDBRANCH  14  15
ENDBRANCH  13  14
ENDBRANCH  12  13
ENDBRANCH   1  12
BRANCH   4  21
ATOM     21  C   UNL     1       1.603   9.748  19.924  0.00  0.00    +0.000 C 
BRANCH  21  22
ATOM     22  C   UNL     1       0.264  10.443  19.816  0.00  0.00    +0.000 A 
ATOM     23  C   UNL     1      -0.241  11.243  20.848  0.00  0.00    +0.000 A 
ATOM     24  C   UNL     1      -1.478  11.878  20.706  0.00  0.00    +0.000 A 
ATOM     25  C   UNL     1      -2.224  11.726  19.533  0.00  0.00    +0.000 A 
ATOM     26  C   UNL     1      -1.745  10.909  18.503  0.00  0.00    +0.000 A 
ATOM     27  C   UNL     1      -0.512  10.260  18.660  0.00  0.00    +0.000 A 
BRANCH  26  28
ATOM     28  N   UNL     1      -2.473  10.727  17.294  0.00  0.00    +0.000 N 
ATOM     29  C   UNL     1      -2.201   9.859  16.256  0.00  0.00    +0.000 A 
ATOM     30  C   UNL     1      -3.184  10.033  15.311  0.00  0.00    +0.000 A 
ATOM     31  C   UNL     1      -4.011  11.028  15.844  0.00  0.00    +0.000 A 
ATOM     32  N   UNL     1      -3.603  11.443  17.043  0.00  0.00    +0.000 NA
ENDBRANCH  26  28
ENDBRANCH  21  22
ENDBRANCH   4  21
TORSDOF 10
ENDMDL
MODEL 4
REMARK VINA RESULT:      -7.2      4.133      7.463
REMARK  Name = 
REMARK  11 active torsions:
REMARK  status: ('A' for Active; 'I' for Inactive)
REMARK    1  A    between atoms: C_1  and  C_2
REMARK    2  A    between atoms: C_2  and  O_3
REMARK    3  A    between atoms: O_3  and  C_4
REMARK    4  A    between atoms: C_4  and  C_6
REMARK    5  A    between atoms: C_6  and  C_7
REMARK    6  A    between atoms: C_7  and  C_8
REMARK    7  A    between atoms: C_8  and  O_9
REMARK    8  A    between atoms: O_9  and  C_10
REMARK    9  A    between atoms: N_18  and  C_19
REMARK   10  A    between atoms: C_19  and  C_20
REMARK   11  A    between atoms: C_24  and  N_25
REMARK                            x       y       z     vdW  Elec       q    Type
REMARK                         _______ _______ _______ _____ _____    ______ ____
ROOT
ATOM      1  C   UNL     1       5.464   4.797  16.663  0.00  0.00    +0.000 C 
ATOM      2  C   UNL     1       3.965   4.424  16.613  0.00  0.00    +0.000 C 
ATOM      3  C   UNL     1       3.080   5.010  17.709  0.00  0.00    +0.000 C 
ATOM      4  N   UNL     1       3.659   4.889  19.058  0.00  0.00    +0.000 NA
ATOM      5  C   UNL     1       5.012   5.462  19.077  0.00  0.00    +0.000 C 
ATOM      6  C   UNL     1       5.924   4.642  18.134  0.00  0.00    +0.000 C 
ENDROOT
BRANCH   1   7
ATOM      7  C   UNL     1       5.869   6.226  16.262  0.00  0.00    +0.000 C 
ATOM      8  O   UNL     1       5.141   6.933  15.566  0.00  0.00    +0.000 OA
BRANCH   7   9
ATOM      9  O   UNL     1       7.030   6.673  16.800  0.00  0.00    +0.000 OA
BRANCH   9  11
ATOM     10  C   UNL     1       8.248   8.472  17.965  0.00  0.00    +0.000 C 
ATOM     11  C   UNL     1       6.932   8.007  17.348  0.00  0.00    +0.000 C 
ENDBRANCH   9  11
ENDBRANCH   7   9
ENDBRANCH   1   7
BRANCH   1  12
ATOM     12  C   UNL     1       6.152   3.826  15.659  0.00  0.00    +0.000 C 
BRANCH  12  13
ATOM     13  C   UNL     1       7.165   4.430  14.690  0.00  0.00    +0.000 C 
BRANCH  13  14
ATOM     14  O   UNL     1       6.469   4.702  13.463  0.00  0.00    +0.000 OA
BRANCH  14  15
ATOM     15  C   UNL     1       6.418   3.659  12.585  0.00  0.00    +0.000 A 
ATOM     16  C   UNL     1       5.129   3.221  12.245  0.00  0.00    +0.000 A 
ATOM     17  C   UNL     1       4.957   2.144  11.372  0.00  0.00    +0.000 A 
ATOM     18  C   UNL     1       6.067   1.516  10.812  0.00  0.00    +0.000 A 
ATOM     19  C   UNL     1       7.349   1.974  11.116  0.00  0.00    +0.000 A 
ATOM     20  C   UNL     1       7.526   3.044  11.994  0.00  0.00    +0.000 A 
ENDBRANCH  14  15
ENDBRANCH  13  14
ENDBRANCH  12  13
ENDBRANCH   1  12
BRANCH   4  21
ATOM     21  C   UNL     1       2.716   5.524  20.008  0.00  0.00    +0.000 C 
BRANCH  21  22
ATOM     22  C   UNL     1       2.233   6.915  19.662  0.00  0.00    +0.000 A 
ATOM     23  C   UNL     1       2.487   7.499  18.416  0.00  0.00    +0.000 A 
ATOM     24  C   UNL     1       2.015   8.783  18.130  0.00  0.00    +0.000 A 
ATOM     25  C   UNL     1       1.281   9.498  19.082  0.00  0.00    +0.000 A 
ATOM     26  C   UNL     1       1.041   8.938  20.342  0.00  0.00    +0.000 A 
ATOM     27  C   UNL     1       1.534   7.657  20.629  0.00  0.00    +0.000 A 
BRANCH  26  28
ATOM     28  N   UNL     1       0.300   9.633  21.338  0.00  0.00    +0.000 N 
ATOM     29  C   UNL     1      -0.050   9.197  22.601  0.00  0.00    +0.000 A 
ATOM     30  C   UNL     1      -0.754  10.212  23.202  0.00  0.00    +0.000 A 
ATOM     31  C   UNL     1      -0.797  11.228  22.239  0.00  0.00    +0.000 A 
ATOM     32  N   UNL     1      -0.153  10.897  21.120  0.00  0.00    +0.000 NA
ENDBRANCH  26  28
ENDBRANCH  21  22
ENDBRANCH   4  21
TORSDOF 10
ENDMDL
MODEL 5
REMARK VINA RESULT:      -7.2      6.735      9.956
REMARK  Name = 
REMARK  11 active torsions:
REMARK  status: ('A' for Active; 'I' for Inactive)
REMARK    1  A    between atoms: C_1  and  C_2
REMARK    2  A    between atoms: C_2  and  O_3
REMARK    3  A    between atoms: O_3  and  C_4
REMARK    4  A    between atoms: C_4  and  C_6
REMARK    5  A    between atoms: C_6  and  C_7
REMARK    6  A    between atoms: C_7  and  C_8
REMARK    7  A    between atoms: C_8  and  O_9
REMARK    8  A    between atoms: O_9  and  C_10
REMARK    9  A    between atoms: N_18  and  C_19
REMARK   10  A    between atoms: C_19  and  C_20
REMARK   11  A    between atoms: C_24  and  N_25
REMARK                            x       y       z     vdW  Elec       q    Type
REMARK                         _______ _______ _______ _____ _____    ______ ____
ROOT
ATOM      1  C   UNL     1      -0.170  11.116  20.629  0.00  0.00    +0.000 C 
ATOM      2  C   UNL     1      -0.188  10.306  21.946  0.00  0.00    +0.000 C 
ATOM      3  C   UNL     1       0.857   9.204  22.084  0.00  0.00    +0.000 C 
ATOM      4  N   UNL     1       0.975   8.354  20.886  0.00  0.00    +0.000 NA
ATOM      5  C   UNL     1       1.206   9.188  19.699  0.00  0.00    +0.000 C 
ATOM      6  C   UNL     1      -0.024  10.098  19.471  0.00  0.00    +0.000 C 
ENDROOT
BRANCH   1   7
ATOM      7  C   UNL     1       0.966  12.132  20.420  0.00  0.00    +0.000 C 
ATOM      8  O   UNL     1       1.672  12.512  21.353  0.00  0.00    +0.000 OA
BRANCH   7   9
ATOM      9  O   UNL     1       1.183  12.504  19.135  0.00  0.00    +0.000 OA
BRANCH   9  11
ATOM     10  C   UNL     1       2.473  14.491  18.455  0.00  0.00    +0.000 C 
ATOM     11  C   UNL     1       2.508  13.035  18.908  0.00  0.00    +0.000 C 
ENDBRANCH   9  11
ENDBRANCH   7   9
ENDBRANCH   1   7
BRANCH   1  12
ATOM     12  C   UNL     1      -1.506  11.914  20.631  0.00  0.00    +0.000 C 
BRANCH  12  13
ATOM     13  C   UNL     1      -2.027  12.404  19.282  0.00  0.00    +0.000 C 
BRANCH  13  14
ATOM     14  O   UNL     1      -3.206  11.642  18.981  0.00  0.00    +0.000 OA
BRANCH  14  15
ATOM     15  C   UNL     1      -3.277  11.169  17.703  0.00  0.00    +0.000 A 
ATOM     16  C   UNL     1      -2.332  10.186  17.372  0.00  0.00    +0.000 A 
ATOM     17  C   UNL     1      -2.297   9.648  16.083  0.00  0.00    +0.000 A 
ATOM     18  C   UNL     1      -3.220  10.066  15.127  0.00  0.00    +0.000 A 
ATOM     19  C   UNL     1      -4.186  11.014  15.464  0.00  0.00    +0.000 A 
ATOM     20  C   UNL     1      -4.220  11.560  16.747  0.00  0.00    +0.000 A 
ENDBRANCH  14  15
ENDBRANCH  13  14
ENDBRANCH  12  13
ENDBRANCH   1  12
BRANCH   4  21
ATOM     21  C   UNL     1       2.042   7.359  21.147  0.00  0.00    +0.000 C 
BRANCH  21  22
ATOM     22  C   UNL     1       2.090   6.155  20.233  0.00  0.00    +0.000 A 
ATOM     23  C   UNL     1       1.245   5.053  20.413  0.00  0.00    +0.000 A 
ATOM     24  C   UNL     1       1.313   3.964  19.540  0.00  0.00    +0.000 A 
ATOM     25  C   UNL     1       2.220   3.961  18.476  0.00  0.00    +0.000 A 
ATOM     26  C   UNL     1       3.089   5.044  18.298  0.00  0.00    +0.000 A 
ATOM     27  C   UNL     1       3.029   6.125  19.189  0.00  0.00    +0.000 A 
BRANCH  26  28
ATOM     28  N   UNL     1       4.027   5.081  17.229  0.00  0.00    +0.000 N 
ATOM     29  C   UNL     1       4.680   6.177  16.703  0.00  0.00    +0.000 A 
ATOM     30  C   UNL     1       5.491   5.722  15.691  0.00  0.00    +0.000 A 
ATOM     31  C   UNL     1       5.270   4.340  15.659  0.00  0.00    +0.000 A 
ATOM     32  N   UNL     1       4.403   3.940  16.589  0.00  0.00    +0.000 NA
ENDBRANCH  26  28
ENDBRANCH  21  22
ENDBRANCH   4  21
TORSDOF 10
ENDMDL
MODEL 6
REMARK VINA RESULT:      -7.1      5.171      8.709
REMARK  Name = 
REMARK  11 active torsions:
REMARK  status: ('A' for Active; 'I' for Inactive)
REMARK    1  A    between atoms: C_1  and  C_2
REMARK    2  A    between atoms: C_2  and  O_3
REMARK    3  A    between atoms: O_3  and  C_4
REMARK    4  A    between atoms: C_4  and  C_6
REMARK    5  A    between atoms: C_6  and  C_7
REMARK    6  A    between atoms: C_7  and  C_8
REMARK    7  A    between atoms: C_8  and  O_9
REMARK    8  A    between atoms: O_9  and  C_10
REMARK    9  A    between atoms: N_18  and  C_19
REMARK   10  A    between atoms: C_19  and  C_20
REMARK   11  A    between atoms: C_24  and  N_25
REMARK                            x       y       z     vdW  Elec       q    Type
REMARK                         _______ _______ _______ _____ _____    ______ ____
ROOT
ATOM      1  C   UNL     1       3.765   5.342  17.875  0.00  0.00    +0.000 C 
ATOM      2  C   UNL     1       4.514   6.490  17.161  0.00  0.00    +0.000 C 
ATOM      3  C   UNL     1       4.127   7.910  17.563  0.00  0.00    +0.000 C 
ATOM      4  N   UNL     1       2.671   8.125  17.628  0.00  0.00    +0.000 NA
ATOM      5  C   UNL     1       2.054   7.117  18.501  0.00  0.00    +0.000 C 
ATOM      6  C   UNL     1       2.262   5.714  17.883  0.00  0.00    +0.000 C 
ENDROOT
BRANCH   1   7
ATOM      7  C   UNL     1       4.117   5.050  19.344  0.00  0.00    +0.000 C 
ATOM      8  O   UNL     1       5.220   5.331  19.812  0.00  0.00    +0.000 OA
BRANCH   7   9
ATOM      9  O   UNL     1       3.106   4.549  20.094  0.00  0.00    +0.000 OA
BRANCH   9  11
ATOM     10  C   UNL     1       2.570   2.678  21.607  0.00  0.00    +0.000 C 
ATOM     11  C   UNL     1       3.187   3.118  20.283  0.00  0.00    +0.000 C 
ENDBRANCH   9  11
ENDBRANCH   7   9
ENDBRANCH   1   7
BRANCH   1  12
ATOM     12  C   UNL     1       4.117   4.065  17.056  0.00  0.00    +0.000 C 
BRANCH  12  13
ATOM     13  C   UNL     1       5.559   3.921  16.576  0.00  0.00    +0.000 C 
BRANCH  13  14
ATOM     14  O   UNL     1       5.516   3.279  15.292  0.00  0.00    +0.000 OA
BRANCH  14  15
ATOM     15  C   UNL     1       6.250   3.888  14.317  0.00  0.00    +0.000 A 
ATOM     16  C   UNL     1       6.050   3.398  13.018  0.00  0.00    +0.000 A 
ATOM     17  C   UNL     1       6.767   3.932  11.944  0.00  0.00    +0.000 A 
ATOM     18  C   UNL     1       7.666   4.975  12.156  0.00  0.00    +0.000 A 
ATOM     19  C   UNL     1       7.838   5.492  13.440  0.00  0.00    +0.000 A 
ATOM     20  C   UNL     1       7.130   4.956  14.516  0.00  0.00    +0.000 A 
ENDBRANCH  14  15
ENDBRANCH  13  14
ENDBRANCH  12  13
ENDBRANCH   1  12
BRANCH   4  21
ATOM     21  C   UNL     1       2.444   9.524  18.059  0.00  0.00    +0.000 C 
BRANCH  21  22
ATOM     22  C   UNL     1       1.096   9.840  18.666  0.00  0.00    +0.000 A 
ATOM     23  C   UNL     1       0.907   9.924  20.051  0.00  0.00    +0.000 A 
ATOM     24  C   UNL     1      -0.352  10.229  20.574  0.00  0.00    +0.000 A 
ATOM     25  C   UNL     1      -1.439  10.457  19.723  0.00  0.00    +0.000 A 
ATOM     26  C   UNL     1      -1.272  10.351  18.337  0.00  0.00    +0.000 A 
ATOM     27  C   UNL     1      -0.010  10.026  17.820  0.00  0.00    +0.000 A 
BRANCH  26  28
ATOM     28  N   UNL     1      -2.352  10.574  17.437  0.00  0.00    +0.000 N 
ATOM     29  C   UNL     1      -2.531  10.049  16.172  0.00  0.00    +0.000 A 
ATOM     30  C   UNL     1      -3.720  10.542  15.692  0.00  0.00    +0.000 A 
ATOM     31  C   UNL     1      -4.201  11.363  16.719  0.00  0.00    +0.000 A 
ATOM     32  N   UNL     1      -3.395  11.378  17.780  0.00  0.00    +0.000 NA
ENDBRANCH  26  28
ENDBRANCH  21  22
ENDBRANCH   4  21
TORSDOF 10
ENDMDL
MODEL 7
REMARK VINA RESULT:      -7.1      5.092      6.695
REMARK  Name = 
REMARK  11 active torsions:
REMARK  status: ('A' for Active; 'I' for Inactive)
REMARK    1  A    between atoms: C_1  and  C_2
REMARK    2  A    between atoms: C_2  and  O_3
REMARK    3  A    between atoms: O_3  and  C_4
REMARK    4  A    between atoms: C_4  and  C_6
REMARK    5  A    between atoms: C_6  and  C_7
REMARK    6  A    between atoms: C_7  and  C_8
REMARK    7  A    between atoms: C_8  and  O_9
REMARK    8  A    between atoms: O_9  and  C_10
REMARK    9  A    between atoms: N_18  and  C_19
REMARK   10  A    between atoms: C_19  and  C_20
REMARK   11  A    between atoms: C_24  and  N_25
REMARK                            x       y       z     vdW  Elec       q    Type
REMARK                         _______ _______ _______ _____ _____    ______ ____
ROOT
ATOM      1  C   UNL     1       3.466   5.866  18.022  0.00  0.00    +0.000 C 
ATOM      2  C   UNL     1       3.098   7.027  17.070  0.00  0.00    +0.000 C 
ATOM      3  C   UNL     1       2.780   8.369  17.722  0.00  0.00    +0.000 C 
ATOM      4  N   UNL     1       1.870   8.260  18.875  0.00  0.00    +0.000 NA
ATOM      5  C   UNL     1       2.399   7.288  19.842  0.00  0.00    +0.000 C 
ATOM      6  C   UNL     1       2.443   5.889  19.184  0.00  0.00    +0.000 C 
ENDROOT
BRANCH   1   7
ATOM      7  C   UNL     1       4.847   5.894  18.699  0.00  0.00    +0.000 C 
ATOM      8  O   UNL     1       5.024   5.430  19.825  0.00  0.00    +0.000 OA
BRANCH   7   9
ATOM      9  O   UNL     1       5.857   6.383  17.938  0.00  0.00    +0.000 OA
BRANCH   9  11
ATOM     10  C   UNL     1       7.612   4.670  17.684  0.00  0.00    +0.000 C 
ATOM     11  C   UNL     1       7.166   5.953  18.378  0.00  0.00    +0.000 C 
ENDBRANCH   9  11
ENDBRANCH   7   9
ENDBRANCH   1   7
BRANCH   1  12
ATOM     12  C   UNL     1       3.416   4.589  17.133  0.00  0.00    +0.000 C 
BRANCH  12  13
ATOM     13  C   UNL     1       4.307   3.419  17.544  0.00  0.00    +0.000 C 
BRANCH  13  14
ATOM     14  O   UNL     1       3.440   2.331  17.902  0.00  0.00    +0.000 OA
BRANCH  14  15
ATOM     15  C   UNL     1       2.805   2.470  19.102  0.00  0.00    +0.000 A 
ATOM     16  C   UNL     1       1.405   2.532  19.038  0.00  0.00    +0.000 A 
ATOM     17  C   UNL     1       0.653   2.697  20.204  0.00  0.00    +0.000 A 
ATOM     18  C   UNL     1       1.290   2.772  21.441  0.00  0.00    +0.000 A 
ATOM     19  C   UNL     1       2.679   2.670  21.512  0.00  0.00    +0.000 A 
ATOM     20  C   UNL     1       3.435   2.513  20.350  0.00  0.00    +0.000 A 
ENDBRANCH  14  15
ENDBRANCH  13  14
ENDBRANCH  12  13
ENDBRANCH   1  12
BRANCH   4  21
ATOM     21  C   UNL     1       1.678   9.622  19.425  0.00  0.00    +0.000 C 
BRANCH  21  22
ATOM     22  C   UNL     1       0.800   9.746  20.650  0.00  0.00    +0.000 A 
ATOM     23  C   UNL     1       0.374   8.625  21.373  0.00  0.00    +0.000 A 
ATOM     24  C   UNL     1      -0.428   8.781  22.506  0.00  0.00    +0.000 A 
ATOM     25  C   UNL     1      -0.813  10.056  22.934  0.00  0.00    +0.000 A 
ATOM     26  C   UNL     1      -0.418  11.184  22.207  0.00  0.00    +0.000 A 
ATOM     27  C   UNL     1       0.372  11.019  21.060  0.00  0.00    +0.000 A 
BRANCH  26  28
ATOM     28  N   UNL     1      -0.788  12.498  22.608  0.00  0.00    +0.000 N 
ATOM     29  C   UNL     1      -1.976  12.913  23.176  0.00  0.00    +0.000 A 
ATOM     30  C   UNL     1      -1.871  14.266  23.397  0.00  0.00    +0.000 A 
ATOM     31  C   UNL     1      -0.594  14.600  22.931  0.00  0.00    +0.000 A 
ATOM     32  N   UNL     1       0.073  13.543  22.468  0.00  0.00    +0.000 NA
ENDBRANCH  26  28
ENDBRANCH  21  22
ENDBRANCH   4  21
TORSDOF 10
ENDMDL
MODEL 8
REMARK VINA RESULT:      -7.1      4.528      7.483
REMARK  Name = 
REMARK  11 active torsions:
REMARK  status: ('A' for Active; 'I' for Inactive)
REMARK    1  A    between atoms: C_1  and  C_2
REMARK    2  A    between atoms: C_2  and  O_3
REMARK    3  A    between atoms: O_3  and  C_4
REMARK    4  A    between atoms: C_4  and  C_6
REMARK    5  A    between atoms: C_6  and  C_7
REMARK    6  A    between atoms: C_7  and  C_8
REMARK    7  A    between atoms: C_8  and  O_9
REMARK    8  A    between atoms: O_9  and  C_10
REMARK    9  A    between atoms: N_18  and  C_19
REMARK   10  A    between atoms: C_19  and  C_20
REMARK   11  A    between atoms: C_24  and  N_25
REMARK                            x       y       z     vdW  Elec       q    Type
REMARK                         _______ _______ _______ _____ _____    ______ ____
ROOT
ATOM      1  C   UNL     1       5.712   4.537  16.692  0.00  0.00    +0.000 C 
ATOM      2  C   UNL     1       5.051   5.921  16.499  0.00  0.00    +0.000 C 
ATOM      3  C   UNL     1       4.377   6.532  17.723  0.00  0.00    +0.000 C 
ATOM      4  N   UNL     1       3.521   5.583  18.457  0.00  0.00    +0.000 NA
ATOM      5  C   UNL     1       4.287   4.374  18.793  0.00  0.00    +0.000 C 
ATOM      6  C   UNL     1       4.712   3.662  17.487  0.00  0.00    +0.000 C 
ENDROOT
BRANCH   1   7
ATOM      7  C   UNL     1       7.029   4.467  17.484  0.00  0.00    +0.000 C 
ATOM      8  O   UNL     1       8.118   4.372  16.920  0.00  0.00    +0.000 OA
BRANCH   7   9
ATOM      9  O   UNL     1       6.906   4.605  18.827  0.00  0.00    +0.000 OA
BRANCH   9  11
ATOM     10  C   UNL     1       7.934   6.765  18.234  0.00  0.00    +0.000 C 
ATOM     11  C   UNL     1       7.551   5.792  19.343  0.00  0.00    +0.000 C 
ENDBRANCH   9  11
ENDBRANCH   7   9
ENDBRANCH   1   7
BRANCH   1  12
ATOM     12  C   UNL     1       6.016   4.034  15.250  0.00  0.00    +0.000 C 
BRANCH  12  13
ATOM     13  C   UNL     1       6.043   5.081  14.139  0.00  0.00    +0.000 C 
BRANCH  13  14
ATOM     14  O   UNL     1       7.014   4.648  13.173  0.00  0.00    +0.000 OA
BRANCH  14  15
ATOM     15  C   UNL     1       6.626   3.596  12.396  0.00  0.00    +0.000 A 
ATOM     16  C   UNL     1       5.251   3.520  12.128  0.00  0.00    +0.000 A 
ATOM     17  C   UNL     1       4.738   2.470  11.362  0.00  0.00    +0.000 A 
ATOM     18  C   UNL     1       5.596   1.506  10.837  0.00  0.00    +0.000 A 
ATOM     19  C   UNL     1       6.968   1.600  11.068  0.00  0.00    +0.000 A 
ATOM     20  C   UNL     1       7.483   2.642  11.838  0.00  0.00    +0.000 A 
ENDBRANCH  14  15
ENDBRANCH  13  14
ENDBRANCH  12  13
ENDBRANCH   1  12
BRANCH   4  21
ATOM     21  C   UNL     1       2.964   6.296  19.630  0.00  0.00    +0.000 C 
BRANCH  21  22
ATOM     22  C   UNL     1       2.181   7.559  19.351  0.00  0.00    +0.000 A 
ATOM     23  C   UNL     1       2.140   8.140  18.078  0.00  0.00    +0.000 A 
ATOM     24  C   UNL     1       1.396   9.302  17.857  0.00  0.00    +0.000 A 
ATOM     25  C   UNL     1       0.681   9.897  18.901  0.00  0.00    +0.000 A 
ATOM     26  C   UNL     1       0.732   9.343  20.186  0.00  0.00    +0.000 A 
ATOM     27  C   UNL     1       1.496   8.188  20.404  0.00  0.00    +0.000 A 
BRANCH  26  28
ATOM     28  N   UNL     1       0.020   9.917  21.275  0.00  0.00    +0.000 N 
ATOM     29  C   UNL     1      -0.208   9.377  22.525  0.00  0.00    +0.000 A 
ATOM     30  C   UNL     1      -0.933  10.299  23.241  0.00  0.00    +0.000 A 
ATOM     31  C   UNL     1      -1.112  11.369  22.356  0.00  0.00    +0.000 A 
ATOM     32  N   UNL     1      -0.530  11.158  21.176  0.00  0.00    +0.000 NA
ENDBRANCH  26  28
ENDBRANCH  21  22
ENDBRANCH   4  21
TORSDOF 10
ENDMDL
MODEL 9
REMARK VINA RESULT:      -7.1      5.473      8.498
REMARK  Name = 
REMARK  11 active torsions:
REMARK  status: ('A' for Active; 'I' for Inactive)
REMARK    1  A    between atoms: C_1  and  C_2
REMARK    2  A    between atoms: C_2  and  O_3
REMARK    3  A    between atoms: O_3  and  C_4
REMARK    4  A    between atoms: C_4  and  C_6
REMARK    5  A    between atoms: C_6  and  C_7
REMARK    6  A    between atoms: C_7  and  C_8
REMARK    7  A    between atoms: C_8  and  O_9
REMARK    8  A    between atoms: O_9  and  C_10
REMARK    9  A    between atoms: N_18  and  C_19
REMARK   10  A    between atoms: C_19  and  C_20
REMARK   11  A    between atoms: C_24  and  N_25
REMARK                            x       y       z     vdW  Elec       q    Type
REMARK                         _______ _______ _______ _____ _____    ______ ____
ROOT
ATOM      1  C   UNL     1       2.753   5.465  18.421  0.00  0.00    +0.000 C 
ATOM      2  C   UNL     1       3.042   5.830  19.894  0.00  0.00    +0.000 C 
ATOM      3  C   UNL     1       2.125   6.867  20.533  0.00  0.00    +0.000 C 
ATOM      4  N   UNL     1       1.891   8.047  19.683  0.00  0.00    +0.000 NA
ATOM      5  C   UNL     1       1.411   7.625  18.360  0.00  0.00    +0.000 C 
ATOM      6  C   UNL     1       2.512   6.792  17.661  0.00  0.00    +0.000 C 
ENDROOT
BRANCH   1   7
ATOM      7  C   UNL     1       1.519   4.597  18.118  0.00  0.00    +0.000 C 
ATOM      8  O   UNL     1       1.131   4.405  16.967  0.00  0.00    +0.000 OA
BRANCH   7   9
ATOM      9  O   UNL     1       0.954   3.997  19.194  0.00  0.00    +0.000 OA
BRANCH   9  11
ATOM     10  C   UNL     1       2.155   1.845  19.262  0.00  0.00    +0.000 C 
ATOM     11  C   UNL     1       0.826   2.564  19.051  0.00  0.00    +0.000 C 
ENDBRANCH   9  11
ENDBRANCH   7   9
ENDBRANCH   1   7
BRANCH   1  12
ATOM     12  C   UNL     1       4.004   4.664  17.953  0.00  0.00    +0.000 C 
BRANCH  12  13
ATOM     13  C   UNL     1       4.549   4.973  16.561  0.00  0.00    +0.000 C 
BRANCH  13  14
ATOM     14  O   UNL     1       5.962   4.720  16.593  0.00  0.00    +0.000 OA
BRANCH  14  15
ATOM     15  C   UNL     1       6.705   5.672  17.227  0.00  0.00    +0.000 A 
ATOM     16  C   UNL     1       7.443   5.223  18.332  0.00  0.00    +0.000 A 
ATOM     17  C   UNL     1       8.222   6.117  19.071  0.00  0.00    +0.000 A 
ATOM     18  C   UNL     1       8.291   7.456  18.695  0.00  0.00    +0.000 A 
ATOM     19  C   UNL     1       7.592   7.899  17.573  0.00  0.00    +0.000 A 
ATOM     20  C   UNL     1       6.807   7.011  16.837  0.00  0.00    +0.000 A 
ENDBRANCH  14  15
ENDBRANCH  13  14
ENDBRANCH  12  13
ENDBRANCH   1  12
BRANCH   4  21
ATOM     21  C   UNL     1       0.963   8.945  20.409  0.00  0.00    +0.000 C 
BRANCH  21  22
ATOM     22  C   UNL     1       0.531  10.204  19.690  0.00  0.00    +0.000 A 
ATOM     23  C   UNL     1       1.348  11.339  19.627  0.00  0.00    +0.000 A 
ATOM     24  C   UNL     1       0.918  12.480  18.944  0.00  0.00    +0.000 A 
ATOM     25  C   UNL     1      -0.331  12.502  18.313  0.00  0.00    +0.000 A 
ATOM     26  C   UNL     1      -1.170  11.384  18.390  0.00  0.00    +0.000 A 
ATOM     27  C   UNL     1      -0.740  10.250  19.093  0.00  0.00    +0.000 A 
BRANCH  26  28
ATOM     28  N   UNL     1      -2.447  11.366  17.763  0.00  0.00    +0.000 N 
ATOM     29  C   UNL     1      -3.678  11.639  18.326  0.00  0.00    +0.000 A 
ATOM     30  C   UNL     1      -4.619  11.502  17.334  0.00  0.00    +0.000 A 
ATOM     31  C   UNL     1      -3.883  11.138  16.200  0.00  0.00    +0.000 A 
ATOM     32  N   UNL     1      -2.574  11.067  16.441  0.00  0.00    +0.000 NA
ENDBRANCH  26  28
ENDBRANCH  21  22
ENDBRANCH   4  21
TORSDOF 10
ENDMDL
