MODEL 1
REMARK VINA RESULT:     -10.0      0.000      0.000
REMARK  Name = 
REMARK  9 active torsions:
REMARK  status: ('A' for Active; 'I' for Inactive)
REMARK    1  A    between atoms: C_1  and  C_2
REMARK    2  A    between atoms: C_4  and  O_5
REMARK    3  A    between atoms: C_7  and  C_8
REMARK    4  A    between atoms: N_10  and  C_11
REMARK    5  A    between atoms: C_11  and  C_12
REMARK    6  A    between atoms: C_15  and  C_16
REMARK    7  A    between atoms: C_20  and  C_21
REMARK    8  A    between atoms: C_24  and  O_25
REMARK    9  A    between atoms: O_25  and  C_26
REMARK                            x       y       z     vdW  Elec       q    Type
REMARK                         _______ _______ _______ _____ _____    ______ ____
ROOT
ATOM      1  C   UNL     1       4.181   4.675  16.784  0.00  0.00    +0.000 A 
ATOM      2  C   UNL     1       3.474   3.490  16.974  0.00  0.00    +0.000 A 
ATOM      3  C   UNL     1       2.368   3.508  17.810  0.00  0.00    +0.000 A 
ATOM      4  N   UNL     1       1.938   4.604  18.473  0.00  0.00    +0.000 NA
ATOM      5  C   UNL     1       2.633   5.752  18.300  0.00  0.00    +0.000 A 
ATOM      6  C   UNL     1       3.759   5.808  17.479  0.00  0.00    +0.000 A 
ENDROOT
BRANCH   5   7
ATOM      7  C   UNL     1       2.143   6.948  19.013  0.00  0.00    +0.000 A 
ATOM      8  C   UNL     1       2.025   8.194  18.374  0.00  0.00    +0.000 A 
ATOM      9  C   UNL     1       1.465   9.296  19.034  0.00  0.00    +0.000 A 
ATOM     10  C   UNL     1       1.017   9.171  20.349  0.00  0.00    +0.000 A 
ATOM     11  C   UNL     1       1.225   7.977  21.033  0.00  0.00    +0.000 A 
ATOM     12  C   UNL     1       1.760   6.876  20.366  0.00  0.00    +0.000 A 
BRANCH  10  13
ATOM     13  O   UNL     1       0.425  10.280  20.911  0.00  0.00    +0.000 OA
BRANCH  13  14
ATOM     14  C   UNL     1       0.132  11.364  20.110  0.00  0.00    +0.000 A 
ATOM     15  C   UNL     1       1.076  12.391  20.099  0.00  0.00    +0.000 A 
ATOM     16  C   UNL     1       0.860  13.533  19.325  0.00  0.00    +0.000 A 
ATOM     17  C   UNL     1      -0.301  13.650  18.562  0.00  0.00    +0.000 A 
ATOM     18  C   UNL     1      -1.231  12.613  18.545  0.00  0.00    +0.000 A 
ATOM     19  C   UNL     1      -1.001  11.458  19.295  0.00  0.00    +0.000 A 
ENDBRANCH  13  14
ENDBRANCH  10  13
ENDBRANCH   5   7
BRANCH   1  24
ATOM     20  C   UNL     1       6.611   5.352  15.975  0.00  0.00    +0.000 A 
ATOM     21  N   UNL     1       7.309   5.181  14.838  0.00  0.00    +0.000 NA
ATOM     22  N   UNL     1       6.514   4.440  14.048  0.00  0.00    +0.000 N 
ATOM     23  C   UNL     1       5.293   4.195  14.601  0.00  0.00    +0.000 A 
ATOM     24  C   UNL     1       5.306   4.767  15.860  0.00  0.00    +0.000 A 
BRANCH  20  30
ATOM     25  C   UNL     1       8.509   9.518  17.980  0.00  0.00    +0.000 C 
ATOM     26  C   UNL     1       8.148   8.069  18.115  0.00  0.00    +0.000 A 
ATOM     27  C   UNL     1       8.459   7.345  19.271  0.00  0.00    +0.000 A 
ATOM     28  C   UNL     1       8.138   5.992  19.346  0.00  0.00    +0.000 A 
ATOM     29  C   UNL     1       7.531   5.336  18.280  0.00  0.00    +0.000 A 
ATOM     30  C   UNL     1       7.220   6.042  17.113  0.00  0.00    +0.000 A 
ATOM     31  C   UNL     1       7.508   7.414  17.054  0.00  0.00    +0.000 A 
BRANCH  28  32
ATOM     32  O   UNL     1       8.417   5.261  20.464  0.00  0.00    +0.000 OA
ATOM     33  H   UNL     1       8.825   4.422  20.194  0.00  0.00    +0.000 HD
ENDBRANCH  28  32
ENDBRANCH  20  30
BRANCH  22  34
ATOM     34  C   UNL     1       6.988   4.061  12.723  0.00  0.00    +0.000 C 
BRANCH  34  35
ATOM     35  C   UNL     1       6.180   3.015  12.098  0.00  0.00    +0.000 C 
ATOM     36  N   UNL     1       5.549   2.186  11.578  0.00  0.00    +0.000 NA
ENDBRANCH  34  35
ENDBRANCH  22  34
ENDBRANCH   1  24
TORSDOF 8
ENDMDL
MODEL 2
REMARK VINA RESULT:      -9.9      0.558      1.056
REMARK  Name = 
REMARK  9 active torsions:
REMARK  status: ('A' for Active; 'I' for Inactive)
REMARK    1  A    between atoms: C_1  and  C_2
REMARK    2  A    between atoms: C_4  and  O_5
REMARK    3  A    between atoms: C_7  and  C_8
REMARK    4  A    between atoms: N_10  and  C_11
REMARK    5  A    between atoms: C_11  and  C_12
REMARK    6  A    between atoms: C_15  and  C_16
REMARK    7  A    between atoms: C_20  and  C_21
REMARK    8  A    between atoms: C_24  and  O_25
REMARK    9  A    between atoms: O_25  and  C_26
REMARK                            x       y       z     vdW  Elec       q    Type
REMARK                         _______ _______ _______ _____ _____    ______ ____
ROOT
ATOM      1  C   UNL     1       4.122   4.879  16.840  0.00  0.00    +0.000 A 
ATOM      2  C   UNL     1       3.422   3.717  17.153  0.00  0.00    +0.000 A 
ATOM      3  C   UNL     1       2.309   3.817  17.973  0.00  0.00    +0.000 A 
ATOM      4  N   UNL     1       1.865   4.974  18.509  0.00  0.00    +0.000 NA
ATOM      5  C   UNL     1       2.552   6.103  18.217  0.00  0.00    +0.000 A 
ATOM      6  C   UNL     1       3.685   6.078  17.403  0.00  0.00    +0.000 A 
ENDROOT
BRANCH   5   7
ATOM      7  C   UNL     1       2.048   7.365  18.791  0.00  0.00    +0.000 A 
ATOM      8  C   UNL     1       1.729   8.470  17.984  0.00  0.00    +0.000 A 
ATOM      9  C   UNL     1       1.157   9.626  18.532  0.00  0.00    +0.000 A 
ATOM     10  C   UNL     1       0.898   9.698  19.901  0.00  0.00    +0.000 A 
ATOM     11  C   UNL     1       1.307   8.658  20.731  0.00  0.00    +0.000 A 
ATOM     12  C   UNL     1       1.853   7.500  20.179  0.00  0.00    +0.000 A 
BRANCH  10  13
ATOM     13  O   UNL     1       0.281  10.841  20.356  0.00  0.00    +0.000 OA
BRANCH  13  14
ATOM     14  C   UNL     1       0.701  12.066  19.883  0.00  0.00    +0.000 A 
ATOM     15  C   UNL     1      -0.234  12.794  19.148  0.00  0.00    +0.000 A 
ATOM     16  C   UNL     1       0.105  14.042  18.620  0.00  0.00    +0.000 A 
ATOM     17  C   UNL     1       1.382  14.562  18.826  0.00  0.00    +0.000 A 
ATOM     18  C   UNL     1       2.310  13.854  19.587  0.00  0.00    +0.000 A 
ATOM     19  C   UNL     1       1.961  12.621  20.140  0.00  0.00    +0.000 A 
ENDBRANCH  13  14
ENDBRANCH  10  13
ENDBRANCH   5   7
BRANCH   1  24
ATOM     20  C   UNL     1       6.588   5.396  16.023  0.00  0.00    +0.000 A 
ATOM     21  N   UNL     1       7.281   5.150  14.896  0.00  0.00    +0.000 NA
ATOM     22  N   UNL     1       6.449   4.428  14.126  0.00  0.00    +0.000 N 
ATOM     23  C   UNL     1       5.214   4.269  14.680  0.00  0.00    +0.000 A 
ATOM     24  C   UNL     1       5.253   4.880  15.920  0.00  0.00    +0.000 A 
BRANCH  20  30
ATOM     25  C   UNL     1       8.513   9.576  17.974  0.00  0.00    +0.000 C 
ATOM     26  C   UNL     1       8.171   8.122  18.117  0.00  0.00    +0.000 A 
ATOM     27  C   UNL     1       8.529   7.399  19.259  0.00  0.00    +0.000 A 
ATOM     28  C   UNL     1       8.225   6.042  19.341  0.00  0.00    +0.000 A 
ATOM     29  C   UNL     1       7.588   5.383  18.294  0.00  0.00    +0.000 A 
ATOM     30  C   UNL     1       7.229   6.089  17.141  0.00  0.00    +0.000 A 
ATOM     31  C   UNL     1       7.501   7.464  17.076  0.00  0.00    +0.000 A 
BRANCH  28  32
ATOM     32  O   UNL     1       8.550   5.311  20.446  0.00  0.00    +0.000 OA
ATOM     33  H   UNL     1       7.760   5.224  21.005  0.00  0.00    +0.000 HD
ENDBRANCH  28  32
ENDBRANCH  20  30
BRANCH  22  34
ATOM     34  C   UNL     1       6.907   3.981  12.816  0.00  0.00    +0.000 C 
BRANCH  34  35
ATOM     35  C   UNL     1       5.910   3.192  12.095  0.00  0.00    +0.000 C 
ATOM     36  N   UNL     1       5.131   2.542  11.523  0.00  0.00    +0.000 NA
ENDBRANCH  34  35
ENDBRANCH  22  34
ENDBRANCH   1  24
TORSDOF 8
ENDMDL
MODEL 3
REMARK VINA RESULT:      -9.6      0.892      1.151
REMARK  Name = 
REMARK  9 active torsions:
REMARK  status: ('A' for Active; 'I' for Inactive)
REMARK    1  A    between atoms: C_1  and  C_2
REMARK    2  A    between atoms: C_4  and  O_5
REMARK    3  A    between atoms: C_7  and  C_8
REMARK    4  A    between atoms: N_10  and  C_11
REMARK    5  A    between atoms: C_11  and  C_12
REMARK    6  A    between atoms: C_15  and  C_16
REMARK    7  A    between atoms: C_20  and  C_21
REMARK    8  A    between atoms: C_24  and  O_25
REMARK    9  A    between atoms: O_25  and  C_26
REMARK                            x       y       z     vdW  Elec       q    Type
REMARK                         _______ _______ _______ _____ _____    ______ ____
ROOT
ATOM      1  C   UNL     1       4.117   4.548  17.040  0.00  0.00    +0.000 A 
ATOM      2  C   UNL     1       3.443   3.364  17.326  0.00  0.00    +0.000 A 
ATOM      3  C   UNL     1       2.370   3.409  18.201  0.00  0.00    +0.000 A 
ATOM      4  N   UNL     1       1.942   4.533  18.816  0.00  0.00    +0.000 NA
ATOM      5  C   UNL     1       2.605   5.682  18.551  0.00  0.00    +0.000 A 
ATOM      6  C   UNL     1       3.698   5.712  17.684  0.00  0.00    +0.000 A 
ENDROOT
BRANCH   5   7
ATOM      7  C   UNL     1       2.117   6.909  19.212  0.00  0.00    +0.000 A 
ATOM      8  C   UNL     1       2.123   8.153  18.560  0.00  0.00    +0.000 A 
ATOM      9  C   UNL     1       1.565   9.289  19.162  0.00  0.00    +0.000 A 
ATOM     10  C   UNL     1       0.995   9.199  20.432  0.00  0.00    +0.000 A 
ATOM     11  C   UNL     1       1.076   8.001  21.137  0.00  0.00    +0.000 A 
ATOM     12  C   UNL     1       1.610   6.868  20.525  0.00  0.00    +0.000 A 
BRANCH  10  13
ATOM     13  O   UNL     1       0.413  10.341  20.934  0.00  0.00    +0.000 OA
BRANCH  13  14
ATOM     14  C   UNL     1      -0.637  10.918  20.250  0.00  0.00    +0.000 A 
ATOM     15  C   UNL     1      -1.119  10.204  19.153  0.00  0.00    +0.000 A 
ATOM     16  C   UNL     1      -2.175  10.714  18.394  0.00  0.00    +0.000 A 
ATOM     17  C   UNL     1      -2.747  11.940  18.730  0.00  0.00    +0.000 A 
ATOM     18  C   UNL     1      -2.290  12.641  19.843  0.00  0.00    +0.000 A 
ATOM     19  C   UNL     1      -1.255  12.117  20.621  0.00  0.00    +0.000 A 
ENDBRANCH  13  14
ENDBRANCH  10  13
ENDBRANCH   5   7
BRANCH   1  24
ATOM     20  C   UNL     1       6.508   5.204  16.107  0.00  0.00    +0.000 A 
ATOM     21  N   UNL     1       7.162   4.990  14.952  0.00  0.00    +0.000 NA
ATOM     22  N   UNL     1       6.341   4.212  14.225  0.00  0.00    +0.000 N 
ATOM     23  C   UNL     1       5.145   3.985  14.836  0.00  0.00    +0.000 A 
ATOM     24  C   UNL     1       5.204   4.608  16.069  0.00  0.00    +0.000 A 
BRANCH  20  30
ATOM     25  C   UNL     1       8.424   9.469  17.874  0.00  0.00    +0.000 C 
ATOM     26  C   UNL     1       8.095   8.019  18.077  0.00  0.00    +0.000 A 
ATOM     27  C   UNL     1       8.472   7.343  19.242  0.00  0.00    +0.000 A 
ATOM     28  C   UNL     1       8.179   5.988  19.378  0.00  0.00    +0.000 A 
ATOM     29  C   UNL     1       7.535   5.285  18.365  0.00  0.00    +0.000 A 
ATOM     30  C   UNL     1       7.157   5.944  17.191  0.00  0.00    +0.000 A 
ATOM     31  C   UNL     1       7.418   7.317  17.070  0.00  0.00    +0.000 A 
BRANCH  28  32
ATOM     32  O   UNL     1       8.522   5.301  20.507  0.00  0.00    +0.000 OA
ATOM     33  H   UNL     1       9.231   4.675  20.286  0.00  0.00    +0.000 HD
ENDBRANCH  28  32
ENDBRANCH  20  30
BRANCH  22  34
ATOM     34  C   UNL     1       6.765   3.782  12.898  0.00  0.00    +0.000 C 
BRANCH  34  35
ATOM     35  C   UNL     1       5.664   3.290  12.072  0.00  0.00    +0.000 C 
ATOM     36  N   UNL     1       4.772   2.893  11.437  0.00  0.00    +0.000 NA
ENDBRANCH  34  35
ENDBRANCH  22  34
ENDBRANCH   1  24
TORSDOF 8
ENDMDL
MODEL 4
REMARK VINA RESULT:      -9.3      1.212      1.784
REMARK  Name = 
REMARK  9 active torsions:
REMARK  status: ('A' for Active; 'I' for Inactive)
REMARK    1  A    between atoms: C_1  and  C_2
REMARK    2  A    between atoms: C_4  and  O_5
REMARK    3  A    between atoms: C_7  and  C_8
REMARK    4  A    between atoms: N_10  and  C_11
REMARK    5  A    between atoms: C_11  and  C_12
REMARK    6  A    between atoms: C_15  and  C_16
REMARK    7  A    between atoms: C_20  and  C_21
REMARK    8  A    between atoms: C_24  and  O_25
REMARK    9  A    between atoms: O_25  and  C_26
REMARK                            x       y       z     vdW  Elec       q    Type
REMARK                         _______ _______ _______ _____ _____    ______ ____
ROOT
ATOM      1  C   UNL     1       4.051   4.913  16.914  0.00  0.00    +0.000 A 
ATOM      2  C   UNL     1       3.328   3.780  17.277  0.00  0.00    +0.000 A 
ATOM      3  C   UNL     1       2.217   3.938  18.091  0.00  0.00    +0.000 A 
ATOM      4  N   UNL     1       1.796   5.127  18.574  0.00  0.00    +0.000 NA
ATOM      5  C   UNL     1       2.506   6.227  18.234  0.00  0.00    +0.000 A 
ATOM      6  C   UNL     1       3.638   6.144  17.423  0.00  0.00    +0.000 A 
ENDROOT
BRANCH   5   7
ATOM      7  C   UNL     1       2.026   7.524  18.751  0.00  0.00    +0.000 A 
ATOM      8  C   UNL     1       1.832   7.748  20.124  0.00  0.00    +0.000 A 
ATOM      9  C   UNL     1       1.472   9.012  20.608  0.00  0.00    +0.000 A 
ATOM     10  C   UNL     1       1.296  10.076  19.724  0.00  0.00    +0.000 A 
ATOM     11  C   UNL     1       1.377   9.848  18.353  0.00  0.00    +0.000 A 
ATOM     12  C   UNL     1       1.758   8.595  17.876  0.00  0.00    +0.000 A 
BRANCH  10  13
ATOM     13  O   UNL     1       1.002  11.302  20.277  0.00  0.00    +0.000 OA
BRANCH  13  14
ATOM     14  C   UNL     1      -0.083  11.415  21.121  0.00  0.00    +0.000 A 
ATOM     15  C   UNL     1      -0.037  10.648  22.286  0.00  0.00    +0.000 A 
ATOM     16  C   UNL     1      -1.096  10.691  23.196  0.00  0.00    +0.000 A 
ATOM     17  C   UNL     1      -2.203  11.499  22.941  0.00  0.00    +0.000 A 
ATOM     18  C   UNL     1      -2.239  12.291  21.795  0.00  0.00    +0.000 A 
ATOM     19  C   UNL     1      -1.167  12.272  20.901  0.00  0.00    +0.000 A 
ENDBRANCH  13  14
ENDBRANCH  10  13
ENDBRANCH   5   7
BRANCH   1  24
ATOM     20  C   UNL     1       6.533   5.324  16.087  0.00  0.00    +0.000 A 
ATOM     21  N   UNL     1       7.218   5.024  14.969  0.00  0.00    +0.000 NA
ATOM     22  N   UNL     1       6.363   4.310  14.218  0.00  0.00    +0.000 N 
ATOM     23  C   UNL     1       5.123   4.207  14.774  0.00  0.00    +0.000 A 
ATOM     24  C   UNL     1       5.182   4.850  15.996  0.00  0.00    +0.000 A 
BRANCH  20  30
ATOM     25  C   UNL     1       8.463   9.528  17.982  0.00  0.00    +0.000 C 
ATOM     26  C   UNL     1       8.141   8.070  18.135  0.00  0.00    +0.000 A 
ATOM     27  C   UNL     1       8.539   7.352  19.268  0.00  0.00    +0.000 A 
ATOM     28  C   UNL     1       8.253   5.992  19.359  0.00  0.00    +0.000 A 
ATOM     29  C   UNL     1       7.595   5.325  18.331  0.00  0.00    +0.000 A 
ATOM     30  C   UNL     1       7.197   6.026  17.187  0.00  0.00    +0.000 A 
ATOM     31  C   UNL     1       7.451   7.404  17.114  0.00  0.00    +0.000 A 
BRANCH  28  32
ATOM     32  O   UNL     1       8.615   5.265  20.456  0.00  0.00    +0.000 OA
ATOM     33  H   UNL     1       7.827   4.820  20.808  0.00  0.00    +0.000 HD
ENDBRANCH  28  32
ENDBRANCH  20  30
BRANCH  22  34
ATOM     34  C   UNL     1       6.807   3.812  12.921  0.00  0.00    +0.000 C 
BRANCH  34  35
ATOM     35  C   UNL     1       5.727   3.226  12.128  0.00  0.00    +0.000 C 
ATOM     36  N   UNL     1       4.882   2.764  11.475  0.00  0.00    +0.000 NA
ENDBRANCH  34  35
ENDBRANCH  22  34
ENDBRANCH   1  24
TORSDOF 8
ENDMDL
MODEL 5
REMARK VINA RESULT:      -9.1      4.105     10.390
REMARK  Name = 
REMARK  9 active torsions:
REMARK  status: ('A' for Active; 'I' for Inactive)
REMARK    1  A    between atoms: C_1  and  C_2
REMARK    2  A    between atoms: C_4  and  O_5
REMARK    3  A    between atoms: C_7  and  C_8
REMARK    4  A    between atoms: N_10  and  C_11
REMARK    5  A    between atoms: C_11  and  C_12
REMARK    6  A    between atoms: C_15  and  C_16
REMARK    7  A    between atoms: C_20  and  C_21
REMARK    8  A    between atoms: C_24  and  O_25
REMARK    9  A    between atoms: O_25  and  C_26
REMARK                            x       y       z     vdW  Elec       q    Type
REMARK                         _______ _______ _______ _____ _____    ______ ____
ROOT
ATOM      1  C   UNL     1       0.226  10.859  20.450  0.00  0.00    +0.000 A 
ATOM      2  C   UNL     1      -0.277  10.679  21.736  0.00  0.00    +0.000 A 
ATOM      3  C   UNL     1      -0.041   9.472  22.375  0.00  0.00    +0.000 A 
ATOM      4  N   UNL     1       0.634   8.442  21.821  0.00  0.00    +0.000 NA
ATOM      5  C   UNL     1       1.111   8.609  20.566  0.00  0.00    +0.000 A 
ATOM      6  C   UNL     1       0.907   9.795  19.859  0.00  0.00    +0.000 A 
ENDROOT
BRANCH   5   7
ATOM      7  C   UNL     1       1.865   7.485  19.977  0.00  0.00    +0.000 A 
ATOM      8  C   UNL     1       1.975   6.246  20.628  0.00  0.00    +0.000 A 
ATOM      9  C   UNL     1       2.608   5.158  20.013  0.00  0.00    +0.000 A 
ATOM     10  C   UNL     1       3.147   5.293  18.733  0.00  0.00    +0.000 A 
ATOM     11  C   UNL     1       3.143   6.541  18.117  0.00  0.00    +0.000 A 
ATOM     12  C   UNL     1       2.491   7.615  18.722  0.00  0.00    +0.000 A 
BRANCH  10  13
ATOM     13  O   UNL     1       3.700   4.166  18.170  0.00  0.00    +0.000 OA
BRANCH  13  14
ATOM     14  C   UNL     1       4.841   4.288  17.404  0.00  0.00    +0.000 A 
ATOM     15  C   UNL     1       6.027   4.509  18.103  0.00  0.00    +0.000 A 
ATOM     16  C   UNL     1       7.232   4.654  17.411  0.00  0.00    +0.000 A 
ATOM     17  C   UNL     1       7.250   4.581  16.018  0.00  0.00    +0.000 A 
ATOM     18  C   UNL     1       6.072   4.329  15.318  0.00  0.00    +0.000 A 
ATOM     19  C   UNL     1       4.873   4.152  16.011  0.00  0.00    +0.000 A 
ENDBRANCH  13  14
ENDBRANCH  10  13
ENDBRANCH   5   7
BRANCH   1  24
ATOM     20  C   UNL     1      -0.858  12.605  18.779  0.00  0.00    +0.000 A 
ATOM     21  N   UNL     1      -0.557  13.859  18.397  0.00  0.00    +0.000 NA
ATOM     22  N   UNL     1       0.506  14.205  19.144  0.00  0.00    +0.000 N 
ATOM     23  C   UNL     1       0.954  13.190  19.935  0.00  0.00    +0.000 A 
ATOM     24  C   UNL     1       0.096  12.123  19.736  0.00  0.00    +0.000 A 
BRANCH  20  30
ATOM     25  C   UNL     1      -3.019   9.972  15.120  0.00  0.00    +0.000 C 
ATOM     26  C   UNL     1      -3.115  10.645  16.458  0.00  0.00    +0.000 A 
ATOM     27  C   UNL     1      -4.329  10.719  17.150  0.00  0.00    +0.000 A 
ATOM     28  C   UNL     1      -4.386  11.382  18.374  0.00  0.00    +0.000 A 
ATOM     29  C   UNL     1      -3.260  11.994  18.915  0.00  0.00    +0.000 A 
ATOM     30  C   UNL     1      -2.040  11.936  18.232  0.00  0.00    +0.000 A 
ATOM     31  C   UNL     1      -1.974  11.234  17.019  0.00  0.00    +0.000 A 
BRANCH  28  32
ATOM     32  O   UNL     1      -5.551  11.462  19.080  0.00  0.00    +0.000 OA
ATOM     33  H   UNL     1      -5.803  10.568  19.365  0.00  0.00    +0.000 HD
ENDBRANCH  28  32
ENDBRANCH  20  30
BRANCH  22  34
ATOM     34  C   UNL     1       1.082  15.534  18.980  0.00  0.00    +0.000 C 
BRANCH  34  35
ATOM     35  C   UNL     1       0.117  16.529  18.518  0.00  0.00    +0.000 C 
ATOM     36  N   UNL     1      -0.634  17.340  18.151  0.00  0.00    +0.000 NA
ENDBRANCH  34  35
ENDBRANCH  22  34
ENDBRANCH   1  24
TORSDOF 8
ENDMDL
MODEL 6
REMARK VINA RESULT:      -9.1      4.062     10.038
REMARK  Name = 
REMARK  9 active torsions:
REMARK  status: ('A' for Active; 'I' for Inactive)
REMARK    1  A    between atoms: C_1  and  C_2
REMARK    2  A    between atoms: C_4  and  O_5
REMARK    3  A    between atoms: C_7  and  C_8
REMARK    4  A    between atoms: N_10  and  C_11
REMARK    5  A    between atoms: C_11  and  C_12
REMARK    6  A    between atoms: C_15  and  C_16
REMARK    7  A    between atoms: C_20  and  C_21
REMARK    8  A    between atoms: C_24  and  O_25
REMARK    9  A    between atoms: O_25  and  C_26
REMARK                            x       y       z     vdW  Elec       q    Type
REMARK                         _______ _______ _______ _____ _____    ______ ____
ROOT
ATOM      1  C   UNL     1       0.547  10.836  20.520  0.00  0.00    +0.000 A 
ATOM      2  C   UNL     1       0.235  10.741  21.874  0.00  0.00    +0.000 A 
ATOM      3  C   UNL     1       0.459   9.535  22.520  0.00  0.00    +0.000 A 
ATOM      4  N   UNL     1       0.947   8.431  21.915  0.00  0.00    +0.000 NA
ATOM      5  C   UNL     1       1.237   8.517  20.596  0.00  0.00    +0.000 A 
ATOM      6  C   UNL     1       1.032   9.697  19.879  0.00  0.00    +0.000 A 
ENDROOT
BRANCH   5   7
ATOM      7  C   UNL     1       1.788   7.311  19.948  0.00  0.00    +0.000 A 
ATOM      8  C   UNL     1       2.402   7.364  18.685  0.00  0.00    +0.000 A 
ATOM      9  C   UNL     1       3.009   6.232  18.126  0.00  0.00    +0.000 A 
ATOM     10  C   UNL     1       3.008   5.023  18.822  0.00  0.00    +0.000 A 
ATOM     11  C   UNL     1       2.312   4.923  20.023  0.00  0.00    +0.000 A 
ATOM     12  C   UNL     1       1.730   6.058  20.587  0.00  0.00    +0.000 A 
BRANCH  10  13
ATOM     13  O   UNL     1       3.675   3.970  18.237  0.00  0.00    +0.000 OA
BRANCH  13  14
ATOM     14  C   UNL     1       4.879   4.205  17.606  0.00  0.00    +0.000 A 
ATOM     15  C   UNL     1       5.948   4.550  18.433  0.00  0.00    +0.000 A 
ATOM     16  C   UNL     1       7.204   4.816  17.881  0.00  0.00    +0.000 A 
ATOM     17  C   UNL     1       7.390   4.738  16.502  0.00  0.00    +0.000 A 
ATOM     18  C   UNL     1       6.334   4.362  15.675  0.00  0.00    +0.000 A 
ATOM     19  C   UNL     1       5.087   4.067  16.228  0.00  0.00    +0.000 A 
ENDBRANCH  13  14
ENDBRANCH  10  13
ENDBRANCH   5   7
BRANCH   1  24
ATOM     20  C   UNL     1      -0.568  12.577  18.865  0.00  0.00    +0.000 A 
ATOM     21  N   UNL     1      -0.246  13.810  18.435  0.00  0.00    +0.000 NA
ATOM     22  N   UNL     1       0.867  14.137  19.113  0.00  0.00    +0.000 N 
ATOM     23  C   UNL     1       1.324  13.127  19.905  0.00  0.00    +0.000 A 
ATOM     24  C   UNL     1       0.421  12.086  19.781  0.00  0.00    +0.000 A 
BRANCH  20  30
ATOM     25  C   UNL     1      -2.962   9.752  15.508  0.00  0.00    +0.000 C 
ATOM     26  C   UNL     1      -2.989  10.554  16.775  0.00  0.00    +0.000 A 
ATOM     27  C   UNL     1      -4.182  10.773  17.473  0.00  0.00    +0.000 A 
ATOM     28  C   UNL     1      -4.173  11.553  18.627  0.00  0.00    +0.000 A 
ATOM     29  C   UNL     1      -3.000  12.140  19.091  0.00  0.00    +0.000 A 
ATOM     30  C   UNL     1      -1.800  11.937  18.402  0.00  0.00    +0.000 A 
ATOM     31  C   UNL     1      -1.802  11.120  17.261  0.00  0.00    +0.000 A 
BRANCH  28  32
ATOM     32  O   UNL     1      -5.317  11.776  19.337  0.00  0.00    +0.000 OA
ATOM     33  H   UNL     1      -6.059  11.854  18.715  0.00  0.00    +0.000 HD
ENDBRANCH  28  32
ENDBRANCH  20  30
BRANCH  22  34
ATOM     34  C   UNL     1       1.479  15.441  18.883  0.00  0.00    +0.000 C 
BRANCH  34  35
ATOM     35  C   UNL     1       2.743  15.364  18.153  0.00  0.00    +0.000 C 
ATOM     36  N   UNL     1       3.741  15.281  17.559  0.00  0.00    +0.000 NA
ENDBRANCH  34  35
ENDBRANCH  22  34
ENDBRANCH   1  24
TORSDOF 8
ENDMDL
MODEL 7
REMARK VINA RESULT:      -9.0      3.148      5.289
REMARK  Name = 
REMARK  9 active torsions:
REMARK  status: ('A' for Active; 'I' for Inactive)
REMARK    1  A    between atoms: C_1  and  C_2
REMARK    2  A    between atoms: C_4  and  O_5
REMARK    3  A    between atoms: C_7  and  C_8
REMARK    4  A    between atoms: N_10  and  C_11
REMARK    5  A    between atoms: C_11  and  C_12
REMARK    6  A    between atoms: C_15  and  C_16
REMARK    7  A    between atoms: C_20  and  C_21
REMARK    8  A    between atoms: C_24  and  O_25
REMARK    9  A    between atoms: O_25  and  C_26
REMARK                            x       y       z     vdW  Elec       q    Type
REMARK                         _______ _______ _______ _____ _____    ______ ____
ROOT
ATOM      1  C   UNL     1       2.552   6.925  19.021  0.00  0.00    +0.000 A 
ATOM      2  C   UNL     1       2.713   7.538  17.781  0.00  0.00    +0.000 A 
ATOM      3  C   UNL     1       2.225   8.824  17.611  0.00  0.00    +0.000 A 
ATOM      4  N   UNL     1       1.580   9.522  18.572  0.00  0.00    +0.000 NA
ATOM      5  C   UNL     1       1.410   8.922  19.773  0.00  0.00    +0.000 A 
ATOM      6  C   UNL     1       1.870   7.627  20.015  0.00  0.00    +0.000 A 
ENDROOT
BRANCH   5   7
ATOM      7  C   UNL     1       0.722   9.701  20.822  0.00  0.00    +0.000 A 
ATOM      8  C   UNL     1       0.693  11.105  20.802  0.00  0.00    +0.000 A 
ATOM      9  C   UNL     1      -0.047  11.827  21.748  0.00  0.00    +0.000 A 
ATOM     10  C   UNL     1      -0.768  11.155  22.735  0.00  0.00    +0.000 A 
ATOM     11  C   UNL     1      -0.664   9.770  22.836  0.00  0.00    +0.000 A 
ATOM     12  C   UNL     1       0.054   9.054  21.879  0.00  0.00    +0.000 A 
BRANCH  10  13
ATOM     13  O   UNL     1      -1.518  11.928  23.591  0.00  0.00    +0.000 OA
BRANCH  13  14
ATOM     14  C   UNL     1      -2.799  12.286  23.225  0.00  0.00    +0.000 A 
ATOM     15  C   UNL     1      -3.711  12.451  24.268  0.00  0.00    +0.000 A 
ATOM     16  C   UNL     1      -5.035  12.804  23.993  0.00  0.00    +0.000 A 
ATOM     17  C   UNL     1      -5.447  12.990  22.674  0.00  0.00    +0.000 A 
ATOM     18  C   UNL     1      -4.533  12.857  21.632  0.00  0.00    +0.000 A 
ATOM     19  C   UNL     1      -3.202  12.534  21.908  0.00  0.00    +0.000 A 
ENDBRANCH  13  14
ENDBRANCH  10  13
ENDBRANCH   5   7
BRANCH   1  24
ATOM     20  C   UNL     1       4.273   4.920  18.845  0.00  0.00    +0.000 A 
ATOM     21  N   UNL     1       4.368   3.704  19.412  0.00  0.00    +0.000 NA
ATOM     22  N   UNL     1       3.343   3.643  20.278  0.00  0.00    +0.000 N 
ATOM     23  C   UNL     1       2.540   4.743  20.233  0.00  0.00    +0.000 A 
ATOM     24  C   UNL     1       3.105   5.608  19.314  0.00  0.00    +0.000 A 
BRANCH  20  30
ATOM     25  C   UNL     1       7.965   8.084  17.684  0.00  0.00    +0.000 C 
ATOM     26  C   UNL     1       7.111   6.905  17.319  0.00  0.00    +0.000 A 
ATOM     27  C   UNL     1       7.219   6.287  16.068  0.00  0.00    +0.000 A 
ATOM     28  C   UNL     1       6.385   5.217  15.753  0.00  0.00    +0.000 A 
ATOM     29  C   UNL     1       5.427   4.761  16.653  0.00  0.00    +0.000 A 
ATOM     30  C   UNL     1       5.300   5.372  17.905  0.00  0.00    +0.000 A 
ATOM     31  C   UNL     1       6.167   6.425  18.237  0.00  0.00    +0.000 A 
BRANCH  28  32
ATOM     32  O   UNL     1       6.473   4.585  14.547  0.00  0.00    +0.000 OA
ATOM     33  H   UNL     1       7.106   5.066  13.989  0.00  0.00    +0.000 HD
ENDBRANCH  28  32
ENDBRANCH  20  30
BRANCH  22  34
ATOM     34  C   UNL     1       3.164   2.437  21.078  0.00  0.00    +0.000 C 
BRANCH  34  35
ATOM     35  C   UNL     1       1.924   2.438  21.852  0.00  0.00    +0.000 C 
ATOM     36  N   UNL     1       0.949   2.428  22.489  0.00  0.00    +0.000 NA
ENDBRANCH  34  35
ENDBRANCH  22  34
ENDBRANCH   1  24
TORSDOF 8
ENDMDL
MODEL 8
REMARK VINA RESULT:      -8.9      2.932      5.310
REMARK  Name = 
REMARK  9 active torsions:
REMARK  status: ('A' for Active; 'I' for Inactive)
REMARK    1  A    between atoms: C_1  and  C_2
REMARK    2  A    between atoms: C_4  and  O_5
REMARK    3  A    between atoms: C_7  and  C_8
REMARK    4  A    between atoms: N_10  and  C_11
REMARK    5  A    between atoms: C_11  and  C_12
REMARK    6  A    between atoms: C_15  and  C_16
REMARK    7  A    between atoms: C_20  and  C_21
REMARK    8  A    between atoms: C_24  and  O_25
REMARK    9  A    between atoms: O_25  and  C_26
REMARK                            x       y       z     vdW  Elec       q    Type
REMARK                         _______ _______ _______ _____ _____    ______ ____
ROOT
ATOM      1  C   UNL     1       2.643   6.804  18.888  0.00  0.00    +0.000 A 
ATOM      2  C   UNL     1       2.952   7.483  17.712  0.00  0.00    +0.000 A 
ATOM      3  C   UNL     1       2.497   8.784  17.562  0.00  0.00    +0.000 A 
ATOM      4  N   UNL     1       1.751   9.436  18.480  0.00  0.00    +0.000 NA
ATOM      5  C   UNL     1       1.438   8.772  19.616  0.00  0.00    +0.000 A 
ATOM      6  C   UNL     1       1.857   7.459  19.835  0.00  0.00    +0.000 A 
ENDROOT
BRANCH   5   7
ATOM      7  C   UNL     1       0.640   9.500  20.622  0.00  0.00    +0.000 A 
ATOM      8  C   UNL     1       0.338   8.940  21.875  0.00  0.00    +0.000 A 
ATOM      9  C   UNL     1      -0.335   9.680  22.856  0.00  0.00    +0.000 A 
ATOM     10  C   UNL     1      -0.722  10.995  22.599  0.00  0.00    +0.000 A 
ATOM     11  C   UNL     1      -0.529  11.530  21.328  0.00  0.00    +0.000 A 
ATOM     12  C   UNL     1       0.163  10.799  20.362  0.00  0.00    +0.000 A 
BRANCH  10  13
ATOM     13  O   UNL     1      -1.324  11.679  23.630  0.00  0.00    +0.000 OA
BRANCH  13  14
ATOM     14  C   UNL     1      -2.128  12.762  23.340  0.00  0.00    +0.000 A 
ATOM     15  C   UNL     1      -1.529  14.017  23.451  0.00  0.00    +0.000 A 
ATOM     16  C   UNL     1      -2.268  15.172  23.186  0.00  0.00    +0.000 A 
ATOM     17  C   UNL     1      -3.608  15.073  22.812  0.00  0.00    +0.000 A 
ATOM     18  C   UNL     1      -4.201  13.821  22.669  0.00  0.00    +0.000 A 
ATOM     19  C   UNL     1      -3.454  12.665  22.904  0.00  0.00    +0.000 A 
ENDBRANCH  13  14
ENDBRANCH  10  13
ENDBRANCH   5   7
BRANCH   1  24
ATOM     20  C   UNL     1       4.190   4.677  18.572  0.00  0.00    +0.000 A 
ATOM     21  N   UNL     1       4.288   3.482  19.182  0.00  0.00    +0.000 NA
ATOM     22  N   UNL     1       3.398   3.529  20.187  0.00  0.00    +0.000 N 
ATOM     23  C   UNL     1       2.668   4.680  20.199  0.00  0.00    +0.000 A 
ATOM     24  C   UNL     1       3.149   5.465  19.166  0.00  0.00    +0.000 A 
BRANCH  20  30
ATOM     25  C   UNL     1       5.798   3.891  13.906  0.00  0.00    +0.000 C 
ATOM     26  C   UNL     1       5.896   4.653  15.194  0.00  0.00    +0.000 A 
ATOM     27  C   UNL     1       6.888   5.618  15.396  0.00  0.00    +0.000 A 
ATOM     28  C   UNL     1       6.968   6.280  16.619  0.00  0.00    +0.000 A 
ATOM     29  C   UNL     1       6.090   5.985  17.656  0.00  0.00    +0.000 A 
ATOM     30  C   UNL     1       5.097   5.017  17.475  0.00  0.00    +0.000 A 
ATOM     31  C   UNL     1       4.992   4.378  16.230  0.00  0.00    +0.000 A 
BRANCH  28  32
ATOM     32  O   UNL     1       7.916   7.236  16.843  0.00  0.00    +0.000 OA
ATOM     33  H   UNL     1       7.741   7.651  17.704  0.00  0.00    +0.000 HD
ENDBRANCH  28  32
ENDBRANCH  20  30
BRANCH  22  34
ATOM     34  C   UNL     1       3.260   2.373  21.065  0.00  0.00    +0.000 C 
BRANCH  34  35
ATOM     35  C   UNL     1       2.016   2.377  21.832  0.00  0.00    +0.000 C 
ATOM     36  N   UNL     1       1.030   2.404  22.451  0.00  0.00    +0.000 NA
ENDBRANCH  34  35
ENDBRANCH  22  34
ENDBRANCH   1  24
TORSDOF 8
ENDMDL
MODEL 9
REMARK VINA RESULT:      -8.9      4.119     10.420
REMARK  Name = 
REMARK  9 active torsions:
REMARK  status: ('A' for Active; 'I' for Inactive)
REMARK    1  A    between atoms: C_1  and  C_2
REMARK    2  A    between atoms: C_4  and  O_5
REMARK    3  A    between atoms: C_7  and  C_8
REMARK    4  A    between atoms: N_10  and  C_11
REMARK    5  A    between atoms: C_11  and  C_12
REMARK    6  A    between atoms: C_15  and  C_16
REMARK    7  A    between atoms: C_20  and  C_21
REMARK    8  A    between atoms: C_24  and  O_25
REMARK    9  A    between atoms: O_25  and  C_26
REMARK                            x       y       z     vdW  Elec       q    Type
REMARK                         _______ _______ _______ _____ _____    ______ ____
ROOT
ATOM      1  C   UNL     1       0.168  10.809  20.547  0.00  0.00    +0.000 A 
ATOM      2  C   UNL     1      -0.335  10.611  21.830  0.00  0.00    +0.000 A 
ATOM      3  C   UNL     1      -0.088   9.400  22.457  0.00  0.00    +0.000 A 
ATOM      4  N   UNL     1       0.597   8.382  21.893  0.00  0.00    +0.000 NA
ATOM      5  C   UNL     1       1.074   8.567  20.641  0.00  0.00    +0.000 A 
ATOM      6  C   UNL     1       0.860   9.758  19.946  0.00  0.00    +0.000 A 
ENDROOT
BRANCH   5   7
ATOM      7  C   UNL     1       1.839   7.456  20.041  0.00  0.00    +0.000 A 
ATOM      8  C   UNL     1       1.964   6.212  20.682  0.00  0.00    +0.000 A 
ATOM      9  C   UNL     1       2.608   5.136  20.057  0.00  0.00    +0.000 A 
ATOM     10  C   UNL     1       3.143   5.288  18.778  0.00  0.00    +0.000 A 
ATOM     11  C   UNL     1       3.126   6.542  18.172  0.00  0.00    +0.000 A 
ATOM     12  C   UNL     1       2.463   7.603  18.787  0.00  0.00    +0.000 A 
BRANCH  10  13
ATOM     13  O   UNL     1       3.708   4.172  18.204  0.00  0.00    +0.000 OA
BRANCH  13  14
ATOM     14  C   UNL     1       4.879   4.304  17.487  0.00  0.00    +0.000 A 
ATOM     15  C   UNL     1       4.766   4.186  16.102  0.00  0.00    +0.000 A 
ATOM     16  C   UNL     1       5.901   4.296  15.294  0.00  0.00    +0.000 A 
ATOM     17  C   UNL     1       7.149   4.522  15.872  0.00  0.00    +0.000 A 
ATOM     18  C   UNL     1       7.262   4.672  17.253  0.00  0.00    +0.000 A 
ATOM     19  C   UNL     1       6.124   4.593  18.058  0.00  0.00    +0.000 A 
ENDBRANCH  13  14
ENDBRANCH  10  13
ENDBRANCH   5   7
BRANCH   1  24
ATOM     20  C   UNL     1      -0.919  12.555  18.877  0.00  0.00    +0.000 A 
ATOM     21  N   UNL     1      -0.635  13.818  18.516  0.00  0.00    +0.000 NA
ATOM     22  N   UNL     1       0.408  14.175  19.285  0.00  0.00    +0.000 N 
ATOM     23  C   UNL     1       0.861  13.159  20.072  0.00  0.00    +0.000 A 
ATOM     24  C   UNL     1       0.027  12.079  19.845  0.00  0.00    +0.000 A 
BRANCH  20  30
ATOM     25  C   UNL     1      -5.801  11.490  19.007  0.00  0.00    +0.000 C 
ATOM     26  C   UNL     1      -4.463  11.341  18.343  0.00  0.00    +0.000 A 
ATOM     27  C   UNL     1      -4.287  10.497  17.242  0.00  0.00    +0.000 A 
ATOM     28  C   UNL     1      -3.023  10.358  16.674  0.00  0.00    +0.000 A 
ATOM     29  C   UNL     1      -1.921  11.028  17.196  0.00  0.00    +0.000 A 
ATOM     30  C   UNL     1      -2.078  11.871  18.302  0.00  0.00    +0.000 A 
ATOM     31  C   UNL     1      -3.359  12.041  18.849  0.00  0.00    +0.000 A 
BRANCH  28  32
ATOM     32  O   UNL     1      -2.819   9.552  15.591  0.00  0.00    +0.000 OA
ATOM     33  H   UNL     1      -3.559   8.926  15.527  0.00  0.00    +0.000 HD
ENDBRANCH  28  32
ENDBRANCH  20  30
BRANCH  22  34
ATOM     34  C   UNL     1       0.963  15.516  19.147  0.00  0.00    +0.000 C 
BRANCH  34  35
ATOM     35  C   UNL     1       0.016  16.477  18.585  0.00  0.00    +0.000 C 
ATOM     36  N   UNL     1      -0.719  17.257  18.128  0.00  0.00    +0.000 NA
ENDBRANCH  34  35
ENDBRANCH  22  34
ENDBRANCH   1  24
TORSDOF 8
ENDMDL
