MODEL 1
REMARK VINA RESULT:      -7.6      0.000      0.000
REMARK  Name = 
REMARK  5 active torsions:
REMARK  status: ('A' for Active; 'I' for Inactive)
REMARK    1  A    between atoms: C_1  and  S_2
REMARK    2  A    between atoms: S_2  and  C_5
REMARK    3  A    between atoms: C_8  and  C_9
REMARK    4  A    between atoms: C_12  and  C_13
REMARK    5  A    between atoms: C_23  and  N_24
REMARK                            x       y       z     vdW  Elec       q    Type
REMARK                         _______ _______ _______ _____ _____    ______ ____
ROOT
ATOM      1  C   UNL     1       5.232   5.379  16.950  0.00  0.00    +0.000 A 
ATOM      2  C   UNL     1       4.999   6.662  16.442  0.00  0.00    +0.000 A 
ATOM      3  C   UNL     1       4.037   7.486  17.036  0.00  0.00    +0.000 A 
ATOM      4  C   UNL     1       3.268   7.044  18.127  0.00  0.00    +0.000 A 
ATOM      5  C   UNL     1       3.484   5.748  18.611  0.00  0.00    +0.000 A 
ATOM      6  C   UNL     1       4.460   4.929  18.022  0.00  0.00    +0.000 A 
ENDROOT
BRANCH   4   7
ATOM      7  C   UNL     1       2.344   7.988  18.773  0.00  0.00    +0.000 A 
ATOM      8  N   UNL     1       1.944   7.858  20.023  0.00  0.00    +0.000 NA
ATOM      9  C   UNL     1       1.001   8.821  20.313  0.00  0.00    +0.000 A 
ATOM     10  C   UNL     1       0.761   9.758  19.328  0.00  0.00    +0.000 A 
ATOM     11  S   UNL     1       1.690   9.343  17.941  0.00  0.00    +0.000 S 
BRANCH  10  12
ATOM     12  C   UNL     1      -0.155  10.886  19.282  0.00  0.00    +0.000 C 
ATOM     13  O   UNL     1      -1.351  10.720  19.027  0.00  0.00    +0.000 OA
ATOM     14  N   UNL     1       0.328  12.174  19.555  0.00  0.00    +0.000 N 
ATOM     15  C   UNL     1      -0.633  13.256  19.785  0.00  0.00    +0.000 C 
ATOM     16  C   UNL     1      -0.378  14.444  18.859  0.00  0.00    +0.000 C 
ATOM     17  C   UNL     1       1.074  14.908  18.938  0.00  0.00    +0.000 C 
ATOM     18  C   UNL     1       2.021  13.745  18.674  0.00  0.00    +0.000 C 
ATOM     19  C   UNL     1       1.736  12.575  19.609  0.00  0.00    +0.000 C 
ENDBRANCH  10  12
ENDBRANCH   4   7
BRANCH   1  21
ATOM     20  C   UNL     1       6.746   5.199  14.595  0.00  0.00    +0.000 C 
ATOM     21  S   UNL     1       6.432   4.364  16.130  0.00  0.00    +0.000 S 
ATOM     22  O   UNL     1       5.768   3.113  15.813  0.00  0.00    +0.000 OA
ATOM     23  O   UNL     1       7.633   4.355  16.937  0.00  0.00    +0.000 OA
ENDBRANCH   1  21
BRANCH   6  24
ATOM     24  N   UNL     1       4.700   3.649  18.658  0.00  0.00    +0.000 N 
ATOM     25  O   UNL     1       5.616   3.616  19.490  0.00  0.00    +0.000 OA
ATOM     26  O   UNL     1       3.908   2.736  18.403  0.00  0.00    +0.000 OA
ENDBRANCH   6  24
TORSDOF 4
ENDMDL
MODEL 2
REMARK VINA RESULT:      -7.5      2.196      2.700
REMARK  Name = 
REMARK  5 active torsions:
REMARK  status: ('A' for Active; 'I' for Inactive)
REMARK    1  A    between atoms: C_1  and  S_2
REMARK    2  A    between atoms: S_2  and  C_5
REMARK    3  A    between atoms: C_8  and  C_9
REMARK    4  A    between atoms: C_12  and  C_13
REMARK    5  A    between atoms: C_23  and  N_24
REMARK                            x       y       z     vdW  Elec       q    Type
REMARK                         _______ _______ _______ _____ _____    ______ ____
ROOT
ATOM      1  C   UNL     1       3.124   4.607  19.361  0.00  0.00    +0.000 A 
ATOM      2  C   UNL     1       3.433   5.790  18.680  0.00  0.00    +0.000 A 
ATOM      3  C   UNL     1       2.836   6.995  19.064  0.00  0.00    +0.000 A 
ATOM      4  C   UNL     1       1.900   7.047  20.113  0.00  0.00    +0.000 A 
ATOM      5  C   UNL     1       1.571   5.855  20.770  0.00  0.00    +0.000 A 
ATOM      6  C   UNL     1       2.184   4.649  20.391  0.00  0.00    +0.000 A 
ENDROOT
BRANCH   4   7
ATOM      7  C   UNL     1       1.381   8.355  20.538  0.00  0.00    +0.000 A 
ATOM      8  N   UNL     1       1.261   8.703  21.803  0.00  0.00    +0.000 NA
ATOM      9  C   UNL     1       0.646   9.933  21.893  0.00  0.00    +0.000 A 
ATOM     10  C   UNL     1       0.399  10.582  20.700  0.00  0.00    +0.000 A 
ATOM     11  S   UNL     1       0.868   9.547  19.409  0.00  0.00    +0.000 S 
BRANCH  10  12
ATOM     12  C   UNL     1      -0.232  11.861  20.417  0.00  0.00    +0.000 C 
ATOM     13  O   UNL     1      -1.460  11.962  20.358  0.00  0.00    +0.000 OA
ATOM     14  N   UNL     1       0.572  12.997  20.235  0.00  0.00    +0.000 N 
ATOM     15  C   UNL     1      -0.061  14.318  20.234  0.00  0.00    +0.000 C 
ATOM     16  C   UNL     1       0.281  15.107  18.971  0.00  0.00    +0.000 C 
ATOM     17  C   UNL     1       1.790  15.166  18.746  0.00  0.00    +0.000 C 
ATOM     18  C   UNL     1       2.385  13.765  18.742  0.00  0.00    +0.000 C 
ATOM     19  C   UNL     1       2.019  13.004  20.011  0.00  0.00    +0.000 C 
ENDBRANCH  10  12
ENDBRANCH   4   7
BRANCH   1  21
ATOM     20  C   UNL     1       4.724   3.558  17.309  0.00  0.00    +0.000 C 
ATOM     21  S   UNL     1       3.879   3.104  18.803  0.00  0.00    +0.000 S 
ATOM     22  O   UNL     1       2.796   2.211  18.432  0.00  0.00    +0.000 OA
ATOM     23  O   UNL     1       4.839   2.690  19.802  0.00  0.00    +0.000 OA
ENDBRANCH   1  21
BRANCH   6  24
ATOM     24  N   UNL     1       1.877   3.487  21.200  0.00  0.00    +0.000 N 
ATOM     25  O   UNL     1       2.573   3.324  22.211  0.00  0.00    +0.000 OA
ATOM     26  O   UNL     1       0.884   2.824  20.879  0.00  0.00    +0.000 OA
ENDBRANCH   6  24
TORSDOF 4
ENDMDL
MODEL 3
REMARK VINA RESULT:      -7.5      1.826      2.437
REMARK  Name = 
REMARK  5 active torsions:
REMARK  status: ('A' for Active; 'I' for Inactive)
REMARK    1  A    between atoms: C_1  and  S_2
REMARK    2  A    between atoms: S_2  and  C_5
REMARK    3  A    between atoms: C_8  and  C_9
REMARK    4  A    between atoms: C_12  and  C_13
REMARK    5  A    between atoms: C_23  and  N_24
REMARK                            x       y       z     vdW  Elec       q    Type
REMARK                         _______ _______ _______ _____ _____    ______ ____
ROOT
ATOM      1  C   UNL     1       4.922   5.573  17.175  0.00  0.00    +0.000 A 
ATOM      2  C   UNL     1       4.608   6.889  16.817  0.00  0.00    +0.000 A 
ATOM      3  C   UNL     1       3.639   7.598  17.535  0.00  0.00    +0.000 A 
ATOM      4  C   UNL     1       2.943   7.007  18.604  0.00  0.00    +0.000 A 
ATOM      5  C   UNL     1       3.239   5.679  18.938  0.00  0.00    +0.000 A 
ATOM      6  C   UNL     1       4.223   4.976  18.225  0.00  0.00    +0.000 A 
ENDROOT
BRANCH   4   7
ATOM      7  C   UNL     1       2.008   7.831  19.385  0.00  0.00    +0.000 A 
ATOM      8  N   UNL     1       1.578   7.488  20.582  0.00  0.00    +0.000 NA
ATOM      9  C   UNL     1       0.633   8.393  21.015  0.00  0.00    +0.000 A 
ATOM     10  C   UNL     1       0.422   9.491  20.206  0.00  0.00    +0.000 A 
ATOM     11  S   UNL     1       1.382   9.317  18.789  0.00  0.00    +0.000 S 
BRANCH  10  12
ATOM     12  C   UNL     1      -0.487  10.619  20.338  0.00  0.00    +0.000 C 
ATOM     13  O   UNL     1      -0.545  11.266  21.386  0.00  0.00    +0.000 OA
ATOM     14  N   UNL     1      -1.288  10.984  19.245  0.00  0.00    +0.000 N 
ATOM     15  C   UNL     1      -1.984  12.273  19.280  0.00  0.00    +0.000 C 
ATOM     16  C   UNL     1      -3.485  12.111  19.043  0.00  0.00    +0.000 C 
ATOM     17  C   UNL     1      -3.763  11.314  17.771  0.00  0.00    +0.000 C 
ATOM     18  C   UNL     1      -3.027   9.982  17.803  0.00  0.00    +0.000 C 
ATOM     19  C   UNL     1      -1.535  10.179  18.047  0.00  0.00    +0.000 C 
ENDBRANCH  10  12
ENDBRANCH   4   7
BRANCH   1  21
ATOM     20  C   UNL     1       7.523   4.527  17.283  0.00  0.00    +0.000 C 
ATOM     21  S   UNL     1       6.128   4.710  16.203  0.00  0.00    +0.000 S 
ATOM     22  O   UNL     1       6.522   5.615  15.137  0.00  0.00    +0.000 OA
ATOM     23  O   UNL     1       5.587   3.409  15.876  0.00  0.00    +0.000 OA
ENDBRANCH   1  21
BRANCH   6  24
ATOM     24  N   UNL     1       4.550   3.651  18.711  0.00  0.00    +0.000 N 
ATOM     25  O   UNL     1       5.468   3.584  19.540  0.00  0.00    +0.000 OA
ATOM     26  O   UNL     1       3.821   2.722  18.348  0.00  0.00    +0.000 OA
ENDBRANCH   6  24
TORSDOF 4
ENDMDL
MODEL 4
REMARK VINA RESULT:      -7.4      1.681      2.519
REMARK  Name = 
REMARK  5 active torsions:
REMARK  status: ('A' for Active; 'I' for Inactive)
REMARK    1  A    between atoms: C_1  and  S_2
REMARK    2  A    between atoms: S_2  and  C_5
REMARK    3  A    between atoms: C_8  and  C_9
REMARK    4  A    between atoms: C_12  and  C_13
REMARK    5  A    between atoms: C_23  and  N_24
REMARK                            x       y       z     vdW  Elec       q    Type
REMARK                         _______ _______ _______ _____ _____    ______ ____
ROOT
ATOM      1  C   UNL     1       5.297   5.528  17.102  0.00  0.00    +0.000 A 
ATOM      2  C   UNL     1       4.630   6.504  16.352  0.00  0.00    +0.000 A 
ATOM      3  C   UNL     1       3.643   7.294  16.952  0.00  0.00    +0.000 A 
ATOM      4  C   UNL     1       3.278   7.114  18.298  0.00  0.00    +0.000 A 
ATOM      5  C   UNL     1       3.927   6.114  19.035  0.00  0.00    +0.000 A 
ATOM      6  C   UNL     1       4.928   5.333  18.434  0.00  0.00    +0.000 A 
ENDROOT
BRANCH   4   7
ATOM      7  C   UNL     1       2.307   8.038  18.900  0.00  0.00    +0.000 A 
ATOM      8  N   UNL     1       1.829   7.882  20.119  0.00  0.00    +0.000 NA
ATOM      9  C   UNL     1       0.862   8.832  20.365  0.00  0.00    +0.000 A 
ATOM     10  C   UNL     1       0.679   9.787  19.386  0.00  0.00    +0.000 A 
ATOM     11  S   UNL     1       1.698   9.405  18.054  0.00  0.00    +0.000 S 
BRANCH  10  12
ATOM     12  C   UNL     1      -0.242  10.910  19.301  0.00  0.00    +0.000 C 
ATOM     13  O   UNL     1      -0.139  11.872  20.067  0.00  0.00    +0.000 OA
ATOM     14  N   UNL     1      -1.242  10.904  18.317  0.00  0.00    +0.000 N 
ATOM     15  C   UNL     1      -1.977  12.143  18.050  0.00  0.00    +0.000 C 
ATOM     16  C   UNL     1      -3.487  11.938  18.163  0.00  0.00    +0.000 C 
ATOM     17  C   UNL     1      -3.954  10.767  17.301  0.00  0.00    +0.000 C 
ATOM     18  C   UNL     1      -3.165   9.510  17.637  0.00  0.00    +0.000 C 
ATOM     19  C   UNL     1      -1.664   9.750  17.522  0.00  0.00    +0.000 C 
ENDBRANCH  10  12
ENDBRANCH   4   7
BRANCH   1  21
ATOM     20  C   UNL     1       6.678   5.268  14.674  0.00  0.00    +0.000 C 
ATOM     21  S   UNL     1       6.507   4.528  16.279  0.00  0.00    +0.000 S 
ATOM     22  O   UNL     1       5.903   3.221  16.089  0.00  0.00    +0.000 OA
ATOM     23  O   UNL     1       7.751   4.645  17.008  0.00  0.00    +0.000 OA
ENDBRANCH   1  21
BRANCH   6  24
ATOM     24  N   UNL     1       5.629   4.405  19.298  0.00  0.00    +0.000 N 
ATOM     25  O   UNL     1       5.200   3.244  19.317  0.00  0.00    +0.000 OA
ATOM     26  O   UNL     1       6.654   4.817  19.852  0.00  0.00    +0.000 OA
ENDBRANCH   6  24
TORSDOF 4
ENDMDL
MODEL 5
REMARK VINA RESULT:      -7.3      1.706      2.480
REMARK  Name = 
REMARK  5 active torsions:
REMARK  status: ('A' for Active; 'I' for Inactive)
REMARK    1  A    between atoms: C_1  and  S_2
REMARK    2  A    between atoms: S_2  and  C_5
REMARK    3  A    between atoms: C_8  and  C_9
REMARK    4  A    between atoms: C_12  and  C_13
REMARK    5  A    between atoms: C_23  and  N_24
REMARK                            x       y       z     vdW  Elec       q    Type
REMARK                         _______ _______ _______ _____ _____    ______ ____
ROOT
ATOM      1  C   UNL     1       5.411   5.724  16.949  0.00  0.00    +0.000 A 
ATOM      2  C   UNL     1       5.113   7.030  16.544  0.00  0.00    +0.000 A 
ATOM      3  C   UNL     1       4.082   7.739  17.170  0.00  0.00    +0.000 A 
ATOM      4  C   UNL     1       3.309   7.159  18.191  0.00  0.00    +0.000 A 
ATOM      5  C   UNL     1       3.592   5.841  18.572  0.00  0.00    +0.000 A 
ATOM      6  C   UNL     1       4.637   5.137  17.951  0.00  0.00    +0.000 A 
ENDROOT
BRANCH   4   7
ATOM      7  C   UNL     1       2.307   7.985  18.880  0.00  0.00    +0.000 A 
ATOM      8  N   UNL     1       1.832   7.689  20.074  0.00  0.00    +0.000 NA
ATOM      9  C   UNL     1       0.834   8.578  20.411  0.00  0.00    +0.000 A 
ATOM     10  C   UNL     1       0.621   9.621  19.533  0.00  0.00    +0.000 A 
ATOM     11  S   UNL     1       1.655   9.411  18.174  0.00  0.00    +0.000 S 
BRANCH  10  12
ATOM     12  C   UNL     1      -0.336  10.716  19.559  0.00  0.00    +0.000 C 
ATOM     13  O   UNL     1      -0.337  11.534  20.483  0.00  0.00    +0.000 OA
ATOM     14  N   UNL     1      -1.250  10.853  18.504  0.00  0.00    +0.000 N 
ATOM     15  C   UNL     1      -2.012  12.098  18.386  0.00  0.00    +0.000 C 
ATOM     16  C   UNL     1      -3.516  11.836  18.328  0.00  0.00    +0.000 C 
ATOM     17  C   UNL     1      -3.861  10.819  17.243  0.00  0.00    +0.000 C 
ATOM     18  C   UNL     1      -3.050   9.544  17.429  0.00  0.00    +0.000 C 
ATOM     19  C   UNL     1      -1.556   9.842  17.490  0.00  0.00    +0.000 C 
ENDBRANCH  10  12
ENDBRANCH   4   7
BRANCH   1  21
ATOM     20  C   UNL     1       5.858   3.563  15.217  0.00  0.00    +0.000 C 
ATOM     21  S   UNL     1       6.698   4.859  16.091  0.00  0.00    +0.000 S 
ATOM     22  O   UNL     1       7.523   4.231  17.108  0.00  0.00    +0.000 OA
ATOM     23  O   UNL     1       7.298   5.777  15.148  0.00  0.00    +0.000 OA
ENDBRANCH   1  21
BRANCH   6  24
ATOM     24  N   UNL     1       4.938   3.824  18.485  0.00  0.00    +0.000 N 
ATOM     25  O   UNL     1       5.661   3.796  19.490  0.00  0.00    +0.000 OA
ATOM     26  O   UNL     1       4.364   2.860  17.968  0.00  0.00    +0.000 OA
ENDBRANCH   6  24
TORSDOF 4
ENDMDL
MODEL 6
REMARK VINA RESULT:      -7.2      2.760      3.577
REMARK  Name = 
REMARK  5 active torsions:
REMARK  status: ('A' for Active; 'I' for Inactive)
REMARK    1  A    between atoms: C_1  and  S_2
REMARK    2  A    between atoms: S_2  and  C_5
REMARK    3  A    between atoms: C_8  and  C_9
REMARK    4  A    between atoms: C_12  and  C_13
REMARK    5  A    between atoms: C_23  and  N_24
REMARK                            x       y       z     vdW  Elec       q    Type
REMARK                         _______ _______ _______ _____ _____    ______ ____
ROOT
ATOM      1  C   UNL     1       3.200   4.679  19.335  0.00  0.00    +0.000 A 
ATOM      2  C   UNL     1       3.479   5.863  18.642  0.00  0.00    +0.000 A 
ATOM      3  C   UNL     1       2.800   7.041  18.970  0.00  0.00    +0.000 A 
ATOM      4  C   UNL     1       1.812   7.063  19.971  0.00  0.00    +0.000 A 
ATOM      5  C   UNL     1       1.516   5.868  20.639  0.00  0.00    +0.000 A 
ATOM      6  C   UNL     1       2.210   4.691  20.317  0.00  0.00    +0.000 A 
ENDROOT
BRANCH   4   7
ATOM      7  C   UNL     1       1.204   8.350  20.340  0.00  0.00    +0.000 A 
ATOM      8  N   UNL     1       1.465   9.475  19.706  0.00  0.00    +0.000 NA
ATOM      9  C   UNL     1       0.839  10.525  20.343  0.00  0.00    +0.000 A 
ATOM     10  C   UNL     1       0.007  10.195  21.393  0.00  0.00    +0.000 A 
ATOM     11  S   UNL     1       0.101   8.497  21.652  0.00  0.00    +0.000 S 
BRANCH  10  12
ATOM     12  C   UNL     1      -0.789  11.025  22.284  0.00  0.00    +0.000 C 
ATOM     13  O   UNL     1      -0.821  10.802  23.497  0.00  0.00    +0.000 OA
ATOM     14  N   UNL     1      -1.508  12.106  21.752  0.00  0.00    +0.000 N 
ATOM     15  C   UNL     1      -2.072  13.099  22.671  0.00  0.00    +0.000 C 
ATOM     16  C   UNL     1      -3.572  13.288  22.447  0.00  0.00    +0.000 C 
ATOM     17  C   UNL     1      -3.881  13.585  20.981  0.00  0.00    +0.000 C 
ATOM     18  C   UNL     1      -3.284  12.511  20.082  0.00  0.00    +0.000 C 
ATOM     19  C   UNL     1      -1.790  12.344  20.335  0.00  0.00    +0.000 C 
ENDBRANCH  10  12
ENDBRANCH   4   7
BRANCH   1  21
ATOM     20  C   UNL     1       5.068   3.715  17.476  0.00  0.00    +0.000 C 
ATOM     21  S   UNL     1       4.061   3.208  18.847  0.00  0.00    +0.000 S 
ATOM     22  O   UNL     1       3.057   2.294  18.331  0.00  0.00    +0.000 OA
ATOM     23  O   UNL     1       4.904   2.799  19.950  0.00  0.00    +0.000 OA
ENDBRANCH   1  21
BRANCH   6  24
ATOM     24  N   UNL     1       1.926   3.530  21.137  0.00  0.00    +0.000 N 
ATOM     25  O   UNL     1       2.551   3.447  22.202  0.00  0.00    +0.000 OA
ATOM     26  O   UNL     1       1.014   2.786  20.762  0.00  0.00    +0.000 OA
ENDBRANCH   6  24
TORSDOF 4
ENDMDL
MODEL 7
REMARK VINA RESULT:      -7.1      2.086      3.219
REMARK  Name = 
REMARK  5 active torsions:
REMARK  status: ('A' for Active; 'I' for Inactive)
REMARK    1  A    between atoms: C_1  and  S_2
REMARK    2  A    between atoms: S_2  and  C_5
REMARK    3  A    between atoms: C_8  and  C_9
REMARK    4  A    between atoms: C_12  and  C_13
REMARK    5  A    between atoms: C_23  and  N_24
REMARK                            x       y       z     vdW  Elec       q    Type
REMARK                         _______ _______ _______ _____ _____    ______ ____
ROOT
ATOM      1  C   UNL     1       3.076   4.339  19.590  0.00  0.00    +0.000 A 
ATOM      2  C   UNL     1       2.212   5.028  20.450  0.00  0.00    +0.000 A 
ATOM      3  C   UNL     1       1.893   6.366  20.197  0.00  0.00    +0.000 A 
ATOM      4  C   UNL     1       2.445   7.057  19.103  0.00  0.00    +0.000 A 
ATOM      5  C   UNL     1       3.334   6.371  18.264  0.00  0.00    +0.000 A 
ATOM      6  C   UNL     1       3.640   5.024  18.513  0.00  0.00    +0.000 A 
ENDROOT
BRANCH   4   7
ATOM      7  C   UNL     1       1.997   8.430  18.830  0.00  0.00    +0.000 A 
ATOM      8  N   UNL     1       2.295   9.074  17.719  0.00  0.00    +0.000 NA
ATOM      9  C   UNL     1       1.835  10.371  17.795  0.00  0.00    +0.000 A 
ATOM     10  C   UNL     1       1.085  10.690  18.908  0.00  0.00    +0.000 A 
ATOM     11  S   UNL     1       1.049   9.323  19.952  0.00  0.00    +0.000 S 
BRANCH  10  12
ATOM     12  C   UNL     1       0.461  11.938  19.319  0.00  0.00    +0.000 C 
ATOM     13  O   UNL     1      -0.750  11.995  19.547  0.00  0.00    +0.000 OA
ATOM     14  N   UNL     1       1.257  13.082  19.479  0.00  0.00    +0.000 N 
ATOM     15  C   UNL     1       0.688  14.249  20.157  0.00  0.00    +0.000 C 
ATOM     16  C   UNL     1       0.806  15.511  19.303  0.00  0.00    +0.000 C 
ATOM     17  C   UNL     1       2.243  15.732  18.835  0.00  0.00    +0.000 C 
ATOM     18  C   UNL     1       2.769  14.492  18.126  0.00  0.00    +0.000 C 
ATOM     19  C   UNL     1       2.631  13.252  19.002  0.00  0.00    +0.000 C 
ENDBRANCH  10  12
ENDBRANCH   4   7
BRANCH   1  21
ATOM     20  C   UNL     1       2.716   2.378  21.564  0.00  0.00    +0.000 C 
ATOM     21  S   UNL     1       3.477   2.658  19.985  0.00  0.00    +0.000 S 
ATOM     22  O   UNL     1       4.915   2.613  20.184  0.00  0.00    +0.000 OA
ATOM     23  O   UNL     1       2.864   1.809  18.988  0.00  0.00    +0.000 OA
ENDBRANCH   1  21
BRANCH   6  24
ATOM     24  N   UNL     1       4.473   4.359  17.531  0.00  0.00    +0.000 N 
ATOM     25  O   UNL     1       3.880   3.820  16.587  0.00  0.00    +0.000 OA
ATOM     26  O   UNL     1       5.696   4.480  17.656  0.00  0.00    +0.000 OA
ENDBRANCH   6  24
TORSDOF 4
ENDMDL
MODEL 8
REMARK VINA RESULT:      -7.0      2.396      3.550
REMARK  Name = 
REMARK  5 active torsions:
REMARK  status: ('A' for Active; 'I' for Inactive)
REMARK    1  A    between atoms: C_1  and  S_2
REMARK    2  A    between atoms: S_2  and  C_5
REMARK    3  A    between atoms: C_8  and  C_9
REMARK    4  A    between atoms: C_12  and  C_13
REMARK    5  A    between atoms: C_23  and  N_24
REMARK                            x       y       z     vdW  Elec       q    Type
REMARK                         _______ _______ _______ _____ _____    ______ ____
ROOT
ATOM      1  C   UNL     1       3.972   5.525  18.006  0.00  0.00    +0.000 A 
ATOM      2  C   UNL     1       2.878   5.502  18.879  0.00  0.00    +0.000 A 
ATOM      3  C   UNL     1       2.156   6.675  19.127  0.00  0.00    +0.000 A 
ATOM      4  C   UNL     1       2.521   7.898  18.537  0.00  0.00    +0.000 A 
ATOM      5  C   UNL     1       3.635   7.921  17.688  0.00  0.00    +0.000 A 
ATOM      6  C   UNL     1       4.348   6.739  17.430  0.00  0.00    +0.000 A 
ENDROOT
BRANCH   4   7
ATOM      7  C   UNL     1       1.667   9.075  18.755  0.00  0.00    +0.000 A 
ATOM      8  N   UNL     1       1.737  10.159  18.009  0.00  0.00    +0.000 NA
ATOM      9  C   UNL     1       0.900  11.129  18.518  0.00  0.00    +0.000 A 
ATOM     10  C   UNL     1       0.103  10.754  19.581  0.00  0.00    +0.000 A 
ATOM     11  S   UNL     1       0.505   9.140  20.021  0.00  0.00    +0.000 S 
BRANCH  10  12
ATOM     12  C   UNL     1      -0.869  11.502  20.362  0.00  0.00    +0.000 C 
ATOM     13  O   UNL     1      -0.711  11.673  21.573  0.00  0.00    +0.000 OA
ATOM     14  N   UNL     1      -1.986  12.055  19.717  0.00  0.00    +0.000 N 
ATOM     15  C   UNL     1      -2.804  13.034  20.437  0.00  0.00    +0.000 C 
ATOM     16  C   UNL     1      -4.276  12.628  20.467  0.00  0.00    +0.000 C 
ATOM     17  C   UNL     1      -4.797  12.330  19.063  0.00  0.00    +0.000 C 
ATOM     18  C   UNL     1      -3.917  11.296  18.375  0.00  0.00    +0.000 C 
ATOM     19  C   UNL     1      -2.455  11.729  18.369  0.00  0.00    +0.000 C 
ENDBRANCH  10  12
ENDBRANCH   4   7
BRANCH   1  21
ATOM     20  C   UNL     1       3.894   2.778  18.570  0.00  0.00    +0.000 C 
ATOM     21  S   UNL     1       4.874   4.018  17.763  0.00  0.00    +0.000 S 
ATOM     22  O   UNL     1       6.108   4.151  18.515  0.00  0.00    +0.000 OA
ATOM     23  O   UNL     1       4.925   3.755  16.341  0.00  0.00    +0.000 OA
ENDBRANCH   1  21
BRANCH   6  24
ATOM     24  N   UNL     1       5.413   6.827  16.450  0.00  0.00    +0.000 N 
ATOM     25  O   UNL     1       5.065   6.809  15.262  0.00  0.00    +0.000 OA
ATOM     26  O   UNL     1       6.555   7.025  16.877  0.00  0.00    +0.000 OA
ENDBRANCH   6  24
TORSDOF 4
ENDMDL
MODEL 9
REMARK VINA RESULT:      -7.0      1.844      2.396
REMARK  Name = 
REMARK  5 active torsions:
REMARK  status: ('A' for Active; 'I' for Inactive)
REMARK    1  A    between atoms: C_1  and  S_2
REMARK    2  A    between atoms: S_2  and  C_5
REMARK    3  A    between atoms: C_8  and  C_9
REMARK    4  A    between atoms: C_12  and  C_13
REMARK    5  A    between atoms: C_23  and  N_24
REMARK                            x       y       z     vdW  Elec       q    Type
REMARK                         _______ _______ _______ _____ _____    ______ ____
ROOT
ATOM      1  C   UNL     1       5.082   5.435  17.175  0.00  0.00    +0.000 A 
ATOM      2  C   UNL     1       4.890   6.740  16.709  0.00  0.00    +0.000 A 
ATOM      3  C   UNL     1       3.903   7.550  17.281  0.00  0.00    +0.000 A 
ATOM      4  C   UNL     1       3.068   7.072  18.307  0.00  0.00    +0.000 A 
ATOM      5  C   UNL     1       3.245   5.754  18.748  0.00  0.00    +0.000 A 
ATOM      6  C   UNL     1       4.247   4.949  18.182  0.00  0.00    +0.000 A 
ENDROOT
BRANCH   4   7
ATOM      7  C   UNL     1       2.117   7.998  18.938  0.00  0.00    +0.000 A 
ATOM      8  N   UNL     1       1.592   9.029  18.306  0.00  0.00    +0.000 NA
ATOM      9  C   UNL     1       0.829   9.773  19.179  0.00  0.00    +0.000 A 
ATOM     10  C   UNL     1       0.672   9.254  20.448  0.00  0.00    +0.000 A 
ATOM     11  S   UNL     1       1.614   7.820  20.573  0.00  0.00    +0.000 S 
BRANCH  10  12
ATOM     12  C   UNL     1      -0.041   9.761  21.610  0.00  0.00    +0.000 C 
ATOM     13  O   UNL     1      -0.148   9.081  22.634  0.00  0.00    +0.000 OA
ATOM     14  N   UNL     1      -0.589  11.052  21.568  0.00  0.00    +0.000 N 
ATOM     15  C   UNL     1      -1.052  11.664  22.816  0.00  0.00    +0.000 C 
ATOM     16  C   UNL     1      -2.503  12.129  22.713  0.00  0.00    +0.000 C 
ATOM     17  C   UNL     1      -2.714  13.024  21.494  0.00  0.00    +0.000 C 
ATOM     18  C   UNL     1      -2.231  12.326  20.230  0.00  0.00    +0.000 C 
ATOM     19  C   UNL     1      -0.783  11.870  20.369  0.00  0.00    +0.000 C 
ENDBRANCH  10  12
ENDBRANCH   4   7
BRANCH   1  21
ATOM     20  C   UNL     1       6.748   5.348  14.920  0.00  0.00    +0.000 C 
ATOM     21  S   UNL     1       6.319   4.442  16.384  0.00  0.00    +0.000 S 
ATOM     22  O   UNL     1       5.658   3.221  15.958  0.00  0.00    +0.000 OA
ATOM     23  O   UNL     1       7.462   4.368  17.267  0.00  0.00    +0.000 OA
ENDBRANCH   1  21
BRANCH   6  24
ATOM     24  N   UNL     1       4.439   3.642  18.777  0.00  0.00    +0.000 N 
ATOM     25  O   UNL     1       3.705   2.738  18.358  0.00  0.00    +0.000 OA
ATOM     26  O   UNL     1       5.384   3.515  19.563  0.00  0.00    +0.000 OA
ENDBRANCH   6  24
TORSDOF 4
ENDMDL
