MODEL 1
REMARK VINA RESULT:      -7.6      0.000      0.000
REMARK  Name = 
REMARK  2 active torsions:
REMARK  status: ('A' for Active; 'I' for Inactive)
REMARK    1  A    between atoms: C_1  and  C_2
REMARK    2  A    between atoms: N_6  and  C_7
REMARK                            x       y       z     vdW  Elec       q    Type
REMARK                         _______ _______ _______ _____ _____    ______ ____
ROOT
ATOM      1  C   UNL     1       1.462   2.479  21.775  0.00  0.00    +0.000 C 
ATOM      2  C   UNL     1       1.870   3.065  20.481  0.00  0.00    +0.000 C 
ATOM      3  C   UNL     1       1.160   3.820  19.642  0.00  0.00    +0.000 C 
ATOM      4  C   UNL     1       2.063   4.298  18.597  0.00  0.00    +0.000 C 
ATOM      5  O   UNL     1       1.664   4.991  17.676  0.00  0.00    +0.000 OA
ATOM      6  N   UNL     1       3.310   3.810  18.871  0.00  0.00    +0.000 N 
ATOM      7  C   UNL     1       3.248   2.987  19.963  0.00  0.00    +0.000 C 
ATOM      8  O   UNL     1       4.120   2.336  20.513  0.00  0.00    +0.000 OA
ENDROOT
BRANCH   6   9
ATOM      9  C   UNL     1       4.497   4.179  18.185  0.00  0.00    +0.000 A 
ATOM     10  C   UNL     1       5.551   4.791  18.884  0.00  0.00    +0.000 A 
ATOM     11  C   UNL     1       6.762   5.073  18.251  0.00  0.00    +0.000 A 
ATOM     12 CL   UNL     1       8.061   5.738  19.163  0.00  0.00    +0.000 Cl
ATOM     13  C   UNL     1       6.939   4.795  16.903  0.00  0.00    +0.000 A 
ATOM     14  C   UNL     1       5.891   4.217  16.193  0.00  0.00    +0.000 A 
ATOM     15 CL   UNL     1       6.089   3.893  14.513  0.00  0.00    +0.000 Cl
ATOM     16  C   UNL     1       4.686   3.893  16.825  0.00  0.00    +0.000 A 
ENDBRANCH   6   9
TORSDOF 1
ENDMDL
MODEL 2
REMARK VINA RESULT:      -7.6      0.612      2.295
REMARK  Name = 
REMARK  2 active torsions:
REMARK  status: ('A' for Active; 'I' for Inactive)
REMARK    1  A    between atoms: C_1  and  C_2
REMARK    2  A    between atoms: N_6  and  C_7
REMARK                            x       y       z     vdW  Elec       q    Type
REMARK                         _______ _______ _______ _____ _____    ______ ____
ROOT
ATOM      1  C   UNL     1       2.031   2.472  21.699  0.00  0.00    +0.000 C 
ATOM      2  C   UNL     1       2.363   3.161  20.434  0.00  0.00    +0.000 C 
ATOM      3  C   UNL     1       1.619   4.008  19.721  0.00  0.00    +0.000 C 
ATOM      4  C   UNL     1       2.459   4.555  18.657  0.00  0.00    +0.000 C 
ATOM      5  O   UNL     1       2.018   5.338  17.834  0.00  0.00    +0.000 OA
ATOM      6  N   UNL     1       3.706   4.011  18.792  0.00  0.00    +0.000 N 
ATOM      7  C   UNL     1       3.697   3.095  19.809  0.00  0.00    +0.000 C 
ATOM      8  O   UNL     1       4.584   2.374  20.233  0.00  0.00    +0.000 OA
ENDROOT
BRANCH   6   9
ATOM      9  C   UNL     1       4.852   4.409  18.055  0.00  0.00    +0.000 A 
ATOM     10  C   UNL     1       5.056   3.919  16.754  0.00  0.00    +0.000 A 
ATOM     11  C   UNL     1       6.123   4.371  15.977  0.00  0.00    +0.000 A 
ATOM     12 CL   UNL     1       6.286   3.816  14.356  0.00  0.00    +0.000 Cl
ATOM     13  C   UNL     1       7.033   5.286  16.487  0.00  0.00    +0.000 A 
ATOM     14  C   UNL     1       6.859   5.756  17.785  0.00  0.00    +0.000 A 
ATOM     15 CL   UNL     1       7.998   6.871  18.438  0.00  0.00    +0.000 Cl
ATOM     16  C   UNL     1       5.772   5.340  18.560  0.00  0.00    +0.000 A 
ENDBRANCH   6   9
TORSDOF 1
ENDMDL
MODEL 3
REMARK VINA RESULT:      -7.4      3.193      5.511
REMARK  Name = 
REMARK  2 active torsions:
REMARK  status: ('A' for Active; 'I' for Inactive)
REMARK    1  A    between atoms: C_1  and  C_2
REMARK    2  A    between atoms: N_6  and  C_7
REMARK                            x       y       z     vdW  Elec       q    Type
REMARK                         _______ _______ _______ _____ _____    ______ ____
ROOT
ATOM      1  C   UNL     1       6.756   4.344  15.065  0.00  0.00    +0.000 C 
ATOM      2  C   UNL     1       6.452   4.466  16.507  0.00  0.00    +0.000 C 
ATOM      3  C   UNL     1       7.256   4.837  17.504  0.00  0.00    +0.000 C 
ATOM      4  C   UNL     1       6.440   4.975  18.708  0.00  0.00    +0.000 C 
ATOM      5  O   UNL     1       6.932   5.277  19.782  0.00  0.00    +0.000 OA
ATOM      6  N   UNL     1       5.147   4.689  18.369  0.00  0.00    +0.000 N 
ATOM      7  C   UNL     1       5.096   4.296  17.059  0.00  0.00    +0.000 C 
ATOM      8  O   UNL     1       4.152   3.932  16.378  0.00  0.00    +0.000 OA
ENDROOT
BRANCH   6   9
ATOM      9  C   UNL     1       4.024   4.867  19.219  0.00  0.00    +0.000 A 
ATOM     10  C   UNL     1       3.453   6.141  19.371  0.00  0.00    +0.000 A 
ATOM     11  C   UNL     1       2.293   6.321  20.124  0.00  0.00    +0.000 A 
ATOM     12 CL   UNL     1       1.572   7.882  20.212  0.00  0.00    +0.000 Cl
ATOM     13  C   UNL     1       1.698   5.250  20.776  0.00  0.00    +0.000 A 
ATOM     14  C   UNL     1       2.272   3.988  20.657  0.00  0.00    +0.000 A 
ATOM     15 CL   UNL     1       1.558   2.656  21.485  0.00  0.00    +0.000 Cl
ATOM     16  C   UNL     1       3.412   3.788  19.874  0.00  0.00    +0.000 A 
ENDBRANCH   6   9
TORSDOF 1
ENDMDL
MODEL 4
REMARK VINA RESULT:      -7.4      1.019      2.087
REMARK  Name = 
REMARK  2 active torsions:
REMARK  status: ('A' for Active; 'I' for Inactive)
REMARK    1  A    between atoms: C_1  and  C_2
REMARK    2  A    between atoms: N_6  and  C_7
REMARK                            x       y       z     vdW  Elec       q    Type
REMARK                         _______ _______ _______ _____ _____    ______ ____
ROOT
ATOM      1  C   UNL     1       0.623   3.623  20.424  0.00  0.00    +0.000 C 
ATOM      2  C   UNL     1       2.076   3.540  20.163  0.00  0.00    +0.000 C 
ATOM      3  C   UNL     1       2.939   2.591  20.526  0.00  0.00    +0.000 C 
ATOM      4  C   UNL     1       4.216   2.874  19.874  0.00  0.00    +0.000 C 
ATOM      5  O   UNL     1       5.197   2.174  20.058  0.00  0.00    +0.000 OA
ATOM      6  N   UNL     1       4.054   4.000  19.116  0.00  0.00    +0.000 N 
ATOM      7  C   UNL     1       2.795   4.501  19.307  0.00  0.00    +0.000 C 
ATOM      8  O   UNL     1       2.261   5.496  18.847  0.00  0.00    +0.000 OA
ENDROOT
BRANCH   6   9
ATOM      9  C   UNL     1       5.012   4.510  18.201  0.00  0.00    +0.000 A 
ATOM     10  C   UNL     1       5.904   5.517  18.606  0.00  0.00    +0.000 A 
ATOM     11  C   UNL     1       6.914   5.964  17.754  0.00  0.00    +0.000 A 
ATOM     12 CL   UNL     1       8.044   7.133  18.319  0.00  0.00    +0.000 Cl
ATOM     13  C   UNL     1       7.036   5.453  16.469  0.00  0.00    +0.000 A 
ATOM     14  C   UNL     1       6.139   4.478  16.046  0.00  0.00    +0.000 A 
ATOM     15 CL   UNL     1       6.262   3.857  14.444  0.00  0.00    +0.000 Cl
ATOM     16  C   UNL     1       5.146   3.993  16.903  0.00  0.00    +0.000 A 
ENDBRANCH   6   9
TORSDOF 1
ENDMDL
MODEL 5
REMARK VINA RESULT:      -7.4      0.991      3.065
REMARK  Name = 
REMARK  2 active torsions:
REMARK  status: ('A' for Active; 'I' for Inactive)
REMARK    1  A    between atoms: C_1  and  C_2
REMARK    2  A    between atoms: N_6  and  C_7
REMARK                            x       y       z     vdW  Elec       q    Type
REMARK                         _______ _______ _______ _____ _____    ______ ____
ROOT
ATOM      1  C   UNL     1       0.489   3.294  19.742  0.00  0.00    +0.000 C 
ATOM      2  C   UNL     1       1.966   3.342  19.687  0.00  0.00    +0.000 C 
ATOM      3  C   UNL     1       2.853   2.534  20.269  0.00  0.00    +0.000 C 
ATOM      4  C   UNL     1       4.178   2.885  19.762  0.00  0.00    +0.000 C 
ATOM      5  O   UNL     1       5.183   2.317  20.155  0.00  0.00    +0.000 OA
ATOM      6  N   UNL     1       4.023   3.904  18.864  0.00  0.00    +0.000 N 
ATOM      7  C   UNL     1       2.708   4.283  18.827  0.00  0.00    +0.000 C 
ATOM      8  O   UNL     1       2.156   5.162  18.188  0.00  0.00    +0.000 OA
ENDROOT
BRANCH   6   9
ATOM      9  C   UNL     1       5.050   4.418  18.031  0.00  0.00    +0.000 A 
ATOM     10  C   UNL     1       5.196   3.942  16.717  0.00  0.00    +0.000 A 
ATOM     11  C   UNL     1       6.136   4.501  15.852  0.00  0.00    +0.000 A 
ATOM     12 CL   UNL     1       6.221   3.953  14.223  0.00  0.00    +0.000 Cl
ATOM     13  C   UNL     1       6.980   5.515  16.283  0.00  0.00    +0.000 A 
ATOM     14  C   UNL     1       6.867   5.974  17.591  0.00  0.00    +0.000 A 
ATOM     15 CL   UNL     1       7.929   7.212  18.145  0.00  0.00    +0.000 Cl
ATOM     16  C   UNL     1       5.902   5.449  18.456  0.00  0.00    +0.000 A 
ENDBRANCH   6   9
TORSDOF 1
ENDMDL
MODEL 6
REMARK VINA RESULT:      -7.3      3.211      5.593
REMARK  Name = 
REMARK  2 active torsions:
REMARK  status: ('A' for Active; 'I' for Inactive)
REMARK    1  A    between atoms: C_1  and  C_2
REMARK    2  A    between atoms: N_6  and  C_7
REMARK                            x       y       z     vdW  Elec       q    Type
REMARK                         _______ _______ _______ _____ _____    ______ ____
ROOT
ATOM      1  C   UNL     1       6.958   4.536  15.040  0.00  0.00    +0.000 C 
ATOM      2  C   UNL     1       6.592   4.579  16.472  0.00  0.00    +0.000 C 
ATOM      3  C   UNL     1       7.356   4.883  17.523  0.00  0.00    +0.000 C 
ATOM      4  C   UNL     1       6.489   4.961  18.697  0.00  0.00    +0.000 C 
ATOM      5  O   UNL     1       6.937   5.197  19.807  0.00  0.00    +0.000 OA
ATOM      6  N   UNL     1       5.210   4.710  18.287  0.00  0.00    +0.000 N 
ATOM      7  C   UNL     1       5.212   4.393  16.955  0.00  0.00    +0.000 C 
ATOM      8  O   UNL     1       4.296   4.078  16.215  0.00  0.00    +0.000 OA
ENDROOT
BRANCH   6   9
ATOM      9  C   UNL     1       4.053   4.851  19.097  0.00  0.00    +0.000 A 
ATOM     10  C   UNL     1       3.540   3.742  19.790  0.00  0.00    +0.000 A 
ATOM     11  C   UNL     1       2.463   3.880  20.665  0.00  0.00    +0.000 A 
ATOM     12 CL   UNL     1       1.922   2.516  21.566  0.00  0.00    +0.000 Cl
ATOM     13  C   UNL     1       1.844   5.110  20.840  0.00  0.00    +0.000 A 
ATOM     14  C   UNL     1       2.324   6.209  20.136  0.00  0.00    +0.000 A 
ATOM     15 CL   UNL     1       1.547   7.735  20.323  0.00  0.00    +0.000 Cl
ATOM     16  C   UNL     1       3.427   6.093  19.285  0.00  0.00    +0.000 A 
ENDBRANCH   6   9
TORSDOF 1
ENDMDL
MODEL 7
REMARK VINA RESULT:      -7.0      1.517      2.701
REMARK  Name = 
REMARK  2 active torsions:
REMARK  status: ('A' for Active; 'I' for Inactive)
REMARK    1  A    between atoms: C_1  and  C_2
REMARK    2  A    between atoms: N_6  and  C_7
REMARK                            x       y       z     vdW  Elec       q    Type
REMARK                         _______ _______ _______ _____ _____    ______ ____
ROOT
ATOM      1  C   UNL     1       0.588   2.109  18.958  0.00  0.00    +0.000 C 
ATOM      2  C   UNL     1       1.466   3.182  18.445  0.00  0.00    +0.000 C 
ATOM      3  C   UNL     1       1.277   4.502  18.467  0.00  0.00    +0.000 C 
ATOM      4  C   UNL     1       2.509   5.139  18.007  0.00  0.00    +0.000 C 
ATOM      5  O   UNL     1       2.600   6.350  17.900  0.00  0.00    +0.000 OA
ATOM      6  N   UNL     1       3.412   4.149  17.736  0.00  0.00    +0.000 N 
ATOM      7  C   UNL     1       2.816   2.929  17.909  0.00  0.00    +0.000 C 
ATOM      8  O   UNL     1       3.256   1.803  17.747  0.00  0.00    +0.000 OA
ENDROOT
BRANCH   6   9
ATOM      9  C   UNL     1       4.780   4.359  17.421  0.00  0.00    +0.000 A 
ATOM     10  C   UNL     1       5.226   4.215  16.097  0.00  0.00    +0.000 A 
ATOM     11  C   UNL     1       6.544   4.510  15.749  0.00  0.00    +0.000 A 
ATOM     12 CL   UNL     1       7.029   4.409  14.101  0.00  0.00    +0.000 Cl
ATOM     13  C   UNL     1       7.459   4.913  16.713  0.00  0.00    +0.000 A 
ATOM     14  C   UNL     1       7.036   5.029  18.033  0.00  0.00    +0.000 A 
ATOM     15 CL   UNL     1       8.168   5.501  19.242  0.00  0.00    +0.000 Cl
ATOM     16  C   UNL     1       5.708   4.774  18.388  0.00  0.00    +0.000 A 
ENDBRANCH   6   9
TORSDOF 1
ENDMDL
MODEL 8
REMARK VINA RESULT:      -6.9      1.519      1.541
REMARK  Name = 
REMARK  2 active torsions:
REMARK  status: ('A' for Active; 'I' for Inactive)
REMARK    1  A    between atoms: C_1  and  C_2
REMARK    2  A    between atoms: N_6  and  C_7
REMARK                            x       y       z     vdW  Elec       q    Type
REMARK                         _______ _______ _______ _____ _____    ______ ____
ROOT
ATOM      1  C   UNL     1       0.769   2.025  19.021  0.00  0.00    +0.000 C 
ATOM      2  C   UNL     1       1.539   3.182  18.515  0.00  0.00    +0.000 C 
ATOM      3  C   UNL     1       1.257   4.482  18.610  0.00  0.00    +0.000 C 
ATOM      4  C   UNL     1       2.413   5.227  18.117  0.00  0.00    +0.000 C 
ATOM      5  O   UNL     1       2.413   6.445  18.063  0.00  0.00    +0.000 OA
ATOM      6  N   UNL     1       3.369   4.319  17.755  0.00  0.00    +0.000 N 
ATOM      7  C   UNL     1       2.872   3.052  17.900  0.00  0.00    +0.000 C 
ATOM      8  O   UNL     1       3.382   1.970  17.663  0.00  0.00    +0.000 OA
ENDROOT
BRANCH   6   9
ATOM      9  C   UNL     1       4.699   4.643  17.380  0.00  0.00    +0.000 A 
ATOM     10  C   UNL     1       5.628   5.039  18.356  0.00  0.00    +0.000 A 
ATOM     11  C   UNL     1       6.963   5.268  18.024  0.00  0.00    +0.000 A 
ATOM     12 CL   UNL     1       8.090   5.662  19.264  0.00  0.00    +0.000 Cl
ATOM     13  C   UNL     1       7.397   5.151  16.711  0.00  0.00    +0.000 A 
ATOM     14  C   UNL     1       6.479   4.789  15.730  0.00  0.00    +0.000 A 
ATOM     15 CL   UNL     1       7.000   4.669  14.092  0.00  0.00    +0.000 Cl
ATOM     16  C   UNL     1       5.147   4.519  16.056  0.00  0.00    +0.000 A 
ENDBRANCH   6   9
TORSDOF 1
ENDMDL
MODEL 9
REMARK VINA RESULT:      -6.9      1.315      1.323
REMARK  Name = 
REMARK  2 active torsions:
REMARK  status: ('A' for Active; 'I' for Inactive)
REMARK    1  A    between atoms: C_1  and  C_2
REMARK    2  A    between atoms: N_6  and  C_7
REMARK                            x       y       z     vdW  Elec       q    Type
REMARK                         _______ _______ _______ _____ _____    ______ ____
ROOT
ATOM      1  C   UNL     1       1.257   2.629  20.803  0.00  0.00    +0.000 C 
ATOM      2  C   UNL     1       1.852   3.767  20.070  0.00  0.00    +0.000 C 
ATOM      3  C   UNL     1       1.626   5.072  20.223  0.00  0.00    +0.000 C 
ATOM      4  C   UNL     1       2.589   5.794  19.394  0.00  0.00    +0.000 C 
ATOM      5  O   UNL     1       2.585   7.011  19.323  0.00  0.00    +0.000 OA
ATOM      6  N   UNL     1       3.381   4.867  18.776  0.00  0.00    +0.000 N 
ATOM      7  C   UNL     1       2.936   3.609  19.085  0.00  0.00    +0.000 C 
ATOM      8  O   UNL     1       3.340   2.517  18.723  0.00  0.00    +0.000 OA
ENDROOT
BRANCH   6   9
ATOM      9  C   UNL     1       4.541   5.165  18.014  0.00  0.00    +0.000 A 
ATOM     10  C   UNL     1       5.640   5.792  18.623  0.00  0.00    +0.000 A 
ATOM     11  C   UNL     1       6.824   6.008  17.917  0.00  0.00    +0.000 A 
ATOM     12 CL   UNL     1       8.180   6.695  18.725  0.00  0.00    +0.000 Cl
ATOM     13  C   UNL     1       6.929   5.644  16.582  0.00  0.00    +0.000 A 
ATOM     14  C   UNL     1       5.836   5.050  15.959  0.00  0.00    +0.000 A 
ATOM     15 CL   UNL     1       5.945   4.621  14.295  0.00  0.00    +0.000 Cl
ATOM     16  C   UNL     1       4.657   4.794  16.666  0.00  0.00    +0.000 A 
ENDBRANCH   6   9
TORSDOF 1
ENDMDL
