MODEL 1
REMARK VINA RESULT:      -8.2      0.000      0.000
REMARK  Name = 
REMARK  6 active torsions:
REMARK  status: ('A' for Active; 'I' for Inactive)
REMARK    1  A    between atoms: C_1  and  C_2
REMARK    2  A    between atoms: C_7  and  S_8
REMARK    3  A    between atoms: S_8  and  C_9
REMARK    4  A    between atoms: C_9  and  C_10
REMARK    5  A    between atoms: N_12  and  C_13
REMARK    6  A    between atoms: C_16  and  C_17
REMARK                            x       y       z     vdW  Elec       q    Type
REMARK                         _______ _______ _______ _____ _____    ______ ____
ROOT
ATOM      1  S   UNL     1       7.010   6.243  16.893  0.00  0.00    +0.000 S 
ENDROOT
BRANCH   1   8
ATOM      2  C   UNL     1       1.115   2.899  21.262  0.00  0.00    +0.000 C 
ATOM      3  C   UNL     1       2.292   3.366  20.461  0.00  0.00    +0.000 A 
ATOM      4  C   UNL     1       3.458   2.513  20.389  0.00  0.00    +0.000 A 
ATOM      5  C   UNL     1       4.535   2.882  19.686  0.00  0.00    +0.000 A 
ATOM      6  C   UNL     1       4.535   4.186  18.974  0.00  0.00    +0.000 A 
ATOM      7  N   UNL     1       5.577   4.543  18.307  0.00  0.00    +0.000 NA
ATOM      8  C   UNL     1       5.535   5.751  17.698  0.00  0.00    +0.000 A 
ATOM      9  N   UNL     1       4.527   6.546  17.712  0.00  0.00    +0.000 NA
ATOM     10  C   UNL     1       3.400   6.163  18.385  0.00  0.00    +0.000 A 
ATOM     11  O   UNL     1       2.408   6.892  18.355  0.00  0.00    +0.000 OA
ATOM     12  N   UNL     1       3.410   4.960  19.073  0.00  0.00    +0.000 N 
ATOM     13  C   UNL     1       2.306   4.543  19.812  0.00  0.00    +0.000 A 
ENDBRANCH   1   8
BRANCH   1  14
ATOM     14  C   UNL     1       7.968   6.884  18.285  0.00  0.00    +0.000 C 
BRANCH  14  15
ATOM     15  C   UNL     1       8.134   8.387  18.176  0.00  0.00    +0.000 C 
ATOM     16  O   UNL     1       7.523   9.014  17.311  0.00  0.00    +0.000 OA
ATOM     17  N   UNL     1       9.026   8.927  19.089  0.00  0.00    +0.000 N 
ATOM     18  H   UNL     1       9.547   8.281  19.676  0.00  0.00    +0.000 HD
BRANCH  17  19
ATOM     19  C   UNL     1       9.384  10.291  19.176  0.00  0.00    +0.000 A 
ATOM     20  C   UNL     1       9.903  11.006  18.097  0.00  0.00    +0.000 A 
ATOM     21  C   UNL     1      10.356  12.315  18.259  0.00  0.00    +0.000 A 
ATOM     22  C   UNL     1      10.295  12.943  19.508  0.00  0.00    +0.000 A 
ATOM     23  C   UNL     1      10.917  14.300  19.672  0.00  0.00    +0.000 C 
ATOM     24  C   UNL     1       9.696  12.251  20.571  0.00  0.00    +0.000 A 
ATOM     25 CL   UNL     1       9.552  12.968  22.138  0.00  0.00    +0.000 Cl
ATOM     26  C   UNL     1       9.225  10.941  20.403  0.00  0.00    +0.000 A 
ENDBRANCH  17  19
ENDBRANCH  14  15
ENDBRANCH   1  14
TORSDOF 4
ENDMDL
MODEL 2
REMARK VINA RESULT:      -8.2      4.428      6.576
REMARK  Name = 
REMARK  6 active torsions:
REMARK  status: ('A' for Active; 'I' for Inactive)
REMARK    1  A    between atoms: C_1  and  C_2
REMARK    2  A    between atoms: C_7  and  S_8
REMARK    3  A    between atoms: S_8  and  C_9
REMARK    4  A    between atoms: C_9  and  C_10
REMARK    5  A    between atoms: N_12  and  C_13
REMARK    6  A    between atoms: C_16  and  C_17
REMARK                            x       y       z     vdW  Elec       q    Type
REMARK                         _______ _______ _______ _____ _____    ______ ____
ROOT
ATOM      1  S   UNL     1       7.692   5.532  19.527  0.00  0.00    +0.000 S 
ENDROOT
BRANCH   1   8
ATOM      2  C   UNL     1       0.398   2.187  18.734  0.00  0.00    +0.000 C 
ATOM      3  C   UNL     1       1.818   2.661  18.814  0.00  0.00    +0.000 A 
ATOM      4  C   UNL     1       2.877   1.709  18.558  0.00  0.00    +0.000 A 
ATOM      5  C   UNL     1       4.161   2.080  18.615  0.00  0.00    +0.000 A 
ATOM      6  C   UNL     1       4.504   3.486  18.949  0.00  0.00    +0.000 A 
ATOM      7  N   UNL     1       5.741   3.837  19.013  0.00  0.00    +0.000 NA
ATOM      8  C   UNL     1       5.999   5.125  19.346  0.00  0.00    +0.000 A 
ATOM      9  N   UNL     1       5.106   6.018  19.571  0.00  0.00    +0.000 NA
ATOM     10  C   UNL     1       3.788   5.668  19.469  0.00  0.00    +0.000 A 
ATOM     11  O   UNL     1       2.926   6.533  19.625  0.00  0.00    +0.000 OA
ATOM     12  N   UNL     1       3.468   4.350  19.186  0.00  0.00    +0.000 N 
ATOM     13  C   UNL     1       2.143   3.930  19.116  0.00  0.00    +0.000 A 
ENDBRANCH   1   8
BRANCH   1  14
ATOM     14  C   UNL     1       7.854   6.879  18.332  0.00  0.00    +0.000 C 
BRANCH  14  15
ATOM     15  C   UNL     1       7.070   6.575  17.070  0.00  0.00    +0.000 C 
ATOM     16  O   UNL     1       6.207   7.359  16.676  0.00  0.00    +0.000 OA
ATOM     17  N   UNL     1       7.402   5.369  16.474  0.00  0.00    +0.000 N 
ATOM     18  H   UNL     1       8.056   4.764  16.966  0.00  0.00    +0.000 HD
BRANCH  17  19
ATOM     19  C   UNL     1       6.800   4.836  15.311  0.00  0.00    +0.000 A 
ATOM     20  C   UNL     1       5.688   3.996  15.355  0.00  0.00    +0.000 A 
ATOM     21  C   UNL     1       5.200   3.395  14.194  0.00  0.00    +0.000 A 
ATOM     22  C   UNL     1       5.813   3.628  12.959  0.00  0.00    +0.000 A 
ATOM     23  C   UNL     1       5.345   2.857  11.757  0.00  0.00    +0.000 C 
ATOM     24  C   UNL     1       6.880   4.538  12.906  0.00  0.00    +0.000 A 
ATOM     25 CL   UNL     1       7.671   4.904  11.413  0.00  0.00    +0.000 Cl
ATOM     26  C   UNL     1       7.358   5.154  14.070  0.00  0.00    +0.000 A 
ENDBRANCH  17  19
ENDBRANCH  14  15
ENDBRANCH   1  14
TORSDOF 4
ENDMDL
MODEL 3
REMARK VINA RESULT:      -8.1      1.119      1.475
REMARK  Name = 
REMARK  6 active torsions:
REMARK  status: ('A' for Active; 'I' for Inactive)
REMARK    1  A    between atoms: C_1  and  C_2
REMARK    2  A    between atoms: C_7  and  S_8
REMARK    3  A    between atoms: S_8  and  C_9
REMARK    4  A    between atoms: C_9  and  C_10
REMARK    5  A    between atoms: N_12  and  C_13
REMARK    6  A    between atoms: C_16  and  C_17
REMARK                            x       y       z     vdW  Elec       q    Type
REMARK                         _______ _______ _______ _____ _____    ______ ____
ROOT
ATOM      1  S   UNL     1       7.016   6.494  16.854  0.00  0.00    +0.000 S 
ENDROOT
BRANCH   1   8
ATOM      2  C   UNL     1       1.095   2.957  21.032  0.00  0.00    +0.000 C 
ATOM      3  C   UNL     1       2.280   3.462  20.268  0.00  0.00    +0.000 A 
ATOM      4  C   UNL     1       3.471   2.642  20.222  0.00  0.00    +0.000 A 
ATOM      5  C   UNL     1       4.557   3.045  19.552  0.00  0.00    +0.000 A 
ATOM      6  C   UNL     1       4.541   4.354  18.851  0.00  0.00    +0.000 A 
ATOM      7  N   UNL     1       5.591   4.744  18.216  0.00  0.00    +0.000 NA
ATOM      8  C   UNL     1       5.533   5.957  17.614  0.00  0.00    +0.000 A 
ATOM      9  N   UNL     1       4.504   6.723  17.607  0.00  0.00    +0.000 NA
ATOM     10  C   UNL     1       3.369   6.305  18.245  0.00  0.00    +0.000 A 
ATOM     11  O   UNL     1       2.360   7.008  18.192  0.00  0.00    +0.000 OA
ATOM     12  N   UNL     1       3.393   5.097  18.924  0.00  0.00    +0.000 N 
ATOM     13  C   UNL     1       2.281   4.645  19.628  0.00  0.00    +0.000 A 
ENDBRANCH   1   8
BRANCH   1  14
ATOM     14  C   UNL     1       7.959   7.054  18.292  0.00  0.00    +0.000 C 
BRANCH  14  15
ATOM     15  C   UNL     1       8.182   8.553  18.236  0.00  0.00    +0.000 C 
ATOM     16  O   UNL     1       7.626   9.227  17.369  0.00  0.00    +0.000 OA
ATOM     17  N   UNL     1       9.058   9.032  19.198  0.00  0.00    +0.000 N 
ATOM     18  H   UNL     1       9.533   8.349  19.782  0.00  0.00    +0.000 HD
BRANCH  17  19
ATOM     19  C   UNL     1       9.460  10.379  19.341  0.00  0.00    +0.000 A 
ATOM     20  C   UNL     1       9.300  11.092  20.530  0.00  0.00    +0.000 A 
ATOM     21  C   UNL     1       9.598  12.453  20.592  0.00  0.00    +0.000 A 
ATOM     22  C   UNL     1      10.069  13.133  19.464  0.00  0.00    +0.000 A 
ATOM     23  C   UNL     1      10.247  14.622  19.534  0.00  0.00    +0.000 C 
ATOM     24  C   UNL     1      10.307  12.396  18.294  0.00  0.00    +0.000 A 
ATOM     25 CL   UNL     1      10.918  13.155  16.867  0.00  0.00    +0.000 Cl
ATOM     26  C   UNL     1      10.024  11.024  18.237  0.00  0.00    +0.000 A 
ENDBRANCH  17  19
ENDBRANCH  14  15
ENDBRANCH   1  14
TORSDOF 4
ENDMDL
MODEL 4
REMARK VINA RESULT:      -8.1      3.425      7.009
REMARK  Name = 
REMARK  6 active torsions:
REMARK  status: ('A' for Active; 'I' for Inactive)
REMARK    1  A    between atoms: C_1  and  C_2
REMARK    2  A    between atoms: C_7  and  S_8
REMARK    3  A    between atoms: S_8  and  C_9
REMARK    4  A    between atoms: C_9  and  C_10
REMARK    5  A    between atoms: N_12  and  C_13
REMARK    6  A    between atoms: C_16  and  C_17
REMARK                            x       y       z     vdW  Elec       q    Type
REMARK                         _______ _______ _______ _____ _____    ______ ____
ROOT
ATOM      1  S   UNL     1       3.899   2.572  17.844  0.00  0.00    +0.000 S 
ENDROOT
BRANCH   1   8
ATOM      2  C   UNL     1       8.797   8.976  17.972  0.00  0.00    +0.000 C 
ATOM      3  C   UNL     1       7.953   7.745  18.104  0.00  0.00    +0.000 A 
ATOM      4  C   UNL     1       8.242   6.825  19.183  0.00  0.00    +0.000 A 
ATOM      5  C   UNL     1       7.518   5.711  19.347  0.00  0.00    +0.000 A 
ATOM      6  C   UNL     1       6.408   5.413  18.406  0.00  0.00    +0.000 A 
ATOM      7  N   UNL     1       5.721   4.336  18.560  0.00  0.00    +0.000 NA
ATOM      8  C   UNL     1       4.736   4.099  17.661  0.00  0.00    +0.000 A 
ATOM      9  N   UNL     1       4.423   4.880  16.693  0.00  0.00    +0.000 NA
ATOM     10  C   UNL     1       5.120   6.047  16.540  0.00  0.00    +0.000 A 
ATOM     11  O   UNL     1       4.788   6.830  15.650  0.00  0.00    +0.000 OA
ATOM     12  N   UNL     1       6.174   6.312  17.399  0.00  0.00    +0.000 N 
ATOM     13  C   UNL     1       6.946   7.461  17.260  0.00  0.00    +0.000 A 
ENDBRANCH   1   8
BRANCH   1  14
ATOM     14  C   UNL     1       3.109   2.801  19.454  0.00  0.00    +0.000 C 
BRANCH  14  15
ATOM     15  C   UNL     1       2.228   4.035  19.450  0.00  0.00    +0.000 C 
ATOM     16  O   UNL     1       1.005   3.920  19.365  0.00  0.00    +0.000 OA
ATOM     17  N   UNL     1       2.926   5.231  19.514  0.00  0.00    +0.000 N 
ATOM     18  H   UNL     1       3.941   5.186  19.468  0.00  0.00    +0.000 HD
BRANCH  17  19
ATOM     19  C   UNL     1       2.348   6.520  19.492  0.00  0.00    +0.000 A 
ATOM     20  C   UNL     1       2.374   7.340  18.364  0.00  0.00    +0.000 A 
ATOM     21  C   UNL     1       1.899   8.650  18.421  0.00  0.00    +0.000 A 
ATOM     22  C   UNL     1       1.382   9.170  19.612  0.00  0.00    +0.000 A 
ATOM     23  C   UNL     1       1.009  10.624  19.670  0.00  0.00    +0.000 C 
ATOM     24  C   UNL     1       1.281   8.318  20.722  0.00  0.00    +0.000 A 
ATOM     25 CL   UNL     1       0.623   8.874  22.221  0.00  0.00    +0.000 Cl
ATOM     26  C   UNL     1       1.741   6.995  20.658  0.00  0.00    +0.000 A 
ENDBRANCH  17  19
ENDBRANCH  14  15
ENDBRANCH   1  14
TORSDOF 4
ENDMDL
MODEL 5
REMARK VINA RESULT:      -7.9      5.617      7.112
REMARK  Name = 
REMARK  6 active torsions:
REMARK  status: ('A' for Active; 'I' for Inactive)
REMARK    1  A    between atoms: C_1  and  C_2
REMARK    2  A    between atoms: C_7  and  S_8
REMARK    3  A    between atoms: S_8  and  C_9
REMARK    4  A    between atoms: C_9  and  C_10
REMARK    5  A    between atoms: N_12  and  C_13
REMARK    6  A    between atoms: C_16  and  C_17
REMARK                            x       y       z     vdW  Elec       q    Type
REMARK                         _______ _______ _______ _____ _____    ______ ____
ROOT
ATOM      1  S   UNL     1       3.375   2.162  21.408  0.00  0.00    +0.000 S 
ENDROOT
BRANCH   1   8
ATOM      2  C   UNL     1       6.308   5.165  14.523  0.00  0.00    +0.000 C 
ATOM      3  C   UNL     1       5.889   4.697  15.884  0.00  0.00    +0.000 A 
ATOM      4  C   UNL     1       6.753   4.985  17.008  0.00  0.00    +0.000 A 
ATOM      5  C   UNL     1       6.425   4.590  18.244  0.00  0.00    +0.000 A 
ATOM      6  C   UNL     1       5.160   3.845  18.464  0.00  0.00    +0.000 A 
ATOM      7  N   UNL     1       4.853   3.458  19.653  0.00  0.00    +0.000 NA
ATOM      8  C   UNL     1       3.701   2.760  19.795  0.00  0.00    +0.000 A 
ATOM      9  N   UNL     1       2.886   2.486  18.843  0.00  0.00    +0.000 NA
ATOM     10  C   UNL     1       3.181   2.923  17.581  0.00  0.00    +0.000 A 
ATOM     11  O   UNL     1       2.377   2.716  16.673  0.00  0.00    +0.000 OA
ATOM     12  N   UNL     1       4.375   3.594  17.370  0.00  0.00    +0.000 N 
ATOM     13  C   UNL     1       4.747   4.021  16.099  0.00  0.00    +0.000 A 
ENDBRANCH   1   8
BRANCH   1  14
ATOM     14  C   UNL     1       1.685   2.751  21.662  0.00  0.00    +0.000 C 
BRANCH  14  15
ATOM     15  C   UNL     1       1.403   3.962  20.795  0.00  0.00    +0.000 C 
ATOM     16  O   UNL     1       0.500   3.926  19.959  0.00  0.00    +0.000 OA
ATOM     17  N   UNL     1       2.253   5.033  21.023  0.00  0.00    +0.000 N 
ATOM     18  H   UNL     1       3.028   4.890  21.666  0.00  0.00    +0.000 HD
BRANCH  17  19
ATOM     19  C   UNL     1       2.225   6.264  20.329  0.00  0.00    +0.000 A 
ATOM     20  C   UNL     1       1.477   7.358  20.764  0.00  0.00    +0.000 A 
ATOM     21  C   UNL     1       1.381   8.512  19.986  0.00  0.00    +0.000 A 
ATOM     22  C   UNL     1       2.037   8.599  18.754  0.00  0.00    +0.000 A 
ATOM     23  C   UNL     1       1.797   9.800  17.885  0.00  0.00    +0.000 C 
ATOM     24  C   UNL     1       2.854   7.529  18.358  0.00  0.00    +0.000 A 
ATOM     25 CL   UNL     1       3.723   7.571  16.864  0.00  0.00    +0.000 Cl
ATOM     26  C   UNL     1       2.964   6.377  19.149  0.00  0.00    +0.000 A 
ENDBRANCH  17  19
ENDBRANCH  14  15
ENDBRANCH   1  14
TORSDOF 4
ENDMDL
MODEL 6
REMARK VINA RESULT:      -7.9      3.394      7.151
REMARK  Name = 
REMARK  6 active torsions:
REMARK  status: ('A' for Active; 'I' for Inactive)
REMARK    1  A    between atoms: C_1  and  C_2
REMARK    2  A    between atoms: C_7  and  S_8
REMARK    3  A    between atoms: S_8  and  C_9
REMARK    4  A    between atoms: C_9  and  C_10
REMARK    5  A    between atoms: N_12  and  C_13
REMARK    6  A    between atoms: C_16  and  C_17
REMARK                            x       y       z     vdW  Elec       q    Type
REMARK                         _______ _______ _______ _____ _____    ______ ____
ROOT
ATOM      1  S   UNL     1       4.244   2.482  16.809  0.00  0.00    +0.000 S 
ENDROOT
BRANCH   1   8
ATOM      2  C   UNL     1       8.651   9.091  18.193  0.00  0.00    +0.000 C 
ATOM      3  C   UNL     1       7.887   7.806  18.091  0.00  0.00    +0.000 A 
ATOM      4  C   UNL     1       8.141   6.775  19.073  0.00  0.00    +0.000 A 
ATOM      5  C   UNL     1       7.486   5.609  19.029  0.00  0.00    +0.000 A 
ATOM      6  C   UNL     1       6.488   5.369  17.955  0.00  0.00    +0.000 A 
ATOM      7  N   UNL     1       5.867   4.243  17.909  0.00  0.00    +0.000 NA
ATOM      8  C   UNL     1       4.986   4.066  16.895  0.00  0.00    +0.000 A 
ATOM      9  N   UNL     1       4.707   4.945  16.004  0.00  0.00    +0.000 NA
ATOM     10  C   UNL     1       5.331   6.160  16.063  0.00  0.00    +0.000 A 
ATOM     11  O   UNL     1       5.026   7.030  15.246  0.00  0.00    +0.000 OA
ATOM     12  N   UNL     1       6.283   6.374  17.047  0.00  0.00    +0.000 N 
ATOM     13  C   UNL     1       6.982   7.575  17.125  0.00  0.00    +0.000 A 
ENDBRANCH   1   8
BRANCH   1  14
ATOM     14  C   UNL     1       3.236   2.489  18.310  0.00  0.00    +0.000 C 
BRANCH  14  15
ATOM     15  C   UNL     1       2.463   3.787  18.432  0.00  0.00    +0.000 C 
ATOM     16  O   UNL     1       1.475   3.985  17.724  0.00  0.00    +0.000 OA
ATOM     17  N   UNL     1       2.989   4.677  19.354  0.00  0.00    +0.000 N 
ATOM     18  H   UNL     1       3.874   4.433  19.791  0.00  0.00    +0.000 HD
BRANCH  17  19
ATOM     19  C   UNL     1       2.479   5.965  19.634  0.00  0.00    +0.000 A 
ATOM     20  C   UNL     1       1.770   6.259  20.798  0.00  0.00    +0.000 A 
ATOM     21  C   UNL     1       1.180   7.510  20.979  0.00  0.00    +0.000 A 
ATOM     22  C   UNL     1       1.291   8.500  19.997  0.00  0.00    +0.000 A 
ATOM     23  C   UNL     1       0.528   9.783  20.166  0.00  0.00    +0.000 C 
ATOM     24  C   UNL     1       2.075   8.229  18.865  0.00  0.00    +0.000 A 
ATOM     25 CL   UNL     1       2.289   9.410  17.621  0.00  0.00    +0.000 Cl
ATOM     26  C   UNL     1       2.682   6.978  18.692  0.00  0.00    +0.000 A 
ENDBRANCH  17  19
ENDBRANCH  14  15
ENDBRANCH   1  14
TORSDOF 4
ENDMDL
MODEL 7
REMARK VINA RESULT:      -7.7      5.424      7.103
REMARK  Name = 
REMARK  6 active torsions:
REMARK  status: ('A' for Active; 'I' for Inactive)
REMARK    1  A    between atoms: C_1  and  C_2
REMARK    2  A    between atoms: C_7  and  S_8
REMARK    3  A    between atoms: S_8  and  C_9
REMARK    4  A    between atoms: C_9  and  C_10
REMARK    5  A    between atoms: N_12  and  C_13
REMARK    6  A    between atoms: C_16  and  C_17
REMARK                            x       y       z     vdW  Elec       q    Type
REMARK                         _______ _______ _______ _____ _____    ______ ____
ROOT
ATOM      1  S   UNL     1       3.155   2.653  19.774  0.00  0.00    +0.000 S 
ENDROOT
BRANCH   1   8
ATOM      2  C   UNL     1       7.801   5.569  13.864  0.00  0.00    +0.000 C 
ATOM      3  C   UNL     1       6.852   4.940  14.838  0.00  0.00    +0.000 A 
ATOM      4  C   UNL     1       5.709   4.221  14.318  0.00  0.00    +0.000 A 
ATOM      5  C   UNL     1       4.831   3.639  15.144  0.00  0.00    +0.000 A 
ATOM      6  C   UNL     1       5.030   3.737  16.613  0.00  0.00    +0.000 A 
ATOM      7  N   UNL     1       4.178   3.185  17.405  0.00  0.00    +0.000 NA
ATOM      8  C   UNL     1       4.393   3.326  18.735  0.00  0.00    +0.000 A 
ATOM      9  N   UNL     1       5.392   3.938  19.257  0.00  0.00    +0.000 NA
ATOM     10  C   UNL     1       6.325   4.496  18.427  0.00  0.00    +0.000 A 
ATOM     11  O   UNL     1       7.317   5.034  18.919  0.00  0.00    +0.000 OA
ATOM     12  N   UNL     1       6.125   4.430  17.058  0.00  0.00    +0.000 N 
ATOM     13  C   UNL     1       7.019   5.021  16.169  0.00  0.00    +0.000 A 
ENDBRANCH   1   8
BRANCH   1  14
ATOM     14  C   UNL     1       2.847   4.040  20.891  0.00  0.00    +0.000 C 
BRANCH  14  15
ATOM     15  C   UNL     1       2.081   5.140  20.183  0.00  0.00    +0.000 C 
ATOM     16  O   UNL     1       1.203   4.855  19.368  0.00  0.00    +0.000 OA
ATOM     17  N   UNL     1       2.488   6.422  20.519  0.00  0.00    +0.000 N 
ATOM     18  H   UNL     1       3.301   6.514  21.123  0.00  0.00    +0.000 HD
BRANCH  17  19
ATOM     19  C   UNL     1       1.961   7.617  19.979  0.00  0.00    +0.000 A 
ATOM     20  C   UNL     1       2.206   8.025  18.667  0.00  0.00    +0.000 A 
ATOM     21  C   UNL     1       1.769   9.269  18.212  0.00  0.00    +0.000 A 
ATOM     22  C   UNL     1       1.071  10.134  19.061  0.00  0.00    +0.000 A 
ATOM     23  C   UNL     1       0.738  11.517  18.578  0.00  0.00    +0.000 C 
ATOM     24  C   UNL     1       0.754   9.687  20.353  0.00  0.00    +0.000 A 
ATOM     25 CL   UNL     1      -0.133  10.683  21.453  0.00  0.00    +0.000 Cl
ATOM     26  C   UNL     1       1.179   8.430  20.804  0.00  0.00    +0.000 A 
ENDBRANCH  17  19
ENDBRANCH  14  15
ENDBRANCH   1  14
TORSDOF 4
ENDMDL
MODEL 8
REMARK VINA RESULT:      -7.7      5.524      6.952
REMARK  Name = 
REMARK  6 active torsions:
REMARK  status: ('A' for Active; 'I' for Inactive)
REMARK    1  A    between atoms: C_1  and  C_2
REMARK    2  A    between atoms: C_7  and  S_8
REMARK    3  A    between atoms: S_8  and  C_9
REMARK    4  A    between atoms: C_9  and  C_10
REMARK    5  A    between atoms: N_12  and  C_13
REMARK    6  A    between atoms: C_16  and  C_17
REMARK                            x       y       z     vdW  Elec       q    Type
REMARK                         _______ _______ _______ _____ _____    ______ ____
ROOT
ATOM      1  S   UNL     1       3.101   1.859  21.050  0.00  0.00    +0.000 S 
ENDROOT
BRANCH   1   8
ATOM      2  C   UNL     1       6.475   5.703  14.816  0.00  0.00    +0.000 C 
ATOM      3  C   UNL     1       5.975   5.058  16.072  0.00  0.00    +0.000 A 
ATOM      4  C   UNL     1       6.806   5.119  17.256  0.00  0.00    +0.000 A 
ATOM      5  C   UNL     1       6.406   4.560  18.404  0.00  0.00    +0.000 A 
ATOM      6  C   UNL     1       5.094   3.865  18.463  0.00  0.00    +0.000 A 
ATOM      7  N   UNL     1       4.717   3.320  19.567  0.00  0.00    +0.000 NA
ATOM      8  C   UNL     1       3.525   2.677  19.561  0.00  0.00    +0.000 A 
ATOM      9  N   UNL     1       2.739   2.599  18.551  0.00  0.00    +0.000 NA
ATOM     10  C   UNL     1       3.109   3.207  17.383  0.00  0.00    +0.000 A 
ATOM     11  O   UNL     1       2.333   3.188  16.427  0.00  0.00    +0.000 OA
ATOM     12  N   UNL     1       4.344   3.831  17.318  0.00  0.00    +0.000 N 
ATOM     13  C   UNL     1       4.791   4.425  16.141  0.00  0.00    +0.000 A 
ENDBRANCH   1   8
BRANCH   1  14
ATOM     14  C   UNL     1       2.313   3.201  21.970  0.00  0.00    +0.000 C 
BRANCH  14  15
ATOM     15  C   UNL     1       1.768   4.253  21.023  0.00  0.00    +0.000 C 
ATOM     16  O   UNL     1       0.703   4.062  20.436  0.00  0.00    +0.000 OA
ATOM     17  N   UNL     1       2.580   5.368  20.886  0.00  0.00    +0.000 N 
ATOM     18  H   UNL     1       3.488   5.348  21.344  0.00  0.00    +0.000 HD
BRANCH  17  19
ATOM     19  C   UNL     1       2.320   6.473  20.044  0.00  0.00    +0.000 A 
ATOM     20  C   UNL     1       2.781   6.544  18.729  0.00  0.00    +0.000 A 
ATOM     21  C   UNL     1       2.607   7.704  17.973  0.00  0.00    +0.000 A 
ATOM     22  C   UNL     1       1.960   8.819  18.516  0.00  0.00    +0.000 A 
ATOM     23  C   UNL     1       1.913  10.092  17.720  0.00  0.00    +0.000 C 
ATOM     24  C   UNL     1       1.425   8.714  19.808  0.00  0.00    +0.000 A 
ATOM     25 CL   UNL     1       0.583  10.036  20.539  0.00  0.00    +0.000 Cl
ATOM     26  C   UNL     1       1.585   7.542  20.561  0.00  0.00    +0.000 A 
ENDBRANCH  17  19
ENDBRANCH  14  15
ENDBRANCH   1  14
TORSDOF 4
ENDMDL
MODEL 9
REMARK VINA RESULT:      -7.6      1.381      1.679
REMARK  Name = 
REMARK  6 active torsions:
REMARK  status: ('A' for Active; 'I' for Inactive)
REMARK    1  A    between atoms: C_1  and  C_2
REMARK    2  A    between atoms: C_7  and  S_8
REMARK    3  A    between atoms: S_8  and  C_9
REMARK    4  A    between atoms: C_9  and  C_10
REMARK    5  A    between atoms: N_12  and  C_13
REMARK    6  A    between atoms: C_16  and  C_17
REMARK                            x       y       z     vdW  Elec       q    Type
REMARK                         _______ _______ _______ _____ _____    ______ ____
ROOT
ATOM      1  S   UNL     1       7.701   6.194  18.957  0.00  0.00    +0.000 S 
ENDROOT
BRANCH   1   8
ATOM      2  C   UNL     1       0.610   2.354  18.896  0.00  0.00    +0.000 C 
ATOM      3  C   UNL     1       1.999   2.914  18.951  0.00  0.00    +0.000 A 
ATOM      4  C   UNL     1       3.054   2.087  19.495  0.00  0.00    +0.000 A 
ATOM      5  C   UNL     1       4.312   2.539  19.566  0.00  0.00    +0.000 A 
ATOM      6  C   UNL     1       4.628   3.907  19.084  0.00  0.00    +0.000 A 
ATOM      7  N   UNL     1       5.837   4.342  19.163  0.00  0.00    +0.000 NA
ATOM      8  C   UNL     1       6.067   5.606  18.733  0.00  0.00    +0.000 A 
ATOM      9  N   UNL     1       5.179   6.382  18.229  0.00  0.00    +0.000 NA
ATOM     10  C   UNL     1       3.898   5.920  18.103  0.00  0.00    +0.000 A 
ATOM     11  O   UNL     1       3.053   6.637  17.567  0.00  0.00    +0.000 OA
ATOM     12  N   UNL     1       3.597   4.654  18.579  0.00  0.00    +0.000 N 
ATOM     13  C   UNL     1       2.300   4.151  18.519  0.00  0.00    +0.000 A 
ENDBRANCH   1   8
BRANCH   1  14
ATOM     14  C   UNL     1       7.882   7.274  17.518  0.00  0.00    +0.000 C 
BRANCH  14  15
ATOM     15  C   UNL     1       8.001   8.723  17.947  0.00  0.00    +0.000 C 
ATOM     16  O   UNL     1       7.232   9.568  17.487  0.00  0.00    +0.000 OA
ATOM     17  N   UNL     1       9.035   8.969  18.836  0.00  0.00    +0.000 N 
ATOM     18  H   UNL     1       9.665   8.199  19.049  0.00  0.00    +0.000 HD
BRANCH  17  19
ATOM     19  C   UNL     1       9.381  10.234  19.362  0.00  0.00    +0.000 A 
ATOM     20  C   UNL     1       9.169  10.580  20.697  0.00  0.00    +0.000 A 
ATOM     21  C   UNL     1       9.411  11.878  21.146  0.00  0.00    +0.000 A 
ATOM     22  C   UNL     1       9.878  12.861  20.267  0.00  0.00    +0.000 A 
ATOM     23  C   UNL     1       9.995  14.277  20.755  0.00  0.00    +0.000 C 
ATOM     24  C   UNL     1      10.169  12.490  18.946  0.00  0.00    +0.000 A 
ATOM     25 CL   UNL     1      10.779  13.637  17.806  0.00  0.00    +0.000 Cl
ATOM     26  C   UNL     1       9.941  11.180  18.500  0.00  0.00    +0.000 A 
ENDBRANCH  17  19
ENDBRANCH  14  15
ENDBRANCH   1  14
TORSDOF 4
ENDMDL
