MODEL 1
REMARK VINA RESULT:      -7.6      0.000      0.000
REMARK  Name = 
REMARK  6 active torsions:
REMARK  status: ('A' for Active; 'I' for Inactive)
REMARK    1  A    between atoms: C_1  and  C_2
REMARK    2  A    between atoms: C_2  and  C_3
REMARK    3  A    between atoms: C_8  and  N_9
REMARK    4  A    between atoms: C_10  and  C_12
REMARK    5  A    between atoms: C_12  and  C_13
REMARK    6  A    between atoms: C_17  and  O_18
REMARK                            x       y       z     vdW  Elec       q    Type
REMARK                         _______ _______ _______ _____ _____    ______ ____
ROOT
ATOM      1  N   UNL     1       3.251   5.155  18.112  0.00  0.00    +0.000 N 
ATOM      2  C   UNL     1       3.156   6.505  17.846  0.00  0.00    +0.000 C 
ATOM      3  O   UNL     1       2.114   7.146  17.940  0.00  0.00    +0.000 OA
ATOM      4  H   UNL     1       4.120   4.681  17.908  0.00  0.00    +0.000 HD
ENDROOT
BRANCH   1  12
ATOM      5  C   UNL     1       0.707   3.323  20.342  0.00  0.00    +0.000 C 
ATOM      6  C   UNL     1       2.088   3.905  19.959  0.00  0.00    +0.000 C 
ATOM      7  C   UNL     1       2.334   5.098  20.908  0.00  0.00    +0.000 C 
ATOM      8  C   UNL     1       3.200   2.855  20.186  0.00  0.00    +0.000 C 
ATOM      9  C   UNL     1       3.106   1.660  19.240  0.00  0.00    +0.000 C 
ATOM     10  C   UNL     1       3.046   2.085  17.776  0.00  0.00    +0.000 C 
ATOM     11  C   UNL     1       1.969   3.137  17.513  0.00  0.00    +0.000 C 
ATOM     12  C   UNL     1       2.077   4.348  18.463  0.00  0.00    +0.000 C 
ENDBRANCH   1  12
BRANCH   2  13
ATOM     13  C   UNL     1       4.480   7.178  17.489  0.00  0.00    +0.000 C 
BRANCH  13  14
ATOM     14  C   UNL     1       5.423   6.213  16.816  0.00  0.00    +0.000 A 
ATOM     15  C   UNL     1       5.300   6.039  15.426  0.00  0.00    +0.000 A 
ATOM     16  C   UNL     1       6.213   5.239  14.756  0.00  0.00    +0.000 A 
ATOM     17  N   UNL     1       7.205   4.564  15.372  0.00  0.00    +0.000 NA
ATOM     18  C   UNL     1       7.284   4.721  16.701  0.00  0.00    +0.000 A 
ATOM     19  C   UNL     1       6.444   5.523  17.475  0.00  0.00    +0.000 A 
ATOM     20 BR   UNL     1       6.731   5.658  19.346  0.00  0.00    +0.000 Br
BRANCH  18  21
ATOM     21  O   UNL     1       8.294   3.995  17.244  0.00  0.00    +0.000 OA
ATOM     22  H   UNL     1       8.581   4.615  17.940  0.00  0.00    +0.000 HD
ENDBRANCH  18  21
ENDBRANCH  13  14
ENDBRANCH   2  13
TORSDOF 4
ENDMDL
MODEL 2
REMARK VINA RESULT:      -6.6      1.425      1.860
REMARK  Name = 
REMARK  6 active torsions:
REMARK  status: ('A' for Active; 'I' for Inactive)
REMARK    1  A    between atoms: C_1  and  C_2
REMARK    2  A    between atoms: C_2  and  C_3
REMARK    3  A    between atoms: C_8  and  N_9
REMARK    4  A    between atoms: C_10  and  C_12
REMARK    5  A    between atoms: C_12  and  C_13
REMARK    6  A    between atoms: C_17  and  O_18
REMARK                            x       y       z     vdW  Elec       q    Type
REMARK                         _______ _______ _______ _____ _____    ______ ____
ROOT
ATOM      1  N   UNL     1       3.194   5.019  18.090  0.00  0.00    +0.000 N 
ATOM      2  C   UNL     1       3.031   6.368  17.850  0.00  0.00    +0.000 C 
ATOM      3  O   UNL     1       1.973   6.967  18.019  0.00  0.00    +0.000 OA
ATOM      4  H   UNL     1       4.066   4.581  17.825  0.00  0.00    +0.000 HD
ENDROOT
BRANCH   1  12
ATOM      5  C   UNL     1       0.830   3.118  20.457  0.00  0.00    +0.000 C 
ATOM      6  C   UNL     1       2.165   3.759  20.008  0.00  0.00    +0.000 C 
ATOM      7  C   UNL     1       2.385   4.985  20.919  0.00  0.00    +0.000 C 
ATOM      8  C   UNL     1       3.336   2.771  20.216  0.00  0.00    +0.000 C 
ATOM      9  C   UNL     1       3.268   1.550  19.301  0.00  0.00    +0.000 C 
ATOM     10  C   UNL     1       3.132   1.935  17.832  0.00  0.00    +0.000 C 
ATOM     11  C   UNL     1       1.994   2.926  17.586  0.00  0.00    +0.000 C 
ATOM     12  C   UNL     1       2.076   4.164  18.504  0.00  0.00    +0.000 C 
ENDBRANCH   1  12
BRANCH   2  13
ATOM     13  C   UNL     1       4.303   7.095  17.419  0.00  0.00    +0.000 C 
BRANCH  13  14
ATOM     14  C   UNL     1       5.533   6.277  17.721  0.00  0.00    +0.000 A 
ATOM     15  C   UNL     1       6.009   6.273  19.044  0.00  0.00    +0.000 A 
ATOM     16  C   UNL     1       7.075   5.453  19.382  0.00  0.00    +0.000 A 
ATOM     17  N   UNL     1       7.730   4.678  18.494  0.00  0.00    +0.000 NA
ATOM     18  C   UNL     1       7.278   4.720  17.233  0.00  0.00    +0.000 A 
ATOM     19  C   UNL     1       6.196   5.480  16.783  0.00  0.00    +0.000 A 
ATOM     20 BR   UNL     1       5.669   5.384  14.963  0.00  0.00    +0.000 Br
BRANCH  18  21
ATOM     21  O   UNL     1       8.001   3.928  16.401  0.00  0.00    +0.000 OA
ATOM     22  H   UNL     1       8.113   4.542  15.652  0.00  0.00    +0.000 HD
ENDBRANCH  18  21
ENDBRANCH  13  14
ENDBRANCH   2  13
TORSDOF 4
ENDMDL
MODEL 3
REMARK VINA RESULT:      -6.3      1.021      1.648
REMARK  Name = 
REMARK  6 active torsions:
REMARK  status: ('A' for Active; 'I' for Inactive)
REMARK    1  A    between atoms: C_1  and  C_2
REMARK    2  A    between atoms: C_2  and  C_3
REMARK    3  A    between atoms: C_8  and  N_9
REMARK    4  A    between atoms: C_10  and  C_12
REMARK    5  A    between atoms: C_12  and  C_13
REMARK    6  A    between atoms: C_17  and  O_18
REMARK                            x       y       z     vdW  Elec       q    Type
REMARK                         _______ _______ _______ _____ _____    ______ ____
ROOT
ATOM      1  N   UNL     1       3.482   4.923  18.801  0.00  0.00    +0.000 N 
ATOM      2  C   UNL     1       3.481   6.296  18.658  0.00  0.00    +0.000 C 
ATOM      3  O   UNL     1       2.967   7.064  19.465  0.00  0.00    +0.000 OA
ATOM      4  H   UNL     1       3.831   4.357  18.039  0.00  0.00    +0.000 HD
ENDROOT
BRANCH   1  12
ATOM      5  C   UNL     1       2.719   2.224  21.433  0.00  0.00    +0.000 C 
ATOM      6  C   UNL     1       3.246   2.776  20.087  0.00  0.00    +0.000 C 
ATOM      7  C   UNL     1       4.783   2.648  20.138  0.00  0.00    +0.000 C 
ATOM      8  C   UNL     1       2.717   1.924  18.910  0.00  0.00    +0.000 C 
ATOM      9  C   UNL     1       1.207   2.038  18.710  0.00  0.00    +0.000 C 
ATOM     10  C   UNL     1       0.748   3.487  18.586  0.00  0.00    +0.000 C 
ATOM     11  C   UNL     1       1.265   4.368  19.723  0.00  0.00    +0.000 C 
ATOM     12  C   UNL     1       2.793   4.259  19.912  0.00  0.00    +0.000 C 
ENDBRANCH   1  12
BRANCH   2  13
ATOM     13  C   UNL     1       4.241   6.809  17.436  0.00  0.00    +0.000 C 
BRANCH  13  14
ATOM     14  C   UNL     1       5.162   5.753  16.879  0.00  0.00    +0.000 A 
ATOM     15  C   UNL     1       4.812   5.157  15.655  0.00  0.00    +0.000 A 
ATOM     16  C   UNL     1       5.684   4.257  15.061  0.00  0.00    +0.000 A 
ATOM     17  N   UNL     1       6.851   3.872  15.617  0.00  0.00    +0.000 NA
ATOM     18  C   UNL     1       7.150   4.431  16.798  0.00  0.00    +0.000 A 
ATOM     19  C   UNL     1       6.368   5.370  17.474  0.00  0.00    +0.000 A 
ATOM     20 BR   UNL     1       6.972   6.086  19.124  0.00  0.00    +0.000 Br
BRANCH  18  21
ATOM     21  O   UNL     1       8.328   3.977  17.297  0.00  0.00    +0.000 OA
ATOM     22  H   UNL     1       8.232   3.028  17.096  0.00  0.00    +0.000 HD
ENDBRANCH  18  21
ENDBRANCH  13  14
ENDBRANCH   2  13
TORSDOF 4
ENDMDL
MODEL 4
REMARK VINA RESULT:      -6.1      1.622      2.287
REMARK  Name = 
REMARK  6 active torsions:
REMARK  status: ('A' for Active; 'I' for Inactive)
REMARK    1  A    between atoms: C_1  and  C_2
REMARK    2  A    between atoms: C_2  and  C_3
REMARK    3  A    between atoms: C_8  and  N_9
REMARK    4  A    between atoms: C_10  and  C_12
REMARK    5  A    between atoms: C_12  and  C_13
REMARK    6  A    between atoms: C_17  and  O_18
REMARK                            x       y       z     vdW  Elec       q    Type
REMARK                         _______ _______ _______ _____ _____    ______ ____
ROOT
ATOM      1  N   UNL     1       2.953   4.940  18.701  0.00  0.00    +0.000 N 
ATOM      2  C   UNL     1       3.096   6.310  18.625  0.00  0.00    +0.000 C 
ATOM      3  O   UNL     1       2.936   7.065  19.579  0.00  0.00    +0.000 OA
ATOM      4  H   UNL     1       2.997   4.401  17.846  0.00  0.00    +0.000 HD
ENDROOT
BRANCH   1  12
ATOM      5  C   UNL     1       2.896   2.324  21.520  0.00  0.00    +0.000 C 
ATOM      6  C   UNL     1       3.146   2.852  20.087  0.00  0.00    +0.000 C 
ATOM      7  C   UNL     1       4.677   2.877  19.896  0.00  0.00    +0.000 C 
ATOM      8  C   UNL     1       2.532   1.891  19.043  0.00  0.00    +0.000 C 
ATOM      9  C   UNL     1       1.006   1.846  19.083  0.00  0.00    +0.000 C 
ATOM     10  C   UNL     1       0.385   3.236  18.980  0.00  0.00    +0.000 C 
ATOM     11  C   UNL     1       0.977   4.221  19.987  0.00  0.00    +0.000 C 
ATOM     12  C   UNL     1       2.519   4.272  19.932  0.00  0.00    +0.000 C 
ENDBRANCH   1  12
BRANCH   2  13
ATOM     13  C   UNL     1       3.547   6.829  17.261  0.00  0.00    +0.000 C 
BRANCH  13  14
ATOM     14  C   UNL     1       5.040   6.705  17.092  0.00  0.00    +0.000 A 
ATOM     15  C   UNL     1       5.837   7.797  17.480  0.00  0.00    +0.000 A 
ATOM     16  C   UNL     1       7.218   7.683  17.435  0.00  0.00    +0.000 A 
ATOM     17  N   UNL     1       7.861   6.584  16.990  0.00  0.00    +0.000 NA
ATOM     18  C   UNL     1       7.081   5.567  16.597  0.00  0.00    +0.000 A 
ATOM     19  C   UNL     1       5.685   5.555  16.627  0.00  0.00    +0.000 A 
ATOM     20 BR   UNL     1       4.744   4.005  16.069  0.00  0.00    +0.000 Br
BRANCH  18  21
ATOM     21  O   UNL     1       7.804   4.510  16.147  0.00  0.00    +0.000 OA
ATOM     22  H   UNL     1       8.621   4.643  16.662  0.00  0.00    +0.000 HD
ENDBRANCH  18  21
ENDBRANCH  13  14
ENDBRANCH   2  13
TORSDOF 4
ENDMDL
MODEL 5
REMARK VINA RESULT:      -6.1      2.547      5.601
REMARK  Name = 
REMARK  6 active torsions:
REMARK  status: ('A' for Active; 'I' for Inactive)
REMARK    1  A    between atoms: C_1  and  C_2
REMARK    2  A    between atoms: C_2  and  C_3
REMARK    3  A    between atoms: C_8  and  N_9
REMARK    4  A    between atoms: C_10  and  C_12
REMARK    5  A    between atoms: C_12  and  C_13
REMARK    6  A    between atoms: C_17  and  O_18
REMARK                            x       y       z     vdW  Elec       q    Type
REMARK                         _______ _______ _______ _____ _____    ______ ____
ROOT
ATOM      1  N   UNL     1       4.297   6.015  18.355  0.00  0.00    +0.000 N 
ATOM      2  C   UNL     1       3.135   6.750  18.467  0.00  0.00    +0.000 C 
ATOM      3  O   UNL     1       2.731   7.521  17.602  0.00  0.00    +0.000 OA
ATOM      4  H   UNL     1       4.614   5.486  19.156  0.00  0.00    +0.000 HD
ENDROOT
BRANCH   1  12
ATOM      5  C   UNL     1       6.366   4.967  15.286  0.00  0.00    +0.000 C 
ATOM      6  C   UNL     1       5.675   4.774  16.657  0.00  0.00    +0.000 C 
ATOM      7  C   UNL     1       4.493   3.812  16.414  0.00  0.00    +0.000 C 
ATOM      8  C   UNL     1       6.647   4.119  17.665  0.00  0.00    +0.000 C 
ATOM      9  C   UNL     1       7.821   5.019  18.046  0.00  0.00    +0.000 C 
ATOM     10  C   UNL     1       7.364   6.389  18.538  0.00  0.00    +0.000 C 
ATOM     11  C   UNL     1       6.387   7.063  17.575  0.00  0.00    +0.000 C 
ATOM     12  C   UNL     1       5.195   6.154  17.204  0.00  0.00    +0.000 C 
ENDBRANCH   1  12
BRANCH   2  13
ATOM     13  C   UNL     1       2.330   6.480  19.737  0.00  0.00    +0.000 C 
BRANCH  13  14
ATOM     14  C   UNL     1       2.196   5.001  19.998  0.00  0.00    +0.000 A 
ATOM     15  C   UNL     1       2.559   4.523  21.270  0.00  0.00    +0.000 A 
ATOM     16  C   UNL     1       2.354   3.188  21.581  0.00  0.00    +0.000 A 
ATOM     17  N   UNL     1       1.862   2.286  20.707  0.00  0.00    +0.000 NA
ATOM     18  C   UNL     1       1.550   2.757  19.491  0.00  0.00    +0.000 A 
ATOM     19  C   UNL     1       1.683   4.084  19.076  0.00  0.00    +0.000 A 
ATOM     20 BR   UNL     1       1.151   4.580  17.323  0.00  0.00    +0.000 Br
BRANCH  18  21
ATOM     21  O   UNL     1       1.081   1.785  18.669  0.00  0.00    +0.000 OA
ATOM     22  H   UNL     1       0.210   1.633  19.081  0.00  0.00    +0.000 HD
ENDBRANCH  18  21
ENDBRANCH  13  14
ENDBRANCH   2  13
TORSDOF 4
ENDMDL
MODEL 6
REMARK VINA RESULT:      -6.0      4.701      6.967
REMARK  Name = 
REMARK  6 active torsions:
REMARK  status: ('A' for Active; 'I' for Inactive)
REMARK    1  A    between atoms: C_1  and  C_2
REMARK    2  A    between atoms: C_2  and  C_3
REMARK    3  A    between atoms: C_8  and  N_9
REMARK    4  A    between atoms: C_10  and  C_12
REMARK    5  A    between atoms: C_12  and  C_13
REMARK    6  A    between atoms: C_17  and  O_18
REMARK                            x       y       z     vdW  Elec       q    Type
REMARK                         _______ _______ _______ _____ _____    ______ ____
ROOT
ATOM      1  N   UNL     1       2.609   7.285  18.155  0.00  0.00    +0.000 N 
ATOM      2  C   UNL     1       1.858   8.283  18.741  0.00  0.00    +0.000 C 
ATOM      3  O   UNL     1       1.690   8.386  19.952  0.00  0.00    +0.000 OA
ATOM      4  H   UNL     1       2.610   7.208  17.146  0.00  0.00    +0.000 HD
ENDROOT
BRANCH   1  12
ATOM      5  C   UNL     1       5.192   4.626  19.184  0.00  0.00    +0.000 C 
ATOM      6  C   UNL     1       4.415   5.537  18.203  0.00  0.00    +0.000 C 
ATOM      7  C   UNL     1       5.428   6.582  17.689  0.00  0.00    +0.000 C 
ATOM      8  C   UNL     1       3.897   4.716  16.999  0.00  0.00    +0.000 C 
ATOM      9  C   UNL     1       2.822   3.699  17.377  0.00  0.00    +0.000 C 
ATOM     10  C   UNL     1       1.667   4.337  18.142  0.00  0.00    +0.000 C 
ATOM     11  C   UNL     1       2.140   5.171  19.332  0.00  0.00    +0.000 C 
ATOM     12  C   UNL     1       3.216   6.207  18.942  0.00  0.00    +0.000 C 
ENDBRANCH   1  12
BRANCH   2  13
ATOM     13  C   UNL     1       1.297   9.315  17.763  0.00  0.00    +0.000 C 
BRANCH  13  14
ATOM     14  C   UNL     1       0.678  10.481  18.491  0.00  0.00    +0.000 A 
ATOM     15  C   UNL     1       1.515  11.261  19.310  0.00  0.00    +0.000 A 
ATOM     16  C   UNL     1       1.007  12.401  19.914  0.00  0.00    +0.000 A 
ATOM     17  N   UNL     1      -0.280  12.792  19.804  0.00  0.00    +0.000 NA
ATOM     18  C   UNL     1      -1.065  12.017  19.044  0.00  0.00    +0.000 A 
ATOM     19  C   UNL     1      -0.658  10.868  18.362  0.00  0.00    +0.000 A 
ATOM     20 BR   UNL     1      -1.904   9.915  17.295  0.00  0.00    +0.000 Br
BRANCH  18  21
ATOM     21  O   UNL     1      -2.345  12.469  19.001  0.00  0.00    +0.000 OA
ATOM     22  H   UNL     1      -2.176  13.429  19.007  0.00  0.00    +0.000 HD
ENDBRANCH  18  21
ENDBRANCH  13  14
ENDBRANCH   2  13
TORSDOF 4
ENDMDL
MODEL 7
REMARK VINA RESULT:      -6.0      3.556      5.771
REMARK  Name = 
REMARK  6 active torsions:
REMARK  status: ('A' for Active; 'I' for Inactive)
REMARK    1  A    between atoms: C_1  and  C_2
REMARK    2  A    between atoms: C_2  and  C_3
REMARK    3  A    between atoms: C_8  and  N_9
REMARK    4  A    between atoms: C_10  and  C_12
REMARK    5  A    between atoms: C_12  and  C_13
REMARK    6  A    between atoms: C_17  and  O_18
REMARK                            x       y       z     vdW  Elec       q    Type
REMARK                         _______ _______ _______ _____ _____    ______ ____
ROOT
ATOM      1  N   UNL     1       1.405   7.714  18.883  0.00  0.00    +0.000 N 
ATOM      2  C   UNL     1       2.396   6.955  18.294  0.00  0.00    +0.000 C 
ATOM      3  O   UNL     1       3.532   7.366  18.080  0.00  0.00    +0.000 OA
ATOM      4  H   UNL     1       0.468   7.337  18.926  0.00  0.00    +0.000 HD
ENDROOT
BRANCH   1  12
ATOM      5  C   UNL     1       1.348  10.906  21.028  0.00  0.00    +0.000 C 
ATOM      6  C   UNL     1       0.860   9.519  20.545  0.00  0.00    +0.000 C 
ATOM      7  C   UNL     1       1.149   8.534  21.697  0.00  0.00    +0.000 C 
ATOM      8  C   UNL     1      -0.664   9.543  20.284  0.00  0.00    +0.000 C 
ATOM      9  C   UNL     1      -1.063  10.428  19.105  0.00  0.00    +0.000 C 
ATOM     10  C   UNL     1      -0.295  10.078  17.834  0.00  0.00    +0.000 C 
ATOM     11  C   UNL     1       1.217  10.027  18.055  0.00  0.00    +0.000 C 
ATOM     12  C   UNL     1       1.614   9.121  19.239  0.00  0.00    +0.000 C 
ENDBRANCH   1  12
BRANCH   2  13
ATOM     13  C   UNL     1       1.995   5.513  17.986  0.00  0.00    +0.000 C 
BRANCH  13  14
ATOM     14  C   UNL     1       2.511   4.563  19.036  0.00  0.00    +0.000 A 
ATOM     15  C   UNL     1       1.780   4.446  20.231  0.00  0.00    +0.000 A 
ATOM     16  C   UNL     1       2.166   3.509  21.178  0.00  0.00    +0.000 A 
ATOM     17  N   UNL     1       3.249   2.716  21.044  0.00  0.00    +0.000 NA
ATOM     18  C   UNL     1       3.948   2.866  19.909  0.00  0.00    +0.000 A 
ATOM     19  C   UNL     1       3.637   3.750  18.875  0.00  0.00    +0.000 A 
ATOM     20 BR   UNL     1       4.722   3.797  17.318  0.00  0.00    +0.000 Br
BRANCH  18  21
ATOM     21  O   UNL     1       5.029   2.047  19.862  0.00  0.00    +0.000 OA
ATOM     22  H   UNL     1       4.786   1.505  19.089  0.00  0.00    +0.000 HD
ENDBRANCH  18  21
ENDBRANCH  13  14
ENDBRANCH   2  13
TORSDOF 4
ENDMDL
MODEL 8
REMARK VINA RESULT:      -6.0      3.863      5.920
REMARK  Name = 
REMARK  6 active torsions:
REMARK  status: ('A' for Active; 'I' for Inactive)
REMARK    1  A    between atoms: C_1  and  C_2
REMARK    2  A    between atoms: C_2  and  C_3
REMARK    3  A    between atoms: C_8  and  N_9
REMARK    4  A    between atoms: C_10  and  C_12
REMARK    5  A    between atoms: C_12  and  C_13
REMARK    6  A    between atoms: C_17  and  O_18
REMARK                            x       y       z     vdW  Elec       q    Type
REMARK                         _______ _______ _______ _____ _____    ______ ____
ROOT
ATOM      1  N   UNL     1       2.031   6.344  18.909  0.00  0.00    +0.000 N 
ATOM      2  C   UNL     1       2.520   7.528  18.396  0.00  0.00    +0.000 C 
ATOM      3  O   UNL     1       3.716   7.783  18.296  0.00  0.00    +0.000 OA
ATOM      4  H   UNL     1       1.034   6.256  19.057  0.00  0.00    +0.000 HD
ENDROOT
BRANCH   1  12
ATOM      5  C   UNL     1       4.283   3.225  18.949  0.00  0.00    +0.000 C 
ATOM      6  C   UNL     1       3.126   4.127  18.455  0.00  0.00    +0.000 C 
ATOM      7  C   UNL     1       3.534   4.626  17.053  0.00  0.00    +0.000 C 
ATOM      8  C   UNL     1       1.820   3.309  18.328  0.00  0.00    +0.000 C 
ATOM      9  C   UNL     1       1.273   2.830  19.671  0.00  0.00    +0.000 C 
ATOM     10  C   UNL     1       1.109   3.971  20.669  0.00  0.00    +0.000 C 
ATOM     11  C   UNL     1       2.376   4.815  20.811  0.00  0.00    +0.000 C 
ATOM     12  C   UNL     1       2.916   5.308  19.452  0.00  0.00    +0.000 C 
ENDBRANCH   1  12
BRANCH   2  13
ATOM     13  C   UNL     1       1.451   8.491  17.885  0.00  0.00    +0.000 C 
BRANCH  13  14
ATOM     14  C   UNL     1       1.540   9.828  18.576  0.00  0.00    +0.000 A 
ATOM     15  C   UNL     1       2.147  10.887  17.878  0.00  0.00    +0.000 A 
ATOM     16  C   UNL     1       2.157  12.156  18.438  0.00  0.00    +0.000 A 
ATOM     17  N   UNL     1       1.653  12.436  19.657  0.00  0.00    +0.000 NA
ATOM     18  C   UNL     1       1.106  11.405  20.317  0.00  0.00    +0.000 A 
ATOM     19  C   UNL     1       1.010  10.096  19.841  0.00  0.00    +0.000 A 
ATOM     20 BR   UNL     1       0.163   8.769  20.901  0.00  0.00    +0.000 Br
BRANCH  18  21
ATOM     21  O   UNL     1       0.641  11.767  21.539  0.00  0.00    +0.000 OA
ATOM     22  H   UNL     1       1.488  11.837  22.019  0.00  0.00    +0.000 HD
ENDBRANCH  18  21
ENDBRANCH  13  14
ENDBRANCH   2  13
TORSDOF 4
ENDMDL
MODEL 9
REMARK VINA RESULT:      -6.0      4.987      7.228
REMARK  Name = 
REMARK  6 active torsions:
REMARK  status: ('A' for Active; 'I' for Inactive)
REMARK    1  A    between atoms: C_1  and  C_2
REMARK    2  A    between atoms: C_2  and  C_3
REMARK    3  A    between atoms: C_8  and  N_9
REMARK    4  A    between atoms: C_10  and  C_12
REMARK    5  A    between atoms: C_12  and  C_13
REMARK    6  A    between atoms: C_17  and  O_18
REMARK                            x       y       z     vdW  Elec       q    Type
REMARK                         _______ _______ _______ _____ _____    ______ ____
ROOT
ATOM      1  N   UNL     1       1.213   7.578  20.050  0.00  0.00    +0.000 N 
ATOM      2  C   UNL     1       0.958   8.500  21.044  0.00  0.00    +0.000 C 
ATOM      3  O   UNL     1       1.721   8.722  21.979  0.00  0.00    +0.000 OA
ATOM      4  H   UNL     1       0.486   7.379  19.376  0.00  0.00    +0.000 HD
ENDROOT
BRANCH   1  12
ATOM      5  C   UNL     1       4.331   5.755  18.726  0.00  0.00    +0.000 C 
ATOM      6  C   UNL     1       2.927   6.400  18.638  0.00  0.00    +0.000 C 
ATOM      7  C   UNL     1       3.089   7.676  17.785  0.00  0.00    +0.000 C 
ATOM      8  C   UNL     1       1.940   5.449  17.922  0.00  0.00    +0.000 C 
ATOM      9  C   UNL     1       1.637   4.180  18.716  0.00  0.00    +0.000 C 
ATOM     10  C   UNL     1       1.172   4.485  20.137  0.00  0.00    +0.000 C 
ATOM     11  C   UNL     1       2.113   5.437  20.873  0.00  0.00    +0.000 C 
ATOM     12  C   UNL     1       2.405   6.723  20.071  0.00  0.00    +0.000 C 
ENDBRANCH   1  12
BRANCH   2  13
ATOM     13  C   UNL     1      -0.334   9.294  20.860  0.00  0.00    +0.000 C 
BRANCH  13  14
ATOM     14  C   UNL     1      -0.066  10.645  20.247  0.00  0.00    +0.000 A 
ATOM     15  C   UNL     1       0.913  11.456  20.849  0.00  0.00    +0.000 A 
ATOM     16  C   UNL     1       1.261  12.660  20.256  0.00  0.00    +0.000 A 
ATOM     17  N   UNL     1       0.673  13.137  19.139  0.00  0.00    +0.000 NA
ATOM     18  C   UNL     1      -0.278  12.362  18.600  0.00  0.00    +0.000 A 
ATOM     19  C   UNL     1      -0.687  11.120  19.088  0.00  0.00    +0.000 A 
ATOM     20 BR   UNL     1      -2.025  10.140  18.167  0.00  0.00    +0.000 Br
BRANCH  18  21
ATOM     21  O   UNL     1      -0.829  12.922  17.493  0.00  0.00    +0.000 OA
ATOM     22  H   UNL     1      -1.555  12.290  17.338  0.00  0.00    +0.000 HD
ENDBRANCH  18  21
ENDBRANCH  13  14
ENDBRANCH   2  13
TORSDOF 4
ENDMDL
