MODEL 1
REMARK VINA RESULT:      -8.1      0.000      0.000
REMARK  Name = 
REMARK  6 active torsions:
REMARK  status: ('A' for Active; 'I' for Inactive)
REMARK    1  A    between atoms: C_1  and  N_2
REMARK    2  A    between atoms: N_2  and  C_3
REMARK    3  A    between atoms: C_3  and  C_4
REMARK    4  A    between atoms: C_4  and  C_5
REMARK    5  A    between atoms: C_5  and  C_6
REMARK    6  A    between atoms: N_14  and  C_15
REMARK                            x       y       z     vdW  Elec       q    Type
REMARK                         _______ _______ _______ _____ _____    ______ ____
ROOT
ATOM      1  C   UNL     1       4.920   4.859  16.530  0.00  0.00    +0.000 C 
ATOM      2  C   UNL     1       4.842   3.676  17.489  0.00  0.00    +0.000 C 
ATOM      3  C   UNL     1       3.439   3.464  17.967  0.00  0.00    +0.000 A 
ATOM      4  C   UNL     1       2.960   2.166  18.201  0.00  0.00    +0.000 A 
ATOM      5  C   UNL     1       1.676   1.967  18.695  0.00  0.00    +0.000 A 
ATOM      6  C   UNL     1       0.872   3.057  18.983  0.00  0.00    +0.000 A 
ATOM      7  C   UNL     1       1.347   4.357  18.766  0.00  0.00    +0.000 A 
ATOM      8  C   UNL     1       2.636   4.575  18.251  0.00  0.00    +0.000 A 
ATOM      9  N   UNL     1       3.133   5.879  17.951  0.00  0.00    +0.000 N 
ATOM     10  C   UNL     1       4.242   6.100  17.127  0.00  0.00    +0.000 C 
ATOM     11  O   UNL     1       4.641   7.229  16.822  0.00  0.00    +0.000 OA
ENDROOT
BRANCH   9  12
ATOM     12  C   UNL     1       2.472   6.994  18.542  0.00  0.00    +0.000 A 
ATOM     13  C   UNL     1       2.036   8.062  17.748  0.00  0.00    +0.000 A 
ATOM     14  C   UNL     1       1.359   9.141  18.325  0.00  0.00    +0.000 A 
ATOM     15  C   UNL     1       1.144   9.170  19.702  0.00  0.00    +0.000 A 
ATOM     16  C   UNL     1       1.605   8.123  20.491  0.00  0.00    +0.000 A 
ATOM     17  F   UNL     1       1.416   8.163  21.816  0.00  0.00    +0.000 F 
ATOM     18  C   UNL     1       2.257   7.031  19.927  0.00  0.00    +0.000 A 
ENDBRANCH   9  12
BRANCH   1  19
ATOM     19  C   UNL     1       6.390   5.181  16.160  0.00  0.00    +0.000 C 
BRANCH  19  20
ATOM     20  C   UNL     1       7.383   4.939  17.305  0.00  0.00    +0.000 C 
BRANCH  20  21
ATOM     21  C   UNL     1       7.681   6.218  18.095  0.00  0.00    +0.000 C 
BRANCH  21  23
ATOM     22  C   UNL     1       8.031   8.594  17.830  0.00  0.00    +0.000 C 
ATOM     23  N   UNL     1       7.591   7.364  17.186  0.00  0.00    +0.000 NA
ATOM     24  H   UNL     1       8.166   7.193  16.363  0.00  0.00    +0.000 HD
ENDBRANCH  21  23
ENDBRANCH  20  21
ENDBRANCH  19  20
ENDBRANCH   1  19
TORSDOF 5
ENDMDL
MODEL 2
REMARK VINA RESULT:      -8.0      0.992      1.413
REMARK  Name = 
REMARK  6 active torsions:
REMARK  status: ('A' for Active; 'I' for Inactive)
REMARK    1  A    between atoms: C_1  and  N_2
REMARK    2  A    between atoms: N_2  and  C_3
REMARK    3  A    between atoms: C_3  and  C_4
REMARK    4  A    between atoms: C_4  and  C_5
REMARK    5  A    between atoms: C_5  and  C_6
REMARK    6  A    between atoms: N_14  and  C_15
REMARK                            x       y       z     vdW  Elec       q    Type
REMARK                         _______ _______ _______ _____ _____    ______ ____
ROOT
ATOM      1  C   UNL     1       5.101   5.177  16.595  0.00  0.00    +0.000 C 
ATOM      2  C   UNL     1       5.012   3.911  17.440  0.00  0.00    +0.000 C 
ATOM      3  C   UNL     1       3.594   3.616  17.820  0.00  0.00    +0.000 A 
ATOM      4  C   UNL     1       3.147   2.289  17.911  0.00  0.00    +0.000 A 
ATOM      5  C   UNL     1       1.846   2.010  18.314  0.00  0.00    +0.000 A 
ATOM      6  C   UNL     1       0.992   3.047  18.653  0.00  0.00    +0.000 A 
ATOM      7  C   UNL     1       1.435   4.374  18.578  0.00  0.00    +0.000 A 
ATOM      8  C   UNL     1       2.741   4.674  18.156  0.00  0.00    +0.000 A 
ATOM      9  N   UNL     1       3.209   6.014  18.001  0.00  0.00    +0.000 N 
ATOM     10  C   UNL     1       4.352   6.340  17.262  0.00  0.00    +0.000 C 
ATOM     11  O   UNL     1       4.728   7.502  17.080  0.00  0.00    +0.000 OA
ENDROOT
BRANCH   9  12
ATOM     12  C   UNL     1       2.482   7.052  18.650  0.00  0.00    +0.000 A 
ATOM     13  C   UNL     1       2.272   7.012  20.034  0.00  0.00    +0.000 A 
ATOM     14  C   UNL     1       1.585   8.048  20.674  0.00  0.00    +0.000 A 
ATOM     15  C   UNL     1       1.077   9.110  19.929  0.00  0.00    +0.000 A 
ATOM     16  C   UNL     1       1.260   9.131  18.552  0.00  0.00    +0.000 A 
ATOM     17  F   UNL     1       0.754  10.143  17.834  0.00  0.00    +0.000 F 
ATOM     18  C   UNL     1       1.965   8.121  17.904  0.00  0.00    +0.000 A 
ENDBRANCH   9  12
BRANCH   1  19
ATOM     19  C   UNL     1       6.577   5.573  16.337  0.00  0.00    +0.000 C 
BRANCH  19  20
ATOM     20  C   UNL     1       7.495   5.357  17.547  0.00  0.00    +0.000 C 
BRANCH  20  21
ATOM     21  C   UNL     1       7.793   6.665  18.289  0.00  0.00    +0.000 C 
BRANCH  21  23
ATOM     22  C   UNL     1       8.153   9.027  17.935  0.00  0.00    +0.000 C 
ATOM     23  N   UNL     1       7.703   7.776  17.340  0.00  0.00    +0.000 NA
ATOM     24  H   UNL     1       8.274   7.573  16.520  0.00  0.00    +0.000 HD
ENDBRANCH  21  23
ENDBRANCH  20  21
ENDBRANCH  19  20
ENDBRANCH   1  19
TORSDOF 5
ENDMDL
MODEL 3
REMARK VINA RESULT:      -7.9      1.638      2.371
REMARK  Name = 
REMARK  6 active torsions:
REMARK  status: ('A' for Active; 'I' for Inactive)
REMARK    1  A    between atoms: C_1  and  N_2
REMARK    2  A    between atoms: N_2  and  C_3
REMARK    3  A    between atoms: C_3  and  C_4
REMARK    4  A    between atoms: C_4  and  C_5
REMARK    5  A    between atoms: C_5  and  C_6
REMARK    6  A    between atoms: N_14  and  C_15
REMARK                            x       y       z     vdW  Elec       q    Type
REMARK                         _______ _______ _______ _____ _____    ______ ____
ROOT
ATOM      1  C   UNL     1       5.024   4.804  16.813  0.00  0.00    +0.000 C 
ATOM      2  C   UNL     1       4.871   3.628  17.770  0.00  0.00    +0.000 C 
ATOM      3  C   UNL     1       3.440   3.439  18.166  0.00  0.00    +0.000 A 
ATOM      4  C   UNL     1       2.928   2.149  18.377  0.00  0.00    +0.000 A 
ATOM      5  C   UNL     1       1.614   1.972  18.795  0.00  0.00    +0.000 A 
ATOM      6  C   UNL     1       0.811   3.076  19.031  0.00  0.00    +0.000 A 
ATOM      7  C   UNL     1       1.318   4.367  18.836  0.00  0.00    +0.000 A 
ATOM      8  C   UNL     1       2.639   4.563  18.397  0.00  0.00    +0.000 A 
ATOM      9  N   UNL     1       3.172   5.859  18.122  0.00  0.00    +0.000 N 
ATOM     10  C   UNL     1       4.331   6.059  17.364  0.00  0.00    +0.000 C 
ATOM     11  O   UNL     1       4.764   7.179  17.077  0.00  0.00    +0.000 OA
ENDROOT
BRANCH   9  12
ATOM     12  C   UNL     1       2.494   6.986  18.667  0.00  0.00    +0.000 A 
ATOM     13  C   UNL     1       2.079   8.034  17.836  0.00  0.00    +0.000 A 
ATOM     14  C   UNL     1       1.385   9.125  18.369  0.00  0.00    +0.000 A 
ATOM     15  C   UNL     1       1.134   9.188  19.739  0.00  0.00    +0.000 A 
ATOM     16  C   UNL     1       1.575   8.161  20.564  0.00  0.00    +0.000 A 
ATOM     17  F   UNL     1       1.351   8.233  21.883  0.00  0.00    +0.000 F 
ATOM     18  C   UNL     1       2.242   7.056  20.045  0.00  0.00    +0.000 A 
ENDBRANCH   9  12
BRANCH   1  19
ATOM     19  C   UNL     1       6.518   5.102  16.529  0.00  0.00    +0.000 C 
BRANCH  19  20
ATOM     20  C   UNL     1       6.933   4.850  15.074  0.00  0.00    +0.000 C 
BRANCH  20  21
ATOM     21  C   UNL     1       5.794   4.252  14.241  0.00  0.00    +0.000 C 
BRANCH  21  23
ATOM     22  C   UNL     1       5.701   3.199  12.068  0.00  0.00    +0.000 C 
ATOM     23  N   UNL     1       6.343   3.205  13.375  0.00  0.00    +0.000 NA
ATOM     24  H   UNL     1       7.344   3.352  13.255  0.00  0.00    +0.000 HD
ENDBRANCH  21  23
ENDBRANCH  20  21
ENDBRANCH  19  20
ENDBRANCH   1  19
TORSDOF 5
ENDMDL
MODEL 4
REMARK VINA RESULT:      -7.7      1.921      2.782
REMARK  Name = 
REMARK  6 active torsions:
REMARK  status: ('A' for Active; 'I' for Inactive)
REMARK    1  A    between atoms: C_1  and  N_2
REMARK    2  A    between atoms: N_2  and  C_3
REMARK    3  A    between atoms: C_3  and  C_4
REMARK    4  A    between atoms: C_4  and  C_5
REMARK    5  A    between atoms: C_5  and  C_6
REMARK    6  A    between atoms: N_14  and  C_15
REMARK                            x       y       z     vdW  Elec       q    Type
REMARK                         _______ _______ _______ _____ _____    ______ ____
ROOT
ATOM      1  C   UNL     1       4.974   4.867  16.692  0.00  0.00    +0.000 C 
ATOM      2  C   UNL     1       4.874   3.643  17.595  0.00  0.00    +0.000 C 
ATOM      3  C   UNL     1       3.459   3.409  18.029  0.00  0.00    +0.000 A 
ATOM      4  C   UNL     1       2.977   2.102  18.193  0.00  0.00    +0.000 A 
ATOM      5  C   UNL     1       1.681   1.881  18.646  0.00  0.00    +0.000 A 
ATOM      6  C   UNL     1       0.868   2.957  18.962  0.00  0.00    +0.000 A 
ATOM      7  C   UNL     1       1.347   4.265  18.814  0.00  0.00    +0.000 A 
ATOM      8  C   UNL     1       2.648   4.506  18.341  0.00  0.00    +0.000 A 
ATOM      9  N   UNL     1       3.150   5.823  18.112  0.00  0.00    +0.000 N 
ATOM     10  C   UNL     1       4.280   6.081  17.326  0.00  0.00    +0.000 C 
ATOM     11  O   UNL     1       4.684   7.222  17.081  0.00  0.00    +0.000 OA
ENDROOT
BRANCH   9  12
ATOM     12  C   UNL     1       2.473   6.910  18.735  0.00  0.00    +0.000 A 
ATOM     13  C   UNL     1       2.255   6.911  20.118  0.00  0.00    +0.000 A 
ATOM     14  C   UNL     1       1.619   7.995  20.731  0.00  0.00    +0.000 A 
ATOM     15  C   UNL     1       1.169   9.065  19.960  0.00  0.00    +0.000 A 
ATOM     16  C   UNL     1       1.360   9.046  18.584  0.00  0.00    +0.000 A 
ATOM     17  F   UNL     1       0.909  10.066  17.841  0.00  0.00    +0.000 F 
ATOM     18  C   UNL     1       2.016   7.988  17.962  0.00  0.00    +0.000 A 
ENDBRANCH   9  12
BRANCH   1  19
ATOM     19  C   UNL     1       6.452   5.206  16.373  0.00  0.00    +0.000 C 
BRANCH  19  20
ATOM     20  C   UNL     1       6.967   4.567  15.077  0.00  0.00    +0.000 C 
BRANCH  20  21
ATOM     21  C   UNL     1       5.831   4.232  14.104  0.00  0.00    +0.000 C 
BRANCH  21  23
ATOM     22  C   UNL     1       5.357   3.091  12.028  0.00  0.00    +0.000 C 
ATOM     23  N   UNL     1       6.352   3.345  13.061  0.00  0.00    +0.000 NA
ATOM     24  H   UNL     1       7.176   3.766  12.634  0.00  0.00    +0.000 HD
ENDBRANCH  21  23
ENDBRANCH  20  21
ENDBRANCH  19  20
ENDBRANCH   1  19
TORSDOF 5
ENDMDL
MODEL 5
REMARK VINA RESULT:      -7.6      2.526      4.627
REMARK  Name = 
REMARK  6 active torsions:
REMARK  status: ('A' for Active; 'I' for Inactive)
REMARK    1  A    between atoms: C_1  and  N_2
REMARK    2  A    between atoms: N_2  and  C_3
REMARK    3  A    between atoms: C_3  and  C_4
REMARK    4  A    between atoms: C_4  and  C_5
REMARK    5  A    between atoms: C_5  and  C_6
REMARK    6  A    between atoms: N_14  and  C_15
REMARK                            x       y       z     vdW  Elec       q    Type
REMARK                         _______ _______ _______ _____ _____    ______ ____
ROOT
ATOM      1  C   UNL     1       5.867   5.880  17.897  0.00  0.00    +0.000 C 
ATOM      2  C   UNL     1       5.045   6.742  16.944  0.00  0.00    +0.000 C 
ATOM      3  C   UNL     1       3.854   7.325  17.639  0.00  0.00    +0.000 A 
ATOM      4  C   UNL     1       3.401   8.611  17.306  0.00  0.00    +0.000 A 
ATOM      5  C   UNL     1       2.265   9.136  17.911  0.00  0.00    +0.000 A 
ATOM      6  C   UNL     1       1.559   8.376  18.830  0.00  0.00    +0.000 A 
ATOM      7  C   UNL     1       1.997   7.087  19.157  0.00  0.00    +0.000 A 
ATOM      8  C   UNL     1       3.153   6.547  18.568  0.00  0.00    +0.000 A 
ATOM      9  N   UNL     1       3.670   5.265  18.924  0.00  0.00    +0.000 N 
ATOM     10  C   UNL     1       4.978   4.863  18.628  0.00  0.00    +0.000 C 
ATOM     11  O   UNL     1       5.445   3.777  18.983  0.00  0.00    +0.000 OA
ENDROOT
BRANCH   9  12
ATOM     12  C   UNL     1       2.798   4.359  19.591  0.00  0.00    +0.000 A 
ATOM     13  C   UNL     1       2.834   4.237  20.986  0.00  0.00    +0.000 A 
ATOM     14  C   UNL     1       1.955   3.369  21.642  0.00  0.00    +0.000 A 
ATOM     15  C   UNL     1       1.060   2.598  20.903  0.00  0.00    +0.000 A 
ATOM     16  C   UNL     1       1.048   2.698  19.518  0.00  0.00    +0.000 A 
ATOM     17  F   UNL     1       0.201   1.941  18.808  0.00  0.00    +0.000 F 
ATOM     18  C   UNL     1       1.898   3.577  18.853  0.00  0.00    +0.000 A 
ENDBRANCH   9  12
BRANCH   1  19
ATOM     19  C   UNL     1       7.005   5.146  17.144  0.00  0.00    +0.000 C 
BRANCH  19  20
ATOM     20  C   UNL     1       6.773   5.032  15.632  0.00  0.00    +0.000 C 
BRANCH  20  21
ATOM     21  C   UNL     1       6.109   3.706  15.245  0.00  0.00    +0.000 C 
BRANCH  21  23
ATOM     22  C   UNL     1       7.062   4.566  13.198  0.00  0.00    +0.000 C 
ATOM     23  N   UNL     1       6.283   3.495  13.805  0.00  0.00    +0.000 NA
ATOM     24  H   UNL     1       6.754   2.607  13.644  0.00  0.00    +0.000 HD
ENDBRANCH  21  23
ENDBRANCH  20  21
ENDBRANCH  19  20
ENDBRANCH   1  19
TORSDOF 5
ENDMDL
MODEL 6
REMARK VINA RESULT:      -7.6      1.414      1.732
REMARK  Name = 
REMARK  6 active torsions:
REMARK  status: ('A' for Active; 'I' for Inactive)
REMARK    1  A    between atoms: C_1  and  N_2
REMARK    2  A    between atoms: N_2  and  C_3
REMARK    3  A    between atoms: C_3  and  C_4
REMARK    4  A    between atoms: C_4  and  C_5
REMARK    5  A    between atoms: C_5  and  C_6
REMARK    6  A    between atoms: N_14  and  C_15
REMARK                            x       y       z     vdW  Elec       q    Type
REMARK                         _______ _______ _______ _____ _____    ______ ____
ROOT
ATOM      1  C   UNL     1       4.952   4.819  17.659  0.00  0.00    +0.000 C 
ATOM      2  C   UNL     1       4.939   3.885  18.864  0.00  0.00    +0.000 C 
ATOM      3  C   UNL     1       3.547   3.700  19.385  0.00  0.00    +0.000 A 
ATOM      4  C   UNL     1       3.148   2.462  19.912  0.00  0.00    +0.000 A 
ATOM      5  C   UNL     1       1.873   2.301  20.444  0.00  0.00    +0.000 A 
ATOM      6  C   UNL     1       1.000   3.375  20.478  0.00  0.00    +0.000 A 
ATOM      7  C   UNL     1       1.395   4.617  19.967  0.00  0.00    +0.000 A 
ATOM      8  C   UNL     1       2.674   4.793  19.410  0.00  0.00    +0.000 A 
ATOM      9  N   UNL     1       3.090   6.023  18.817  0.00  0.00    +0.000 N 
ATOM     10  C   UNL     1       4.192   6.119  17.959  0.00  0.00    +0.000 C 
ATOM     11  O   UNL     1       4.522   7.170  17.402  0.00  0.00    +0.000 OA
ENDROOT
BRANCH   9  12
ATOM     12  C   UNL     1       2.355   7.199  19.139  0.00  0.00    +0.000 A 
ATOM     13  C   UNL     1       2.002   7.474  20.466  0.00  0.00    +0.000 A 
ATOM     14  C   UNL     1       1.308   8.645  20.784  0.00  0.00    +0.000 A 
ATOM     15  C   UNL     1       0.936   9.529  19.772  0.00  0.00    +0.000 A 
ATOM     16  C   UNL     1       1.260   9.238  18.453  0.00  0.00    +0.000 A 
ATOM     17  F   UNL     1       0.883  10.078  17.480  0.00  0.00    +0.000 F 
ATOM     18  C   UNL     1       1.974   8.090  18.125  0.00  0.00    +0.000 A 
ENDBRANCH   9  12
BRANCH   1  19
ATOM     19  C   UNL     1       6.403   5.141  17.219  0.00  0.00    +0.000 C 
BRANCH  19  20
ATOM     20  C   UNL     1       7.402   5.205  18.383  0.00  0.00    +0.000 C 
BRANCH  20  21
ATOM     21  C   UNL     1       7.957   6.619  18.593  0.00  0.00    +0.000 C 
BRANCH  21  23
ATOM     22  C   UNL     1       7.925   8.841  17.646  0.00  0.00    +0.000 C 
ATOM     23  N   UNL     1       7.623   7.434  17.422  0.00  0.00    +0.000 NA
ATOM     24  H   UNL     1       8.149   7.104  16.615  0.00  0.00    +0.000 HD
ENDBRANCH  21  23
ENDBRANCH  20  21
ENDBRANCH  19  20
ENDBRANCH   1  19
TORSDOF 5
ENDMDL
MODEL 7
REMARK VINA RESULT:      -7.5      2.026      4.315
REMARK  Name = 
REMARK  6 active torsions:
REMARK  status: ('A' for Active; 'I' for Inactive)
REMARK    1  A    between atoms: C_1  and  N_2
REMARK    2  A    between atoms: N_2  and  C_3
REMARK    3  A    between atoms: C_3  and  C_4
REMARK    4  A    between atoms: C_4  and  C_5
REMARK    5  A    between atoms: C_5  and  C_6
REMARK    6  A    between atoms: N_14  and  C_15
REMARK                            x       y       z     vdW  Elec       q    Type
REMARK                         _______ _______ _______ _____ _____    ______ ____
ROOT
ATOM      1  C   UNL     1       4.845   6.748  17.445  0.00  0.00    +0.000 C 
ATOM      2  C   UNL     1       3.772   7.703  16.933  0.00  0.00    +0.000 C 
ATOM      3  C   UNL     1       2.824   8.082  18.028  0.00  0.00    +0.000 A 
ATOM      4  C   UNL     1       2.277   9.374  18.074  0.00  0.00    +0.000 A 
ATOM      5  C   UNL     1       1.356   9.714  19.058  0.00  0.00    +0.000 A 
ATOM      6  C   UNL     1       0.956   8.766  19.985  0.00  0.00    +0.000 A 
ATOM      7  C   UNL     1       1.486   7.471  19.939  0.00  0.00    +0.000 A 
ATOM      8  C   UNL     1       2.431   7.115  18.961  0.00  0.00    +0.000 A 
ATOM      9  N   UNL     1       3.047   5.828  18.920  0.00  0.00    +0.000 N 
ATOM     10  C   UNL     1       4.219   5.567  18.201  0.00  0.00    +0.000 C 
ATOM     11  O   UNL     1       4.784   4.469  18.209  0.00  0.00    +0.000 OA
ENDROOT
BRANCH   9  12
ATOM     12  C   UNL     1       2.416   4.767  19.631  0.00  0.00    +0.000 A 
ATOM     13  C   UNL     1       2.708   4.547  20.983  0.00  0.00    +0.000 A 
ATOM     14  C   UNL     1       2.064   3.526  21.687  0.00  0.00    +0.000 A 
ATOM     15  C   UNL     1       1.151   2.699  21.034  0.00  0.00    +0.000 A 
ATOM     16  C   UNL     1       0.887   2.900  19.685  0.00  0.00    +0.000 A 
ATOM     17  F   UNL     1       0.025   2.092  19.054  0.00  0.00    +0.000 F 
ATOM     18  C   UNL     1       1.500   3.930  18.978  0.00  0.00    +0.000 A 
ENDBRANCH   9  12
BRANCH   1  19
ATOM     19  C   UNL     1       5.729   6.227  16.283  0.00  0.00    +0.000 C 
BRANCH  19  20
ATOM     20  C   UNL     1       7.208   6.066  16.656  0.00  0.00    +0.000 C 
BRANCH  20  21
ATOM     21  C   UNL     1       7.628   7.011  17.788  0.00  0.00    +0.000 C 
BRANCH  21  23
ATOM     22  C   UNL     1       8.400   9.262  18.207  0.00  0.00    +0.000 C 
ATOM     23  N   UNL     1       7.795   8.359  17.238  0.00  0.00    +0.000 NA
ATOM     24  H   UNL     1       8.383   8.318  16.407  0.00  0.00    +0.000 HD
ENDBRANCH  21  23
ENDBRANCH  20  21
ENDBRANCH  19  20
ENDBRANCH   1  19
TORSDOF 5
ENDMDL
MODEL 8
REMARK VINA RESULT:      -7.5      1.710      2.114
REMARK  Name = 
REMARK  6 active torsions:
REMARK  status: ('A' for Active; 'I' for Inactive)
REMARK    1  A    between atoms: C_1  and  N_2
REMARK    2  A    between atoms: N_2  and  C_3
REMARK    3  A    between atoms: C_3  and  C_4
REMARK    4  A    between atoms: C_4  and  C_5
REMARK    5  A    between atoms: C_5  and  C_6
REMARK    6  A    between atoms: N_14  and  C_15
REMARK                            x       y       z     vdW  Elec       q    Type
REMARK                         _______ _______ _______ _____ _____    ______ ____
ROOT
ATOM      1  C   UNL     1       5.123   4.769  17.936  0.00  0.00    +0.000 C 
ATOM      2  C   UNL     1       4.971   3.930  19.200  0.00  0.00    +0.000 C 
ATOM      3  C   UNL     1       3.530   3.794  19.585  0.00  0.00    +0.000 A 
ATOM      4  C   UNL     1       3.060   2.603  20.159  0.00  0.00    +0.000 A 
ATOM      5  C   UNL     1       1.735   2.491  20.566  0.00  0.00    +0.000 A 
ATOM      6  C   UNL     1       0.879   3.571  20.427  0.00  0.00    +0.000 A 
ATOM      7  C   UNL     1       1.343   4.768  19.868  0.00  0.00    +0.000 A 
ATOM      8  C   UNL     1       2.675   4.892  19.436  0.00  0.00    +0.000 A 
ATOM      9  N   UNL     1       3.169   6.070  18.799  0.00  0.00    +0.000 N 
ATOM     10  C   UNL     1       4.355   6.093  18.056  0.00  0.00    +0.000 C 
ATOM     11  O   UNL     1       4.756   7.096  17.458  0.00  0.00    +0.000 OA
ENDROOT
BRANCH   9  12
ATOM     12  C   UNL     1       2.421   7.272  18.952  0.00  0.00    +0.000 A 
ATOM     13  C   UNL     1       2.114   8.064  17.839  0.00  0.00    +0.000 A 
ATOM     14  C   UNL     1       1.353   9.227  17.988  0.00  0.00    +0.000 A 
ATOM     15  C   UNL     1       0.924   9.620  19.254  0.00  0.00    +0.000 A 
ATOM     16  C   UNL     1       1.256   8.849  20.361  0.00  0.00    +0.000 A 
ATOM     17  F   UNL     1       0.860   9.238  21.580  0.00  0.00    +0.000 F 
ATOM     18  C   UNL     1       1.990   7.674  20.225  0.00  0.00    +0.000 A 
ENDBRANCH   9  12
BRANCH   1  19
ATOM     19  C   UNL     1       6.616   5.046  17.627  0.00  0.00    +0.000 C 
BRANCH  19  20
ATOM     20  C   UNL     1       7.034   4.662  16.202  0.00  0.00    +0.000 C 
BRANCH  20  21
ATOM     21  C   UNL     1       6.038   3.700  15.545  0.00  0.00    +0.000 C 
BRANCH  21  23
ATOM     22  C   UNL     1       7.182   4.764  13.702  0.00  0.00    +0.000 C 
ATOM     23  N   UNL     1       6.268   3.702  14.098  0.00  0.00    +0.000 NA
ATOM     24  H   UNL     1       6.656   2.804  13.812  0.00  0.00    +0.000 HD
ENDBRANCH  21  23
ENDBRANCH  20  21
ENDBRANCH  19  20
ENDBRANCH   1  19
TORSDOF 5
ENDMDL
MODEL 9
REMARK VINA RESULT:      -7.5      2.619      6.132
REMARK  Name = 
REMARK  6 active torsions:
REMARK  status: ('A' for Active; 'I' for Inactive)
REMARK    1  A    between atoms: C_1  and  N_2
REMARK    2  A    between atoms: N_2  and  C_3
REMARK    3  A    between atoms: C_3  and  C_4
REMARK    4  A    between atoms: C_4  and  C_5
REMARK    5  A    between atoms: C_5  and  C_6
REMARK    6  A    between atoms: N_14  and  C_15
REMARK                            x       y       z     vdW  Elec       q    Type
REMARK                         _______ _______ _______ _____ _____    ______ ____
ROOT
ATOM      1  C   UNL     1       2.185   4.978  20.368  0.00  0.00    +0.000 C 
ATOM      2  C   UNL     1       1.994   6.405  20.869  0.00  0.00    +0.000 C 
ATOM      3  C   UNL     1       2.042   7.383  19.736  0.00  0.00    +0.000 A 
ATOM      4  C   UNL     1       1.229   8.527  19.754  0.00  0.00    +0.000 A 
ATOM      5  C   UNL     1       1.309   9.464  18.729  0.00  0.00    +0.000 A 
ATOM      6  C   UNL     1       2.215   9.282  17.698  0.00  0.00    +0.000 A 
ATOM      7  C   UNL     1       3.040   8.150  17.679  0.00  0.00    +0.000 A 
ATOM      8  C   UNL     1       2.960   7.184  18.698  0.00  0.00    +0.000 A 
ATOM      9  N   UNL     1       3.733   5.985  18.681  0.00  0.00    +0.000 N 
ATOM     10  C   UNL     1       3.425   4.869  19.468  0.00  0.00    +0.000 C 
ATOM     11  O   UNL     1       4.059   3.811  19.415  0.00  0.00    +0.000 OA
ENDROOT
BRANCH   9  12
ATOM     12  C   UNL     1       4.879   5.944  17.836  0.00  0.00    +0.000 A 
ATOM     13  C   UNL     1       6.130   6.346  18.318  0.00  0.00    +0.000 A 
ATOM     14  C   UNL     1       7.259   6.275  17.496  0.00  0.00    +0.000 A 
ATOM     15  C   UNL     1       7.135   5.833  16.180  0.00  0.00    +0.000 A 
ATOM     16  C   UNL     1       5.886   5.464  15.696  0.00  0.00    +0.000 A 
ATOM     17  F   UNL     1       5.765   5.058  14.425  0.00  0.00    +0.000 F 
ATOM     18  C   UNL     1       4.759   5.503  16.510  0.00  0.00    +0.000 A 
ENDBRANCH   9  12
BRANCH   1  19
ATOM     19  C   UNL     1       2.297   3.982  21.550  0.00  0.00    +0.000 C 
BRANCH  19  20
ATOM     20  C   UNL     1       1.470   2.703  21.362  0.00  0.00    +0.000 C 
BRANCH  20  21
ATOM     21  C   UNL     1       0.895   2.588  19.946  0.00  0.00    +0.000 C 
BRANCH  21  23
ATOM     22  C   UNL     1       1.995   2.143  17.841  0.00  0.00    +0.000 C 
ATOM     23  N   UNL     1       1.714   1.644  19.181  0.00  0.00    +0.000 NA
ATOM     24  H   UNL     1       2.593   1.481  19.668  0.00  0.00    +0.000 HD
ENDBRANCH  21  23
ENDBRANCH  20  21
ENDBRANCH  19  20
ENDBRANCH   1  19
TORSDOF 5
ENDMDL
