MODEL 1
REMARK VINA RESULT:      -8.4      0.000      0.000
REMARK  Name = 
REMARK  5 active torsions:
REMARK  status: ('A' for Active; 'I' for Inactive)
REMARK    1  A    between atoms: C_2  and  C_3
REMARK    2  A    between atoms: C_2  and  C_11
REMARK    3  A    between atoms: C_3  and  C_4
REMARK    4  A    between atoms: C_9  and  O_10
REMARK    5  A    between atoms: C_11  and  N_12
REMARK                            x       y       z     vdW  Elec       q    Type
REMARK                         _______ _______ _______ _____ _____    ______ ____
ROOT
ATOM      1  C   UNL     1       5.630   4.776  18.312  0.00  0.00    +0.000 C 
ENDROOT
BRANCH   1   2
ATOM      2  N   UNL     1       6.025   4.907  16.922  0.00  0.00    +0.000 N 
ATOM      3  C   UNL     1       7.129   5.658  16.586  0.00  0.00    +0.000 A 
ATOM      4  N   UNL     1       7.603   5.776  15.392  0.00  0.00    +0.000 NA
ATOM      5  C   UNL     1       7.000   5.022  14.376  0.00  0.00    +0.000 A 
ATOM      6  C   UNL     1       7.586   5.011  13.110  0.00  0.00    +0.000 A 
ATOM      7  C   UNL     1       7.086   4.175  12.110  0.00  0.00    +0.000 A 
ATOM      8  C   UNL     1       5.987   3.362  12.378  0.00  0.00    +0.000 A 
ATOM      9  F   UNL     1       5.543   2.524  11.434  0.00  0.00    +0.000 F 
ATOM     10  C   UNL     1       5.358   3.391  13.615  0.00  0.00    +0.000 A 
ATOM     11  C   UNL     1       5.871   4.229  14.605  0.00  0.00    +0.000 A 
ATOM     12  C   UNL     1       5.285   4.249  15.959  0.00  0.00    +0.000 A 
ATOM     13  O   UNL     1       4.208   3.701  16.173  0.00  0.00    +0.000 OA
ENDBRANCH   1   2
BRANCH   1  15
ATOM     14  O   UNL     1       4.297   6.723  18.047  0.00  0.00    +0.000 OA
ATOM     15  C   UNL     1       4.393   5.610  18.568  0.00  0.00    +0.000 C 
BRANCH  15  16
ATOM     16  C   UNL     1       3.308   5.011  19.440  0.00  0.00    +0.000 C 
BRANCH  16  17
ATOM     17  C   UNL     1       3.077   3.505  19.206  0.00  0.00    +0.000 C 
ATOM     18  N   UNL     1       3.541   2.694  20.367  0.00  0.00    +0.000 NA
ATOM     19  C   UNL     1       2.717   2.885  21.568  0.00  0.00    +0.000 C 
ATOM     20  C   UNL     1       1.225   2.634  21.327  0.00  0.00    +0.000 C 
ATOM     21  C   UNL     1       0.700   3.334  20.076  0.00  0.00    +0.000 C 
ATOM     22  C   UNL     1       1.623   3.070  18.888  0.00  0.00    +0.000 C 
ATOM     23  H   UNL     1       4.511   2.924  20.584  0.00  0.00    +0.000 HD
BRANCH  22  24
ATOM     24  O   UNL     1       1.626   1.655  18.620  0.00  0.00    +0.000 OA
ATOM     25  H   UNL     1       1.601   1.232  19.502  0.00  0.00    +0.000 HD
ENDBRANCH  22  24
ENDBRANCH  16  17
ENDBRANCH  15  16
ENDBRANCH   1  15
TORSDOF 5
ENDMDL
MODEL 2
REMARK VINA RESULT:      -8.1      0.873      1.047
REMARK  Name = 
REMARK  5 active torsions:
REMARK  status: ('A' for Active; 'I' for Inactive)
REMARK    1  A    between atoms: C_2  and  C_3
REMARK    2  A    between atoms: C_2  and  C_11
REMARK    3  A    between atoms: C_3  and  C_4
REMARK    4  A    between atoms: C_9  and  O_10
REMARK    5  A    between atoms: C_11  and  N_12
REMARK                            x       y       z     vdW  Elec       q    Type
REMARK                         _______ _______ _______ _____ _____    ______ ____
ROOT
ATOM      1  C   UNL     1       5.632   4.925  18.323  0.00  0.00    +0.000 C 
ENDROOT
BRANCH   1   2
ATOM      2  N   UNL     1       6.021   5.002  16.927  0.00  0.00    +0.000 N 
ATOM      3  C   UNL     1       7.142   5.711  16.560  0.00  0.00    +0.000 A 
ATOM      4  N   UNL     1       7.610   5.778  15.360  0.00  0.00    +0.000 NA
ATOM      5  C   UNL     1       6.979   5.010  14.372  0.00  0.00    +0.000 A 
ATOM      6  C   UNL     1       7.554   4.942  13.103  0.00  0.00    +0.000 A 
ATOM      7  C   UNL     1       7.023   4.090  12.133  0.00  0.00    +0.000 A 
ATOM      8  C   UNL     1       5.905   3.317  12.434  0.00  0.00    +0.000 A 
ATOM      9  F   UNL     1       5.430   2.462  11.520  0.00  0.00    +0.000 F 
ATOM     10  C   UNL     1       5.286   3.402  13.674  0.00  0.00    +0.000 A 
ATOM     11  C   UNL     1       5.830   4.256  14.634  0.00  0.00    +0.000 A 
ATOM     12  C   UNL     1       5.255   4.334  15.990  0.00  0.00    +0.000 A 
ATOM     13  O   UNL     1       4.166   3.824  16.229  0.00  0.00    +0.000 OA
ENDBRANCH   1   2
BRANCH   1  15
ATOM     14  O   UNL     1       4.225   6.764  17.799  0.00  0.00    +0.000 OA
ATOM     15  C   UNL     1       4.441   5.826  18.568  0.00  0.00    +0.000 C 
BRANCH  15  16
ATOM     16  C   UNL     1       3.545   5.501  19.746  0.00  0.00    +0.000 C 
BRANCH  16  17
ATOM     17  C   UNL     1       2.419   4.501  19.421  0.00  0.00    +0.000 C 
ATOM     18  N   UNL     1       2.966   3.176  19.012  0.00  0.00    +0.000 NA
ATOM     19  C   UNL     1       3.620   2.459  20.115  0.00  0.00    +0.000 C 
ATOM     20  C   UNL     1       2.722   2.289  21.345  0.00  0.00    +0.000 C 
ATOM     21  C   UNL     1       2.023   3.584  21.752  0.00  0.00    +0.000 C 
ATOM     22  C   UNL     1       1.375   4.246  20.538  0.00  0.00    +0.000 C 
ATOM     23  H   UNL     1       3.632   3.297  18.248  0.00  0.00    +0.000 HD
BRANCH  22  24
ATOM     24  O   UNL     1       0.368   3.358  20.019  0.00  0.00    +0.000 OA
ATOM     25  H   UNL     1       0.184   3.688  19.116  0.00  0.00    +0.000 HD
ENDBRANCH  22  24
ENDBRANCH  16  17
ENDBRANCH  15  16
ENDBRANCH   1  15
TORSDOF 5
ENDMDL
MODEL 3
REMARK VINA RESULT:      -7.7      1.503      1.817
REMARK  Name = 
REMARK  5 active torsions:
REMARK  status: ('A' for Active; 'I' for Inactive)
REMARK    1  A    between atoms: C_2  and  C_3
REMARK    2  A    between atoms: C_2  and  C_11
REMARK    3  A    between atoms: C_3  and  C_4
REMARK    4  A    between atoms: C_9  and  O_10
REMARK    5  A    between atoms: C_11  and  N_12
REMARK                            x       y       z     vdW  Elec       q    Type
REMARK                         _______ _______ _______ _____ _____    ______ ____
ROOT
ATOM      1  C   UNL     1       5.322   5.783  18.185  0.00  0.00    +0.000 C 
ENDROOT
BRANCH   1   2
ATOM      2  N   UNL     1       5.836   5.628  16.838  0.00  0.00    +0.000 N 
ATOM      3  C   UNL     1       7.064   6.152  16.503  0.00  0.00    +0.000 A 
ATOM      4  N   UNL     1       7.639   6.006  15.357  0.00  0.00    +0.000 NA
ATOM      5  C   UNL     1       7.007   5.187  14.412  0.00  0.00    +0.000 A 
ATOM      6  C   UNL     1       7.677   4.886  13.226  0.00  0.00    +0.000 A 
ATOM      7  C   UNL     1       7.131   3.975  12.319  0.00  0.00    +0.000 A 
ATOM      8  C   UNL     1       5.904   3.379  12.598  0.00  0.00    +0.000 A 
ATOM      9  F   UNL     1       5.409   2.468  11.752  0.00  0.00    +0.000 F 
ATOM     10  C   UNL     1       5.196   3.698  13.747  0.00  0.00    +0.000 A 
ATOM     11  C   UNL     1       5.755   4.607  14.646  0.00  0.00    +0.000 A 
ATOM     12  C   UNL     1       5.078   4.930  15.916  0.00  0.00    +0.000 A 
ATOM     13  O   UNL     1       3.918   4.581  16.103  0.00  0.00    +0.000 OA
ENDBRANCH   1   2
BRANCH   1  15
ATOM     14  O   UNL     1       6.662   4.077  19.147  0.00  0.00    +0.000 OA
ATOM     15  C   UNL     1       5.519   4.496  18.955  0.00  0.00    +0.000 C 
BRANCH  15  16
ATOM     16  C   UNL     1       4.284   3.796  19.485  0.00  0.00    +0.000 C 
BRANCH  16  17
ATOM     17  C   UNL     1       3.044   4.705  19.586  0.00  0.00    +0.000 C 
ATOM     18  N   UNL     1       2.085   4.446  18.474  0.00  0.00    +0.000 NA
ATOM     19  C   UNL     1       1.435   3.133  18.568  0.00  0.00    +0.000 C 
ATOM     20  C   UNL     1       0.741   2.894  19.913  0.00  0.00    +0.000 C 
ATOM     21  C   UNL     1       1.621   3.257  21.107  0.00  0.00    +0.000 C 
ATOM     22  C   UNL     1       2.243   4.637  20.912  0.00  0.00    +0.000 C 
ATOM     23  H   UNL     1       2.567   4.521  17.577  0.00  0.00    +0.000 HD
BRANCH  22  24
ATOM     24  O   UNL     1       1.184   5.610  20.848  0.00  0.00    +0.000 OA
ATOM     25  H   UNL     1       0.375   5.116  21.091  0.00  0.00    +0.000 HD
ENDBRANCH  22  24
ENDBRANCH  16  17
ENDBRANCH  15  16
ENDBRANCH   1  15
TORSDOF 5
ENDMDL
MODEL 4
REMARK VINA RESULT:      -7.7      3.666      6.817
REMARK  Name = 
REMARK  5 active torsions:
REMARK  status: ('A' for Active; 'I' for Inactive)
REMARK    1  A    between atoms: C_2  and  C_3
REMARK    2  A    between atoms: C_2  and  C_11
REMARK    3  A    between atoms: C_3  and  C_4
REMARK    4  A    between atoms: C_9  and  O_10
REMARK    5  A    between atoms: C_11  and  N_12
REMARK                            x       y       z     vdW  Elec       q    Type
REMARK                         _______ _______ _______ _____ _____    ______ ____
ROOT
ATOM      1  C   UNL     1       3.011   3.180  19.327  0.00  0.00    +0.000 C 
ENDROOT
BRANCH   1   2
ATOM      2  N   UNL     1       2.461   4.498  19.579  0.00  0.00    +0.000 N 
ATOM      3  C   UNL     1       2.089   4.859  20.854  0.00  0.00    +0.000 A 
ATOM      4  N   UNL     1       1.659   6.027  21.193  0.00  0.00    +0.000 NA
ATOM      5  C   UNL     1       1.646   7.025  20.209  0.00  0.00    +0.000 A 
ATOM      6  C   UNL     1       1.334   8.333  20.582  0.00  0.00    +0.000 A 
ATOM      7  C   UNL     1       1.432   9.372  19.655  0.00  0.00    +0.000 A 
ATOM      8  C   UNL     1       1.829   9.094  18.349  0.00  0.00    +0.000 A 
ATOM      9  F   UNL     1       1.973  10.100  17.477  0.00  0.00    +0.000 F 
ATOM     10  C   UNL     1       2.098   7.795  17.942  0.00  0.00    +0.000 A 
ATOM     11  C   UNL     1       1.999   6.768  18.880  0.00  0.00    +0.000 A 
ATOM     12  C   UNL     1       2.340   5.378  18.520  0.00  0.00    +0.000 A 
ATOM     13  O   UNL     1       2.501   5.067  17.345  0.00  0.00    +0.000 OA
ENDBRANCH   1   2
BRANCH   1  15
ATOM     14  O   UNL     1       5.026   2.180  20.084  0.00  0.00    +0.000 OA
ATOM     15  C   UNL     1       4.497   3.187  19.612  0.00  0.00    +0.000 C 
BRANCH  15  16
ATOM     16  C   UNL     1       5.274   4.442  19.267  0.00  0.00    +0.000 C 
BRANCH  16  17
ATOM     17  C   UNL     1       5.998   4.377  17.908  0.00  0.00    +0.000 C 
ATOM     18  N   UNL     1       5.387   5.308  16.917  0.00  0.00    +0.000 NA
ATOM     19  C   UNL     1       5.607   6.723  17.245  0.00  0.00    +0.000 C 
ATOM     20  C   UNL     1       7.085   7.077  17.442  0.00  0.00    +0.000 C 
ATOM     21  C   UNL     1       7.815   6.090  18.350  0.00  0.00    +0.000 C 
ATOM     22  C   UNL     1       7.524   4.654  17.923  0.00  0.00    +0.000 C 
ATOM     23  H   UNL     1       4.384   5.130  16.849  0.00  0.00    +0.000 HD
BRANCH  22  24
ATOM     24  O   UNL     1       8.028   4.464  16.589  0.00  0.00    +0.000 OA
ATOM     25  H   UNL     1       7.232   4.331  16.035  0.00  0.00    +0.000 HD
ENDBRANCH  22  24
ENDBRANCH  16  17
ENDBRANCH  15  16
ENDBRANCH   1  15
TORSDOF 5
ENDMDL
MODEL 5
REMARK VINA RESULT:      -7.7      1.583      2.088
REMARK  Name = 
REMARK  5 active torsions:
REMARK  status: ('A' for Active; 'I' for Inactive)
REMARK    1  A    between atoms: C_2  and  C_3
REMARK    2  A    between atoms: C_2  and  C_11
REMARK    3  A    between atoms: C_3  and  C_4
REMARK    4  A    between atoms: C_9  and  O_10
REMARK    5  A    between atoms: C_11  and  N_12
REMARK                            x       y       z     vdW  Elec       q    Type
REMARK                         _______ _______ _______ _____ _____    ______ ____
ROOT
ATOM      1  C   UNL     1       5.667   5.732  18.087  0.00  0.00    +0.000 C 
ENDROOT
BRANCH   1   2
ATOM      2  N   UNL     1       5.914   5.076  16.817  0.00  0.00    +0.000 N 
ATOM      3  C   UNL     1       5.212   3.941  16.479  0.00  0.00    +0.000 A 
ATOM      4  N   UNL     1       5.305   3.328  15.348  0.00  0.00    +0.000 NA
ATOM      5  C   UNL     1       6.119   3.902  14.362  0.00  0.00    +0.000 A 
ATOM      6  C   UNL     1       6.118   3.348  13.082  0.00  0.00    +0.000 A 
ATOM      7  C   UNL     1       6.818   3.967  12.045  0.00  0.00    +0.000 A 
ATOM      8  C   UNL     1       7.532   5.136  12.299  0.00  0.00    +0.000 A 
ATOM      9  F   UNL     1       8.159   5.755  11.292  0.00  0.00    +0.000 F 
ATOM     10  C   UNL     1       7.587   5.680  13.575  0.00  0.00    +0.000 A 
ATOM     11  C   UNL     1       6.879   5.052  14.600  0.00  0.00    +0.000 A 
ATOM     12  C   UNL     1       6.846   5.625  15.959  0.00  0.00    +0.000 A 
ATOM     13  O   UNL     1       7.613   6.532  16.265  0.00  0.00    +0.000 OA
ENDBRANCH   1   2
BRANCH   1  15
ATOM     14  O   UNL     1       5.830   3.996  19.698  0.00  0.00    +0.000 OA
ATOM     15  C   UNL     1       5.078   4.740  19.066  0.00  0.00    +0.000 C 
BRANCH  15  16
ATOM     16  C   UNL     1       3.573   4.735  19.243  0.00  0.00    +0.000 C 
BRANCH  16  17
ATOM     17  C   UNL     1       2.918   3.360  19.003  0.00  0.00    +0.000 C 
ATOM     18  N   UNL     1       3.347   2.365  20.027  0.00  0.00    +0.000 NA
ATOM     19  C   UNL     1       2.824   2.656  21.368  0.00  0.00    +0.000 C 
ATOM     20  C   UNL     1       1.300   2.808  21.405  0.00  0.00    +0.000 C 
ATOM     21  C   UNL     1       0.769   3.720  20.301  0.00  0.00    +0.000 C 
ATOM     22  C   UNL     1       1.369   3.332  18.952  0.00  0.00    +0.000 C 
ATOM     23  H   UNL     1       4.367   2.325  20.064  0.00  0.00    +0.000 HD
BRANCH  22  24
ATOM     24  O   UNL     1       0.954   1.989  18.638  0.00  0.00    +0.000 OA
ATOM     25  H   UNL     1       1.679   1.419  18.966  0.00  0.00    +0.000 HD
ENDBRANCH  22  24
ENDBRANCH  16  17
ENDBRANCH  15  16
ENDBRANCH   1  15
TORSDOF 5
ENDMDL
MODEL 6
REMARK VINA RESULT:      -7.6      5.340      7.911
REMARK  Name = 
REMARK  5 active torsions:
REMARK  status: ('A' for Active; 'I' for Inactive)
REMARK    1  A    between atoms: C_2  and  C_3
REMARK    2  A    between atoms: C_2  and  C_11
REMARK    3  A    between atoms: C_3  and  C_4
REMARK    4  A    between atoms: C_9  and  O_10
REMARK    5  A    between atoms: C_11  and  N_12
REMARK                            x       y       z     vdW  Elec       q    Type
REMARK                         _______ _______ _______ _____ _____    ______ ____
ROOT
ATOM      1  C   UNL     1       2.730   7.836  17.929  0.00  0.00    +0.000 C 
ENDROOT
BRANCH   1   2
ATOM      2  N   UNL     1       1.907   8.206  19.065  0.00  0.00    +0.000 N 
ATOM      3  C   UNL     1       1.997   7.499  20.242  0.00  0.00    +0.000 A 
ATOM      4  N   UNL     1       1.364   7.793  21.327  0.00  0.00    +0.000 NA
ATOM      5  C   UNL     1       0.592   8.962  21.333  0.00  0.00    +0.000 A 
ATOM      6  C   UNL     1       0.023   9.386  22.534  0.00  0.00    +0.000 A 
ATOM      7  C   UNL     1      -0.647  10.610  22.603  0.00  0.00    +0.000 A 
ATOM      8  C   UNL     1      -0.758  11.399  21.462  0.00  0.00    +0.000 A 
ATOM      9  F   UNL     1      -1.354  12.594  21.543  0.00  0.00    +0.000 F 
ATOM     10  C   UNL     1      -0.241  10.976  20.244  0.00  0.00    +0.000 A 
ATOM     11  C   UNL     1       0.428   9.754  20.191  0.00  0.00    +0.000 A 
ATOM     12  C   UNL     1       1.056   9.288  18.941  0.00  0.00    +0.000 A 
ATOM     13  O   UNL     1       0.813   9.854  17.880  0.00  0.00    +0.000 OA
ENDBRANCH   1   2
BRANCH   1  15
ATOM     14  O   UNL     1       4.442   6.246  18.348  0.00  0.00    +0.000 OA
ATOM     15  C   UNL     1       3.246   6.426  18.114  0.00  0.00    +0.000 C 
BRANCH  15  16
ATOM     16  C   UNL     1       2.242   5.293  18.032  0.00  0.00    +0.000 C 
BRANCH  16  17
ATOM     17  C   UNL     1       2.837   3.905  18.336  0.00  0.00    +0.000 C 
ATOM     18  N   UNL     1       3.391   3.839  19.718  0.00  0.00    +0.000 NA
ATOM     19  C   UNL     1       2.355   3.895  20.758  0.00  0.00    +0.000 C 
ATOM     20  C   UNL     1       1.267   2.830  20.588  0.00  0.00    +0.000 C 
ATOM     21  C   UNL     1       0.734   2.750  19.159  0.00  0.00    +0.000 C 
ATOM     22  C   UNL     1       1.887   2.692  18.161  0.00  0.00    +0.000 C 
ATOM     23  H   UNL     1       4.054   4.602  19.861  0.00  0.00    +0.000 HD
BRANCH  22  24
ATOM     24  O   UNL     1       2.642   1.491  18.406  0.00  0.00    +0.000 OA
ATOM     25  H   UNL     1       2.534   0.956  17.593  0.00  0.00    +0.000 HD
ENDBRANCH  22  24
ENDBRANCH  16  17
ENDBRANCH  15  16
ENDBRANCH   1  15
TORSDOF 5
ENDMDL
MODEL 7
REMARK VINA RESULT:      -7.4      1.010      1.163
REMARK  Name = 
REMARK  5 active torsions:
REMARK  status: ('A' for Active; 'I' for Inactive)
REMARK    1  A    between atoms: C_2  and  C_3
REMARK    2  A    between atoms: C_2  and  C_11
REMARK    3  A    between atoms: C_3  and  C_4
REMARK    4  A    between atoms: C_9  and  O_10
REMARK    5  A    between atoms: C_11  and  N_12
REMARK                            x       y       z     vdW  Elec       q    Type
REMARK                         _______ _______ _______ _____ _____    ______ ____
ROOT
ATOM      1  C   UNL     1       5.468   6.005  18.191  0.00  0.00    +0.000 C 
ENDROOT
BRANCH   1   2
ATOM      2  N   UNL     1       5.944   5.773  16.841  0.00  0.00    +0.000 N 
ATOM      3  C   UNL     1       7.208   6.177  16.475  0.00  0.00    +0.000 A 
ATOM      4  N   UNL     1       7.749   5.952  15.326  0.00  0.00    +0.000 NA
ATOM      5  C   UNL     1       7.030   5.171  14.411  0.00  0.00    +0.000 A 
ATOM      6  C   UNL     1       7.651   4.784  13.223  0.00  0.00    +0.000 A 
ATOM      7  C   UNL     1       7.011   3.904  12.348  0.00  0.00    +0.000 A 
ATOM      8  C   UNL     1       5.741   3.427  12.659  0.00  0.00    +0.000 A 
ATOM      9  F   UNL     1       5.152   2.543  11.843  0.00  0.00    +0.000 F 
ATOM     10  C   UNL     1       5.083   3.835  13.810  0.00  0.00    +0.000 A 
ATOM     11  C   UNL     1       5.736   4.711  14.677  0.00  0.00    +0.000 A 
ATOM     12  C   UNL     1       5.112   5.124  15.949  0.00  0.00    +0.000 A 
ATOM     13  O   UNL     1       3.928   4.885  16.162  0.00  0.00    +0.000 OA
ENDBRANCH   1   2
BRANCH   1  15
ATOM     14  O   UNL     1       6.278   3.873  18.848  0.00  0.00    +0.000 OA
ATOM     15  C   UNL     1       5.356   4.686  18.924  0.00  0.00    +0.000 C 
BRANCH  15  16
ATOM     16  C   UNL     1       4.110   4.445  19.753  0.00  0.00    +0.000 C 
BRANCH  16  17
ATOM     17  C   UNL     1       3.592   2.995  19.698  0.00  0.00    +0.000 C 
ATOM     18  N   UNL     1       2.935   2.600  20.976  0.00  0.00    +0.000 NA
ATOM     19  C   UNL     1       1.669   3.304  21.215  0.00  0.00    +0.000 C 
ATOM     20  C   UNL     1       0.672   3.167  20.059  0.00  0.00    +0.000 C 
ATOM     21  C   UNL     1       1.304   3.435  18.695  0.00  0.00    +0.000 C 
ATOM     22  C   UNL     1       2.608   2.655  18.548  0.00  0.00    +0.000 C 
ATOM     23  H   UNL     1       3.569   2.773  21.758  0.00  0.00    +0.000 HD
BRANCH  22  24
ATOM     24  O   UNL     1       2.308   1.249  18.615  0.00  0.00    +0.000 OA
ATOM     25  H   UNL     1       3.137   0.802  18.348  0.00  0.00    +0.000 HD
ENDBRANCH  22  24
ENDBRANCH  16  17
ENDBRANCH  15  16
ENDBRANCH   1  15
TORSDOF 5
ENDMDL
MODEL 8
REMARK VINA RESULT:      -7.4      1.736      2.403
REMARK  Name = 
REMARK  5 active torsions:
REMARK  status: ('A' for Active; 'I' for Inactive)
REMARK    1  A    between atoms: C_2  and  C_3
REMARK    2  A    between atoms: C_2  and  C_11
REMARK    3  A    between atoms: C_3  and  C_4
REMARK    4  A    between atoms: C_9  and  O_10
REMARK    5  A    between atoms: C_11  and  N_12
REMARK                            x       y       z     vdW  Elec       q    Type
REMARK                         _______ _______ _______ _____ _____    ______ ____
ROOT
ATOM      1  C   UNL     1       5.956   5.694  18.195  0.00  0.00    +0.000 C 
ENDROOT
BRANCH   1   2
ATOM      2  N   UNL     1       6.128   5.032  16.916  0.00  0.00    +0.000 N 
ATOM      3  C   UNL     1       5.421   3.885  16.631  0.00  0.00    +0.000 A 
ATOM      4  N   UNL     1       5.448   3.266  15.500  0.00  0.00    +0.000 NA
ATOM      5  C   UNL     1       6.187   3.845  14.459  0.00  0.00    +0.000 A 
ATOM      6  C   UNL     1       6.110   3.282  13.185  0.00  0.00    +0.000 A 
ATOM      7  C   UNL     1       6.732   3.904  12.101  0.00  0.00    +0.000 A 
ATOM      8  C   UNL     1       7.444   5.083  12.300  0.00  0.00    +0.000 A 
ATOM      9  F   UNL     1       7.995   5.705  11.250  0.00  0.00    +0.000 F 
ATOM     10  C   UNL     1       7.575   5.637  13.566  0.00  0.00    +0.000 A 
ATOM     11  C   UNL     1       6.946   5.007  14.639  0.00  0.00    +0.000 A 
ATOM     12  C   UNL     1       6.994   5.588  15.994  0.00  0.00    +0.000 A 
ATOM     13  O   UNL     1       7.766   6.508  16.244  0.00  0.00    +0.000 OA
ENDBRANCH   1   2
BRANCH   1  15
ATOM     14  O   UNL     1       3.817   6.649  17.814  0.00  0.00    +0.000 OA
ATOM     15  C   UNL     1       4.480   5.859  18.487  0.00  0.00    +0.000 C 
BRANCH  15  16
ATOM     16  C   UNL     1       3.881   5.007  19.588  0.00  0.00    +0.000 C 
BRANCH  16  17
ATOM     17  C   UNL     1       2.348   4.872  19.512  0.00  0.00    +0.000 C 
ATOM     18  N   UNL     1       1.913   4.309  18.202  0.00  0.00    +0.000 NA
ATOM     19  C   UNL     1       2.291   2.901  18.027  0.00  0.00    +0.000 C 
ATOM     20  C   UNL     1       1.806   1.996  19.164  0.00  0.00    +0.000 C 
ATOM     21  C   UNL     1       2.105   2.570  20.547  0.00  0.00    +0.000 C 
ATOM     22  C   UNL     1       1.671   4.032  20.625  0.00  0.00    +0.000 C 
ATOM     23  H   UNL     1       2.308   4.862  17.440  0.00  0.00    +0.000 HD
BRANCH  22  24
ATOM     24  O   UNL     1       0.246   4.095  20.433  0.00  0.00    +0.000 OA
ATOM     25  H   UNL     1      -0.135   3.711  21.249  0.00  0.00    +0.000 HD
ENDBRANCH  22  24
ENDBRANCH  16  17
ENDBRANCH  15  16
ENDBRANCH   1  15
TORSDOF 5
ENDMDL
MODEL 9
REMARK VINA RESULT:      -7.4      5.360      7.868
REMARK  Name = 
REMARK  5 active torsions:
REMARK  status: ('A' for Active; 'I' for Inactive)
REMARK    1  A    between atoms: C_2  and  C_3
REMARK    2  A    between atoms: C_2  and  C_11
REMARK    3  A    between atoms: C_3  and  C_4
REMARK    4  A    between atoms: C_9  and  O_10
REMARK    5  A    between atoms: C_11  and  N_12
REMARK                            x       y       z     vdW  Elec       q    Type
REMARK                         _______ _______ _______ _____ _____    ______ ____
ROOT
ATOM      1  C   UNL     1       2.253   6.764  18.167  0.00  0.00    +0.000 C 
ENDROOT
BRANCH   1   2
ATOM      2  N   UNL     1       1.867   7.990  18.839  0.00  0.00    +0.000 N 
ATOM      3  C   UNL     1       1.837   9.178  18.144  0.00  0.00    +0.000 A 
ATOM      4  N   UNL     1       1.439  10.305  18.630  0.00  0.00    +0.000 NA
ATOM      5  C   UNL     1       0.924  10.305  19.934  0.00  0.00    +0.000 A 
ATOM      6  C   UNL     1       0.346  11.474  20.429  0.00  0.00    +0.000 A 
ATOM      7  C   UNL     1      -0.287  11.475  21.673  0.00  0.00    +0.000 A 
ATOM      8  C   UNL     1      -0.325  10.305  22.427  0.00  0.00    +0.000 A 
ATOM      9  F   UNL     1      -0.978  10.296  23.595  0.00  0.00    +0.000 F 
ATOM     10  C   UNL     1       0.284   9.142  21.977  0.00  0.00    +0.000 A 
ATOM     11  C   UNL     1       0.910   9.155  20.731  0.00  0.00    +0.000 A 
ATOM     12  C   UNL     1       1.514   7.930  20.173  0.00  0.00    +0.000 A 
ATOM     13  O   UNL     1       1.672   6.942  20.883  0.00  0.00    +0.000 OA
ENDBRANCH   1   2
BRANCH   1  15
ATOM     14  O   UNL     1       4.459   7.377  17.539  0.00  0.00    +0.000 OA
ATOM     15  C   UNL     1       3.758   6.615  18.208  0.00  0.00    +0.000 C 
BRANCH  15  16
ATOM     16  C   UNL     1       4.335   5.541  19.108  0.00  0.00    +0.000 C 
BRANCH  16  17
ATOM     17  C   UNL     1       5.149   4.467  18.360  0.00  0.00    +0.000 C 
ATOM     18  N   UNL     1       5.425   3.287  19.229  0.00  0.00    +0.000 NA
ATOM     19  C   UNL     1       4.220   2.508  19.541  0.00  0.00    +0.000 C 
ATOM     20  C   UNL     1       3.446   2.062  18.296  0.00  0.00    +0.000 C 
ATOM     21  C   UNL     1       3.232   3.194  17.294  0.00  0.00    +0.000 C 
ATOM     22  C   UNL     1       4.542   3.935  17.037  0.00  0.00    +0.000 C 
ATOM     23  H   UNL     1       5.863   3.593  20.099  0.00  0.00    +0.000 HD
BRANCH  22  24
ATOM     24  O   UNL     1       5.479   3.014  16.450  0.00  0.00    +0.000 OA
ATOM     25  H   UNL     1       4.971   2.187  16.321  0.00  0.00    +0.000 HD
ENDBRANCH  22  24
ENDBRANCH  16  17
ENDBRANCH  15  16
ENDBRANCH   1  15
TORSDOF 5
ENDMDL
