MODEL 1
REMARK VINA RESULT:      -8.3      0.000      0.000
REMARK  Name = 
REMARK  8 active torsions:
REMARK  status: ('A' for Active; 'I' for Inactive)
REMARK    1  A    between atoms: C_1  and  O_2
REMARK    2  A    between atoms: O_2  and  C_3
REMARK    3  A    between atoms: C_7  and  C_8
REMARK    4  A    between atoms: C_8  and  C_10
REMARK    5  A    between atoms: C_10  and  O_11
REMARK    6  A    between atoms: O_11  and  C_12
REMARK    7  A    between atoms: C_15  and  N_16
REMARK    8  A    between atoms: C_17  and  C_19
REMARK                            x       y       z     vdW  Elec       q    Type
REMARK                         _______ _______ _______ _____ _____    ______ ____
ROOT
ATOM      1  C   UNL     1       6.549   4.876  17.317  0.00  0.00    +0.000 A 
ATOM      2  C   UNL     1       6.795   5.965  16.489  0.00  0.00    +0.000 A 
ATOM      3  C   UNL     1       7.522   7.060  16.956  0.00  0.00    +0.000 A 
ATOM      4  C   UNL     1       7.994   7.103  18.271  0.00  0.00    +0.000 A 
ATOM      5  C   UNL     1       7.748   6.002  19.100  0.00  0.00    +0.000 A 
ATOM      6  C   UNL     1       7.027   4.893  18.627  0.00  0.00    +0.000 A 
ENDROOT
BRANCH   4   7
ATOM      7  N   UNL     1       8.708   8.202  18.802  0.00  0.00    +0.000 N 
ATOM      8  C   UNL     1       8.556   9.527  18.410  0.00  0.00    +0.000 C 
ATOM      9  O   UNL     1       7.768   9.952  17.576  0.00  0.00    +0.000 OA
ATOM     10  H   UNL     1       9.410   7.986  19.491  0.00  0.00    +0.000 HD
BRANCH   8  11
ATOM     11  C   UNL     1       9.476  10.523  19.028  0.00  0.00    +0.000 A 
ATOM     12  C   UNL     1       9.270  10.822  20.382  0.00  0.00    +0.000 A 
ATOM     13  C   UNL     1      10.068  11.762  21.030  0.00  0.00    +0.000 A 
ATOM     14  C   UNL     1      11.088  12.399  20.328  0.00  0.00    +0.000 A 
ATOM     15  C   UNL     1      11.323  12.081  18.990  0.00  0.00    +0.000 A 
ATOM     16  C   UNL     1      10.525  11.137  18.335  0.00  0.00    +0.000 A 
ENDBRANCH   8  11
ENDBRANCH   4   7
BRANCH   1  17
ATOM     17  O   UNL     1       5.791   3.889  16.756  0.00  0.00    +0.000 OA
BRANCH  17  18
ATOM     18  C   UNL     1       4.385   4.055  16.858  0.00  0.00    +0.000 C 
BRANCH  18  19
ATOM     19  C   UNL     1       3.795   3.001  17.782  0.00  0.00    +0.000 C 
ATOM     20  O   UNL     1       3.803   1.810  17.467  0.00  0.00    +0.000 OA
BRANCH  19  25
ATOM     21  C   UNL     1       2.007   5.042  20.464  0.00  0.00    +0.000 A 
ATOM     22  C   UNL     1       1.977   4.111  21.504  0.00  0.00    +0.000 A 
ATOM     23  C   UNL     1       2.520   2.839  21.334  0.00  0.00    +0.000 A 
ATOM     24  C   UNL     1       3.106   2.492  20.121  0.00  0.00    +0.000 A 
ATOM     25  C   UNL     1       3.144   3.415  19.066  0.00  0.00    +0.000 A 
ATOM     26  C   UNL     1       2.574   4.683  19.239  0.00  0.00    +0.000 A 
BRANCH  21  28
ATOM     27  C   UNL     1       2.078   7.406  20.177  0.00  0.00    +0.000 C 
ATOM     28  O   UNL     1       1.464   6.263  20.763  0.00  0.00    +0.000 OA
ENDBRANCH  21  28
ENDBRANCH  19  25
ENDBRANCH  18  19
ENDBRANCH  17  18
ENDBRANCH   1  17
TORSDOF 7
ENDMDL
MODEL 2
REMARK VINA RESULT:      -8.2      1.294      2.297
REMARK  Name = 
REMARK  8 active torsions:
REMARK  status: ('A' for Active; 'I' for Inactive)
REMARK    1  A    between atoms: C_1  and  O_2
REMARK    2  A    between atoms: O_2  and  C_3
REMARK    3  A    between atoms: C_7  and  C_8
REMARK    4  A    between atoms: C_8  and  C_10
REMARK    5  A    between atoms: C_10  and  O_11
REMARK    6  A    between atoms: O_11  and  C_12
REMARK    7  A    between atoms: C_15  and  N_16
REMARK    8  A    between atoms: C_17  and  C_19
REMARK                            x       y       z     vdW  Elec       q    Type
REMARK                         _______ _______ _______ _____ _____    ______ ____
ROOT
ATOM      1  C   UNL     1       6.381   5.078  17.600  0.00  0.00    +0.000 A 
ATOM      2  C   UNL     1       6.919   5.100  18.883  0.00  0.00    +0.000 A 
ATOM      3  C   UNL     1       7.710   6.170  19.300  0.00  0.00    +0.000 A 
ATOM      4  C   UNL     1       8.008   7.226  18.436  0.00  0.00    +0.000 A 
ATOM      5  C   UNL     1       7.460   7.203  17.147  0.00  0.00    +0.000 A 
ATOM      6  C   UNL     1       6.652   6.133  16.729  0.00  0.00    +0.000 A 
ENDROOT
BRANCH   4   7
ATOM      7  N   UNL     1       8.830   8.317  18.799  0.00  0.00    +0.000 N 
ATOM      8  C   UNL     1       8.619   9.642  18.432  0.00  0.00    +0.000 C 
ATOM      9  O   UNL     1       7.682  10.073  17.774  0.00  0.00    +0.000 OA
ATOM     10  H   UNL     1       9.655   8.096  19.332  0.00  0.00    +0.000 HD
BRANCH   8  11
ATOM     11  C   UNL     1       9.659  10.628  18.840  0.00  0.00    +0.000 A 
ATOM     12  C   UNL     1       9.731  10.949  20.202  0.00  0.00    +0.000 A 
ATOM     13  C   UNL     1      10.656  11.883  20.663  0.00  0.00    +0.000 A 
ATOM     14  C   UNL     1      11.527  12.491  19.763  0.00  0.00    +0.000 A 
ATOM     15  C   UNL     1      11.486  12.150  18.410  0.00  0.00    +0.000 A 
ATOM     16  C   UNL     1      10.559  11.213  17.943  0.00  0.00    +0.000 A 
ENDBRANCH   8  11
ENDBRANCH   4   7
BRANCH   1  17
ATOM     17  O   UNL     1       5.661   3.958  17.300  0.00  0.00    +0.000 OA
BRANCH  17  18
ATOM     18  C   UNL     1       4.316   4.177  16.899  0.00  0.00    +0.000 C 
BRANCH  18  19
ATOM     19  C   UNL     1       3.428   4.374  18.118  0.00  0.00    +0.000 C 
ATOM     20  O   UNL     1       3.054   3.410  18.789  0.00  0.00    +0.000 OA
BRANCH  19  25
ATOM     21  C   UNL     1       1.933   7.325  20.017  0.00  0.00    +0.000 A 
ATOM     22  C   UNL     1       2.065   8.329  19.058  0.00  0.00    +0.000 A 
ATOM     23  C   UNL     1       2.638   8.055  17.817  0.00  0.00    +0.000 A 
ATOM     24  C   UNL     1       3.077   6.767  17.526  0.00  0.00    +0.000 A 
ATOM     25  C   UNL     1       2.953   5.747  18.479  0.00  0.00    +0.000 A 
ATOM     26  C   UNL     1       2.397   6.039  19.732  0.00  0.00    +0.000 A 
BRANCH  21  28
ATOM     27  C   UNL     1       0.552   8.904  21.147  0.00  0.00    +0.000 C 
ATOM     28  O   UNL     1       1.332   7.714  21.185  0.00  0.00    +0.000 OA
ENDBRANCH  21  28
ENDBRANCH  19  25
ENDBRANCH  18  19
ENDBRANCH  17  18
ENDBRANCH   1  17
TORSDOF 7
ENDMDL
MODEL 3
REMARK VINA RESULT:      -8.2      1.012      1.534
REMARK  Name = 
REMARK  8 active torsions:
REMARK  status: ('A' for Active; 'I' for Inactive)
REMARK    1  A    between atoms: C_1  and  O_2
REMARK    2  A    between atoms: O_2  and  C_3
REMARK    3  A    between atoms: C_7  and  C_8
REMARK    4  A    between atoms: C_8  and  C_10
REMARK    5  A    between atoms: C_10  and  O_11
REMARK    6  A    between atoms: O_11  and  C_12
REMARK    7  A    between atoms: C_15  and  N_16
REMARK    8  A    between atoms: C_17  and  C_19
REMARK                            x       y       z     vdW  Elec       q    Type
REMARK                         _______ _______ _______ _____ _____    ______ ____
ROOT
ATOM      1  C   UNL     1       6.533   5.108  17.341  0.00  0.00    +0.000 A 
ATOM      2  C   UNL     1       7.457   4.916  18.364  0.00  0.00    +0.000 A 
ATOM      3  C   UNL     1       8.167   5.996  18.888  0.00  0.00    +0.000 A 
ATOM      4  C   UNL     1       7.994   7.287  18.382  0.00  0.00    +0.000 A 
ATOM      5  C   UNL     1       7.060   7.477  17.356  0.00  0.00    +0.000 A 
ATOM      6  C   UNL     1       6.334   6.393  16.836  0.00  0.00    +0.000 A 
ENDROOT
BRANCH   4   7
ATOM      7  N   UNL     1       8.712   8.408  18.856  0.00  0.00    +0.000 N 
ATOM      8  C   UNL     1       8.608   9.701  18.355  0.00  0.00    +0.000 C 
ATOM      9  O   UNL     1       7.864  10.075  17.458  0.00  0.00    +0.000 OA
ATOM     10  H   UNL     1       9.380   8.233  19.588  0.00  0.00    +0.000 HD
BRANCH   8  11
ATOM     11  C   UNL     1       9.526  10.724  18.932  0.00  0.00    +0.000 A 
ATOM     12  C   UNL     1       9.485  10.902  20.321  0.00  0.00    +0.000 A 
ATOM     13  C   UNL     1      10.290  11.856  20.939  0.00  0.00    +0.000 A 
ATOM     14  C   UNL     1      11.153  12.630  20.168  0.00  0.00    +0.000 A 
ATOM     15  C   UNL     1      11.227  12.435  18.788  0.00  0.00    +0.000 A 
ATOM     16  C   UNL     1      10.421  11.477  18.164  0.00  0.00    +0.000 A 
ENDBRANCH   8  11
ENDBRANCH   4   7
BRANCH   1  17
ATOM     17  O   UNL     1       5.936   3.969  16.887  0.00  0.00    +0.000 OA
BRANCH  17  18
ATOM     18  C   UNL     1       4.538   3.870  17.116  0.00  0.00    +0.000 C 
BRANCH  18  19
ATOM     19  C   UNL     1       4.257   3.714  18.602  0.00  0.00    +0.000 C 
ATOM     20  O   UNL     1       4.777   2.805  19.252  0.00  0.00    +0.000 OA
BRANCH  19  25
ATOM     21  C   UNL     1       2.308   6.831  19.622  0.00  0.00    +0.000 A 
ATOM     22  C   UNL     1       1.488   6.296  20.616  0.00  0.00    +0.000 A 
ATOM     23  C   UNL     1       1.560   4.943  20.945  0.00  0.00    +0.000 A 
ATOM     24  C   UNL     1       2.463   4.117  20.282  0.00  0.00    +0.000 A 
ATOM     25  C   UNL     1       3.293   4.638  19.280  0.00  0.00    +0.000 A 
ATOM     26  C   UNL     1       3.195   5.994  18.942  0.00  0.00    +0.000 A 
BRANCH  21  28
ATOM     27  C   UNL     1       2.045   8.609  18.059  0.00  0.00    +0.000 C 
ATOM     28  O   UNL     1       2.160   8.176  19.409  0.00  0.00    +0.000 OA
ENDBRANCH  21  28
ENDBRANCH  19  25
ENDBRANCH  18  19
ENDBRANCH  17  18
ENDBRANCH   1  17
TORSDOF 7
ENDMDL
MODEL 4
REMARK VINA RESULT:      -8.2      0.968      1.384
REMARK  Name = 
REMARK  8 active torsions:
REMARK  status: ('A' for Active; 'I' for Inactive)
REMARK    1  A    between atoms: C_1  and  O_2
REMARK    2  A    between atoms: O_2  and  C_3
REMARK    3  A    between atoms: C_7  and  C_8
REMARK    4  A    between atoms: C_8  and  C_10
REMARK    5  A    between atoms: C_10  and  O_11
REMARK    6  A    between atoms: O_11  and  C_12
REMARK    7  A    between atoms: C_15  and  N_16
REMARK    8  A    between atoms: C_17  and  C_19
REMARK                            x       y       z     vdW  Elec       q    Type
REMARK                         _______ _______ _______ _____ _____    ______ ____
ROOT
ATOM      1  C   UNL     1       6.051   5.047  17.043  0.00  0.00    +0.000 A 
ATOM      2  C   UNL     1       7.061   4.736  17.946  0.00  0.00    +0.000 A 
ATOM      3  C   UNL     1       7.858   5.743  18.491  0.00  0.00    +0.000 A 
ATOM      4  C   UNL     1       7.683   7.079  18.123  0.00  0.00    +0.000 A 
ATOM      5  C   UNL     1       6.661   7.388  17.217  0.00  0.00    +0.000 A 
ATOM      6  C   UNL     1       5.849   6.377  16.677  0.00  0.00    +0.000 A 
ENDROOT
BRANCH   4   7
ATOM      7  N   UNL     1       8.484   8.132  18.621  0.00  0.00    +0.000 N 
ATOM      8  C   UNL     1       8.390   9.465  18.238  0.00  0.00    +0.000 C 
ATOM      9  O   UNL     1       7.588   9.938  17.444  0.00  0.00    +0.000 OA
ATOM     10  H   UNL     1       9.204   7.873  19.275  0.00  0.00    +0.000 HD
BRANCH   8  11
ATOM     11  C   UNL     1       9.394  10.404  18.813  0.00  0.00    +0.000 A 
ATOM     12  C   UNL     1       9.314  10.654  20.190  0.00  0.00    +0.000 A 
ATOM     13  C   UNL     1      10.197  11.540  20.803  0.00  0.00    +0.000 A 
ATOM     14  C   UNL     1      11.177  12.171  20.042  0.00  0.00    +0.000 A 
ATOM     15  C   UNL     1      11.287  11.901  18.677  0.00  0.00    +0.000 A 
ATOM     16  C   UNL     1      10.403  11.011  18.057  0.00  0.00    +0.000 A 
ENDBRANCH   8  11
ENDBRANCH   4   7
BRANCH   1  17
ATOM     17  O   UNL     1       5.371   3.971  16.550  0.00  0.00    +0.000 OA
BRANCH  17  18
ATOM     18  C   UNL     1       4.673   3.188  17.508  0.00  0.00    +0.000 C 
BRANCH  18  19
ATOM     19  C   UNL     1       3.199   3.563  17.521  0.00  0.00    +0.000 C 
ATOM     20  O   UNL     1       2.457   3.239  16.592  0.00  0.00    +0.000 OA
BRANCH  19  25
ATOM     21  C   UNL     1       2.150   6.514  19.699  0.00  0.00    +0.000 A 
ATOM     22  C   UNL     1       1.629   5.836  20.801  0.00  0.00    +0.000 A 
ATOM     23  C   UNL     1       1.610   4.442  20.833  0.00  0.00    +0.000 A 
ATOM     24  C   UNL     1       2.122   3.718  19.761  0.00  0.00    +0.000 A 
ATOM     25  C   UNL     1       2.649   4.384  18.646  0.00  0.00    +0.000 A 
ATOM     26  C   UNL     1       2.641   5.785  18.614  0.00  0.00    +0.000 A 
BRANCH  21  28
ATOM     27  C   UNL     1       1.340   8.445  20.836  0.00  0.00    +0.000 C 
ATOM     28  O   UNL     1       2.135   7.880  19.798  0.00  0.00    +0.000 OA
ENDBRANCH  21  28
ENDBRANCH  19  25
ENDBRANCH  18  19
ENDBRANCH  17  18
ENDBRANCH   1  17
TORSDOF 7
ENDMDL
MODEL 5
REMARK VINA RESULT:      -8.1      1.340      2.147
REMARK  Name = 
REMARK  8 active torsions:
REMARK  status: ('A' for Active; 'I' for Inactive)
REMARK    1  A    between atoms: C_1  and  O_2
REMARK    2  A    between atoms: O_2  and  C_3
REMARK    3  A    between atoms: C_7  and  C_8
REMARK    4  A    between atoms: C_8  and  C_10
REMARK    5  A    between atoms: C_10  and  O_11
REMARK    6  A    between atoms: O_11  and  C_12
REMARK    7  A    between atoms: C_15  and  N_16
REMARK    8  A    between atoms: C_17  and  C_19
REMARK                            x       y       z     vdW  Elec       q    Type
REMARK                         _______ _______ _______ _____ _____    ______ ____
ROOT
ATOM      1  C   UNL     1       6.362   5.062  17.633  0.00  0.00    +0.000 A 
ATOM      2  C   UNL     1       6.519   6.143  16.772  0.00  0.00    +0.000 A 
ATOM      3  C   UNL     1       7.334   7.217  17.127  0.00  0.00    +0.000 A 
ATOM      4  C   UNL     1       7.986   7.251  18.362  0.00  0.00    +0.000 A 
ATOM      5  C   UNL     1       7.829   6.158  19.224  0.00  0.00    +0.000 A 
ATOM      6  C   UNL     1       7.019   5.069  18.863  0.00  0.00    +0.000 A 
ENDROOT
BRANCH   4   7
ATOM      7  N   UNL     1       8.797   8.330  18.782  0.00  0.00    +0.000 N 
ATOM      8  C   UNL     1       8.631   9.657  18.403  0.00  0.00    +0.000 C 
ATOM      9  O   UNL     1       7.747  10.101  17.682  0.00  0.00    +0.000 OA
ATOM     10  H   UNL     1       9.580   8.096  19.370  0.00  0.00    +0.000 HD
BRANCH   8  11
ATOM     11  C   UNL     1       9.654  10.628  18.881  0.00  0.00    +0.000 A 
ATOM     12  C   UNL     1       9.608  10.983  20.237  0.00  0.00    +0.000 A 
ATOM     13  C   UNL     1      10.511  11.906  20.760  0.00  0.00    +0.000 A 
ATOM     14  C   UNL     1      11.477  12.469  19.930  0.00  0.00    +0.000 A 
ATOM     15  C   UNL     1      11.553  12.094  18.588  0.00  0.00    +0.000 A 
ATOM     16  C   UNL     1      10.649  11.168  18.058  0.00  0.00    +0.000 A 
ENDBRANCH   8  11
ENDBRANCH   4   7
BRANCH   1  17
ATOM     17  O   UNL     1       5.506   4.095  17.189  0.00  0.00    +0.000 OA
BRANCH  17  18
ATOM     18  C   UNL     1       4.285   4.558  16.632  0.00  0.00    +0.000 C 
BRANCH  18  19
ATOM     19  C   UNL     1       3.394   5.134  17.720  0.00  0.00    +0.000 C 
ATOM     20  O   UNL     1       3.159   6.343  17.771  0.00  0.00    +0.000 OA
BRANCH  19  25
ATOM     21  C   UNL     1       3.100   2.680  20.626  0.00  0.00    +0.000 A 
ATOM     22  C   UNL     1       1.712   2.560  20.709  0.00  0.00    +0.000 A 
ATOM     23  C   UNL     1       0.885   3.270  19.841  0.00  0.00    +0.000 A 
ATOM     24  C   UNL     1       1.444   4.103  18.877  0.00  0.00    +0.000 A 
ATOM     25  C   UNL     1       2.836   4.236  18.781  0.00  0.00    +0.000 A 
ATOM     26  C   UNL     1       3.658   3.535  19.674  0.00  0.00    +0.000 A 
BRANCH  21  28
ATOM     27  C   UNL     1       5.050   1.387  21.076  0.00  0.00    +0.000 C 
ATOM     28  O   UNL     1       3.803   1.913  21.517  0.00  0.00    +0.000 OA
ENDBRANCH  21  28
ENDBRANCH  19  25
ENDBRANCH  18  19
ENDBRANCH  17  18
ENDBRANCH   1  17
TORSDOF 7
ENDMDL
MODEL 6
REMARK VINA RESULT:      -7.8      4.638      8.036
REMARK  Name = 
REMARK  8 active torsions:
REMARK  status: ('A' for Active; 'I' for Inactive)
REMARK    1  A    between atoms: C_1  and  O_2
REMARK    2  A    between atoms: O_2  and  C_3
REMARK    3  A    between atoms: C_7  and  C_8
REMARK    4  A    between atoms: C_8  and  C_10
REMARK    5  A    between atoms: C_10  and  O_11
REMARK    6  A    between atoms: O_11  and  C_12
REMARK    7  A    between atoms: C_15  and  N_16
REMARK    8  A    between atoms: C_17  and  C_19
REMARK                            x       y       z     vdW  Elec       q    Type
REMARK                         _______ _______ _______ _____ _____    ______ ____
ROOT
ATOM      1  C   UNL     1       4.029   5.125  17.594  0.00  0.00    +0.000 A 
ATOM      2  C   UNL     1       3.872   6.474  17.294  0.00  0.00    +0.000 A 
ATOM      3  C   UNL     1       3.148   7.309  18.145  0.00  0.00    +0.000 A 
ATOM      4  C   UNL     1       2.539   6.809  19.299  0.00  0.00    +0.000 A 
ATOM      5  C   UNL     1       2.703   5.451  19.600  0.00  0.00    +0.000 A 
ATOM      6  C   UNL     1       3.442   4.612  18.751  0.00  0.00    +0.000 A 
ENDROOT
BRANCH   4   7
ATOM      7  N   UNL     1       1.769   7.606  20.176  0.00  0.00    +0.000 N 
ATOM      8  C   UNL     1       1.159   8.811  19.845  0.00  0.00    +0.000 C 
ATOM      9  O   UNL     1       1.164   9.349  18.746  0.00  0.00    +0.000 OA
ATOM     10  H   UNL     1       1.700   7.283  21.127  0.00  0.00    +0.000 HD
BRANCH   8  11
ATOM     11  C   UNL     1       0.472   9.544  20.945  0.00  0.00    +0.000 A 
ATOM     12  C   UNL     1       0.039  10.848  20.666  0.00  0.00    +0.000 A 
ATOM     13  C   UNL     1      -0.587  11.613  21.647  0.00  0.00    +0.000 A 
ATOM     14  C   UNL     1      -0.797  11.071  22.912  0.00  0.00    +0.000 A 
ATOM     15  C   UNL     1      -0.401   9.761  23.188  0.00  0.00    +0.000 A 
ATOM     16  C   UNL     1       0.228   8.989  22.205  0.00  0.00    +0.000 A 
ENDBRANCH   8  11
ENDBRANCH   4   7
BRANCH   1  17
ATOM     17  O   UNL     1       4.721   4.407  16.662  0.00  0.00    +0.000 OA
BRANCH  17  18
ATOM     18  C   UNL     1       6.119   4.295  16.882  0.00  0.00    +0.000 C 
BRANCH  18  19
ATOM     19  C   UNL     1       6.879   5.165  15.893  0.00  0.00    +0.000 C 
ATOM     20  O   UNL     1       7.449   6.193  16.264  0.00  0.00    +0.000 OA
BRANCH  19  25
ATOM     21  C   UNL     1       6.101   3.504  12.548  0.00  0.00    +0.000 A 
ATOM     22  C   UNL     1       7.003   4.176  11.722  0.00  0.00    +0.000 A 
ATOM     23  C   UNL     1       7.845   5.159  12.241  0.00  0.00    +0.000 A 
ATOM     24  C   UNL     1       7.793   5.470  13.596  0.00  0.00    +0.000 A 
ATOM     25  C   UNL     1       6.892   4.805  14.439  0.00  0.00    +0.000 A 
ATOM     26  C   UNL     1       6.034   3.835  13.903  0.00  0.00    +0.000 A 
BRANCH  21  28
ATOM     27  C   UNL     1       6.045   1.436  11.366  0.00  0.00    +0.000 C 
ATOM     28  O   UNL     1       5.348   2.545  11.924  0.00  0.00    +0.000 OA
ENDBRANCH  21  28
ENDBRANCH  19  25
ENDBRANCH  18  19
ENDBRANCH  17  18
ENDBRANCH   1  17
TORSDOF 7
ENDMDL
MODEL 7
REMARK VINA RESULT:      -7.8      3.837      7.511
REMARK  Name = 
REMARK  8 active torsions:
REMARK  status: ('A' for Active; 'I' for Inactive)
REMARK    1  A    between atoms: C_1  and  O_2
REMARK    2  A    between atoms: O_2  and  C_3
REMARK    3  A    between atoms: C_7  and  C_8
REMARK    4  A    between atoms: C_8  and  C_10
REMARK    5  A    between atoms: C_10  and  O_11
REMARK    6  A    between atoms: O_11  and  C_12
REMARK    7  A    between atoms: C_15  and  N_16
REMARK    8  A    between atoms: C_17  and  C_19
REMARK                            x       y       z     vdW  Elec       q    Type
REMARK                         _______ _______ _______ _____ _____    ______ ____
ROOT
ATOM      1  C   UNL     1       2.387   6.099  18.848  0.00  0.00    +0.000 A 
ATOM      2  C   UNL     1       2.401   7.326  18.193  0.00  0.00    +0.000 A 
ATOM      3  C   UNL     1       1.987   8.484  18.850  0.00  0.00    +0.000 A 
ATOM      4  C   UNL     1       1.521   8.439  20.166  0.00  0.00    +0.000 A 
ATOM      5  C   UNL     1       1.513   7.202  20.824  0.00  0.00    +0.000 A 
ATOM      6  C   UNL     1       1.942   6.037  20.168  0.00  0.00    +0.000 A 
ENDROOT
BRANCH   4   7
ATOM      7  N   UNL     1       1.060   9.577  20.866  0.00  0.00    +0.000 N 
ATOM      8  C   UNL     1      -0.106  10.280  20.582  0.00  0.00    +0.000 C 
ATOM      9  O   UNL     1      -0.925  10.007  19.716  0.00  0.00    +0.000 OA
ATOM     10  H   UNL     1       1.658   9.922  21.599  0.00  0.00    +0.000 HD
BRANCH   8  11
ATOM     11  C   UNL     1      -0.361  11.512  21.379  0.00  0.00    +0.000 A 
ATOM     12  C   UNL     1       0.349  12.664  21.013  0.00  0.00    +0.000 A 
ATOM     13  C   UNL     1       0.191  13.851  21.724  0.00  0.00    +0.000 A 
ATOM     14  C   UNL     1      -0.693  13.897  22.798  0.00  0.00    +0.000 A 
ATOM     15  C   UNL     1      -1.431  12.765  23.147  0.00  0.00    +0.000 A 
ATOM     16  C   UNL     1      -1.276  11.570  22.436  0.00  0.00    +0.000 A 
ENDBRANCH   8  11
ENDBRANCH   4   7
BRANCH   1  17
ATOM     17  O   UNL     1       2.775   5.037  18.085  0.00  0.00    +0.000 OA
BRANCH  17  18
ATOM     18  C   UNL     1       3.167   3.873  18.797  0.00  0.00    +0.000 C 
BRANCH  18  19
ATOM     19  C   UNL     1       4.680   3.720  18.767  0.00  0.00    +0.000 C 
ATOM     20  O   UNL     1       5.282   3.206  19.711  0.00  0.00    +0.000 OA
BRANCH  19  25
ATOM     21  C   UNL     1       6.935   5.885  16.581  0.00  0.00    +0.000 A 
ATOM     22  C   UNL     1       6.857   5.187  15.376  0.00  0.00    +0.000 A 
ATOM     23  C   UNL     1       6.091   4.026  15.276  0.00  0.00    +0.000 A 
ATOM     24  C   UNL     1       5.390   3.562  16.386  0.00  0.00    +0.000 A 
ATOM     25  C   UNL     1       5.459   4.251  17.604  0.00  0.00    +0.000 A 
ATOM     26  C   UNL     1       6.251   5.403  17.699  0.00  0.00    +0.000 A 
BRANCH  21  28
ATOM     27  C   UNL     1       7.826   7.757  17.756  0.00  0.00    +0.000 C 
ATOM     28  O   UNL     1       7.699   7.021  16.544  0.00  0.00    +0.000 OA
ENDBRANCH  21  28
ENDBRANCH  19  25
ENDBRANCH  18  19
ENDBRANCH  17  18
ENDBRANCH   1  17
TORSDOF 7
ENDMDL
MODEL 8
REMARK VINA RESULT:      -7.7      3.754      6.978
REMARK  Name = 
REMARK  8 active torsions:
REMARK  status: ('A' for Active; 'I' for Inactive)
REMARK    1  A    between atoms: C_1  and  O_2
REMARK    2  A    between atoms: O_2  and  C_3
REMARK    3  A    between atoms: C_7  and  C_8
REMARK    4  A    between atoms: C_8  and  C_10
REMARK    5  A    between atoms: C_10  and  O_11
REMARK    6  A    between atoms: O_11  and  C_12
REMARK    7  A    between atoms: C_15  and  N_16
REMARK    8  A    between atoms: C_17  and  C_19
REMARK                            x       y       z     vdW  Elec       q    Type
REMARK                         _______ _______ _______ _____ _____    ______ ____
ROOT
ATOM      1  C   UNL     1       2.213   5.514  19.382  0.00  0.00    +0.000 A 
ATOM      2  C   UNL     1       1.793   6.165  20.537  0.00  0.00    +0.000 A 
ATOM      3  C   UNL     1       1.623   7.550  20.546  0.00  0.00    +0.000 A 
ATOM      4  C   UNL     1       1.896   8.317  19.412  0.00  0.00    +0.000 A 
ATOM      5  C   UNL     1       2.313   7.657  18.249  0.00  0.00    +0.000 A 
ATOM      6  C   UNL     1       2.473   6.261  18.234  0.00  0.00    +0.000 A 
ENDROOT
BRANCH   4   7
ATOM      7  N   UNL     1       1.770   9.725  19.379  0.00  0.00    +0.000 N 
ATOM      8  C   UNL     1       0.620  10.422  19.025  0.00  0.00    +0.000 C 
ATOM      9  O   UNL     1      -0.461   9.934  18.723  0.00  0.00    +0.000 OA
ATOM     10  H   UNL     1       2.601  10.252  19.591  0.00  0.00    +0.000 HD
BRANCH   8  11
ATOM     11  C   UNL     1       0.725  11.907  18.961  0.00  0.00    +0.000 A 
ATOM     12  C   UNL     1      -0.436  12.611  18.614  0.00  0.00    +0.000 A 
ATOM     13  C   UNL     1      -0.418  14.000  18.504  0.00  0.00    +0.000 A 
ATOM     14  C   UNL     1       0.762  14.694  18.756  0.00  0.00    +0.000 A 
ATOM     15  C   UNL     1       1.914  14.004  19.137  0.00  0.00    +0.000 A 
ATOM     16  C   UNL     1       1.900  12.609  19.249  0.00  0.00    +0.000 A 
ENDBRANCH   8  11
ENDBRANCH   4   7
BRANCH   1  17
ATOM     17  O   UNL     1       2.382   4.166  19.513  0.00  0.00    +0.000 OA
BRANCH  17  18
ATOM     18  C   UNL     1       3.171   3.541  18.512  0.00  0.00    +0.000 C 
BRANCH  18  19
ATOM     19  C   UNL     1       4.620   3.447  18.965  0.00  0.00    +0.000 C 
ATOM     20  O   UNL     1       4.960   2.635  19.828  0.00  0.00    +0.000 OA
BRANCH  19  25
ATOM     21  C   UNL     1       6.998   5.231  16.574  0.00  0.00    +0.000 A 
ATOM     22  C   UNL     1       7.571   6.161  17.443  0.00  0.00    +0.000 A 
ATOM     23  C   UNL     1       7.186   6.213  18.782  0.00  0.00    +0.000 A 
ATOM     24  C   UNL     1       6.226   5.327  19.261  0.00  0.00    +0.000 A 
ATOM     25  C   UNL     1       5.640   4.388  18.402  0.00  0.00    +0.000 A 
ATOM     26  C   UNL     1       6.018   4.359  17.053  0.00  0.00    +0.000 A 
BRANCH  21  28
ATOM     27  C   UNL     1       6.610   4.801  14.264  0.00  0.00    +0.000 C 
ATOM     28  O   UNL     1       7.478   5.263  15.292  0.00  0.00    +0.000 OA
ENDBRANCH  21  28
ENDBRANCH  19  25
ENDBRANCH  18  19
ENDBRANCH  17  18
ENDBRANCH   1  17
TORSDOF 7
ENDMDL
MODEL 9
REMARK VINA RESULT:      -7.6      4.162      7.530
REMARK  Name = 
REMARK  8 active torsions:
REMARK  status: ('A' for Active; 'I' for Inactive)
REMARK    1  A    between atoms: C_1  and  O_2
REMARK    2  A    between atoms: O_2  and  C_3
REMARK    3  A    between atoms: C_7  and  C_8
REMARK    4  A    between atoms: C_8  and  C_10
REMARK    5  A    between atoms: C_10  and  O_11
REMARK    6  A    between atoms: O_11  and  C_12
REMARK    7  A    between atoms: C_15  and  N_16
REMARK    8  A    between atoms: C_17  and  C_19
REMARK                            x       y       z     vdW  Elec       q    Type
REMARK                         _______ _______ _______ _____ _____    ______ ____
ROOT
ATOM      1  C   UNL     1       2.284   6.469  19.287  0.00  0.00    +0.000 A 
ATOM      2  C   UNL     1       2.378   7.354  18.218  0.00  0.00    +0.000 A 
ATOM      3  C   UNL     1       1.972   8.681  18.360  0.00  0.00    +0.000 A 
ATOM      4  C   UNL     1       1.434   9.145  19.563  0.00  0.00    +0.000 A 
ATOM      5  C   UNL     1       1.346   8.251  20.638  0.00  0.00    +0.000 A 
ATOM      6  C   UNL     1       1.767   6.919  20.501  0.00  0.00    +0.000 A 
ENDROOT
BRANCH   4   7
ATOM      7  N   UNL     1       0.979  10.470  19.749  0.00  0.00    +0.000 N 
ATOM      8  C   UNL     1      -0.257  10.961  19.342  0.00  0.00    +0.000 C 
ATOM      9  O   UNL     1      -1.148  10.324  18.797  0.00  0.00    +0.000 OA
ATOM     10  H   UNL     1       1.630  11.110  20.174  0.00  0.00    +0.000 HD
BRANCH   8  11
ATOM     11  C   UNL     1      -0.505  12.416  19.547  0.00  0.00    +0.000 A 
ATOM     12  C   UNL     1       0.013  13.290  18.581  0.00  0.00    +0.000 A 
ATOM     13  C   UNL     1      -0.149  14.668  18.711  0.00  0.00    +0.000 A 
ATOM     14  C   UNL     1      -0.845  15.178  19.803  0.00  0.00    +0.000 A 
ATOM     15  C   UNL     1      -1.395  14.313  20.751  0.00  0.00    +0.000 A 
ATOM     16  C   UNL     1      -1.235  12.929  20.624  0.00  0.00    +0.000 A 
ENDBRANCH   8  11
ENDBRANCH   4   7
BRANCH   1  17
ATOM     17  O   UNL     1       2.674   5.191  19.009  0.00  0.00    +0.000 OA
BRANCH  17  18
ATOM     18  C   UNL     1       3.556   4.594  19.948  0.00  0.00    +0.000 C 
BRANCH  18  19
ATOM     19  C   UNL     1       4.671   3.853  19.228  0.00  0.00    +0.000 C 
ATOM     20  O   UNL     1       5.156   2.825  19.703  0.00  0.00    +0.000 OA
BRANCH  19  25
ATOM     21  C   UNL     1       6.573   6.011  16.721  0.00  0.00    +0.000 A 
ATOM     22  C   UNL     1       6.204   5.387  15.528  0.00  0.00    +0.000 A 
ATOM     23  C   UNL     1       5.358   4.279  15.538  0.00  0.00    +0.000 A 
ATOM     24  C   UNL     1       4.869   3.792  16.746  0.00  0.00    +0.000 A 
ATOM     25  C   UNL     1       5.231   4.405  17.953  0.00  0.00    +0.000 A 
ATOM     26  C   UNL     1       6.100   5.504  17.933  0.00  0.00    +0.000 A 
BRANCH  21  28
ATOM     27  C   UNL     1       7.797   7.766  17.768  0.00  0.00    +0.000 C 
ATOM     28  O   UNL     1       7.387   7.102  16.577  0.00  0.00    +0.000 OA
ENDBRANCH  21  28
ENDBRANCH  19  25
ENDBRANCH  18  19
ENDBRANCH  17  18
ENDBRANCH   1  17
TORSDOF 7
ENDMDL
