MODEL 1
REMARK VINA RESULT:      -7.7      0.000      0.000
REMARK  Name = 
REMARK  9 active torsions:
REMARK  status: ('A' for Active; 'I' for Inactive)
REMARK    1  A    between atoms: C_1  and  O_2
REMARK    2  A    between atoms: O_2  and  C_3
REMARK    3  A    between atoms: C_7  and  N_8
REMARK    4  A    between atoms: C_12  and  S_13
REMARK    5  A    between atoms: S_13  and  C_14
REMARK    6  A    between atoms: C_14  and  C_15
REMARK    7  A    between atoms: N_17  and  C_18
REMARK    8  A    between atoms: C_23  and  O_24
REMARK    9  A    between atoms: O_24  and  C_25
REMARK                            x       y       z     vdW  Elec       q    Type
REMARK                         _______ _______ _______ _____ _____    ______ ____
ROOT
ATOM      1  S   UNL     1       3.677   2.779  20.717  0.00  0.00    +0.000 S 
ENDROOT
BRANCH   1   6
ATOM      2  N   UNL     1       3.371   3.371  18.016  0.00  0.00    +0.000 N 
ATOM      3  N   UNL     1       2.379   3.213  17.099  0.00  0.00    +0.000 NA
ATOM      4  N   UNL     1       1.562   2.287  17.584  0.00  0.00    +0.000 NA
ATOM      5  N   UNL     1       1.936   1.906  18.843  0.00  0.00    +0.000 NA
ATOM      6  C   UNL     1       3.003   2.617  19.130  0.00  0.00    +0.000 A 
BRANCH   2  11
ATOM      7  C   UNL     1       5.917   5.235  16.045  0.00  0.00    +0.000 A 
ATOM      8  C   UNL     1       6.892   5.453  17.019  0.00  0.00    +0.000 A 
ATOM      9  C   UNL     1       6.694   5.024  18.329  0.00  0.00    +0.000 A 
ATOM     10  C   UNL     1       5.520   4.359  18.677  0.00  0.00    +0.000 A 
ATOM     11  C   UNL     1       4.533   4.124  17.711  0.00  0.00    +0.000 A 
ATOM     12  C   UNL     1       4.736   4.571  16.390  0.00  0.00    +0.000 A 
BRANCH   7  14
ATOM     13  C   UNL     1       7.261   5.000  14.091  0.00  0.00    +0.000 C 
ATOM     14  O   UNL     1       6.250   5.700  14.802  0.00  0.00    +0.000 OA
ENDBRANCH   7  14
ENDBRANCH   2  11
ENDBRANCH   1   6
BRANCH   1  15
ATOM     15  C   UNL     1       2.350   3.637  21.598  0.00  0.00    +0.000 C 
BRANCH  15  16
ATOM     16  C   UNL     1       1.768   4.766  20.765  0.00  0.00    +0.000 C 
ATOM     17  O   UNL     1       0.630   4.713  20.305  0.00  0.00    +0.000 OA
ATOM     18  N   UNL     1       2.660   5.815  20.587  0.00  0.00    +0.000 N 
ATOM     19  H   UNL     1       3.625   5.514  20.478  0.00  0.00    +0.000 HD
BRANCH  18  20
ATOM     20  C   UNL     1       2.309   6.992  19.888  0.00  0.00    +0.000 A 
ATOM     21  C   UNL     1       2.692   7.033  18.538  0.00  0.00    +0.000 A 
ATOM     22  C   UNL     1       2.309   8.093  17.718  0.00  0.00    +0.000 A 
ATOM     23  C   UNL     1       1.572   9.147  18.247  0.00  0.00    +0.000 A 
ATOM     24  C   UNL     1       1.231   9.140  19.600  0.00  0.00    +0.000 A 
ATOM     25  C   UNL     1       1.603   8.078  20.437  0.00  0.00    +0.000 A 
BRANCH  25  26
ATOM     26  O   UNL     1       1.201   8.246  21.735  0.00  0.00    +0.000 OA
ATOM     27  C   UNL     1       0.407   9.391  22.015  0.00  0.00    +0.000 C 
ENDBRANCH  25  26
ENDBRANCH  18  20
ENDBRANCH  15  16
ENDBRANCH   1  15
TORSDOF 7
ENDMDL
MODEL 2
REMARK VINA RESULT:      -7.4      4.024      6.011
REMARK  Name = 
REMARK  9 active torsions:
REMARK  status: ('A' for Active; 'I' for Inactive)
REMARK    1  A    between atoms: C_1  and  O_2
REMARK    2  A    between atoms: O_2  and  C_3
REMARK    3  A    between atoms: C_7  and  N_8
REMARK    4  A    between atoms: C_12  and  S_13
REMARK    5  A    between atoms: S_13  and  C_14
REMARK    6  A    between atoms: C_14  and  C_15
REMARK    7  A    between atoms: N_17  and  C_18
REMARK    8  A    between atoms: C_23  and  O_24
REMARK    9  A    between atoms: O_24  and  C_25
REMARK                            x       y       z     vdW  Elec       q    Type
REMARK                         _______ _______ _______ _____ _____    ______ ____
ROOT
ATOM      1  S   UNL     1       5.913   3.789  15.723  0.00  0.00    +0.000 S 
ENDROOT
BRANCH   1   6
ATOM      2  N   UNL     1       7.021   4.309  13.225  0.00  0.00    +0.000 N 
ATOM      3  N   UNL     1       8.094   5.013  12.772  0.00  0.00    +0.000 NA
ATOM      4  N   UNL     1       8.427   5.857  13.739  0.00  0.00    +0.000 NA
ATOM      5  N   UNL     1       7.664   5.656  14.856  0.00  0.00    +0.000 NA
ATOM      6  C   UNL     1       6.851   4.667  14.562  0.00  0.00    +0.000 A 
BRANCH   2  11
ATOM      7  C   UNL     1       4.205   3.058  11.140  0.00  0.00    +0.000 A 
ATOM      8  C   UNL     1       4.684   1.797  10.786  0.00  0.00    +0.000 A 
ATOM      9  C   UNL     1       5.947   1.376  11.197  0.00  0.00    +0.000 A 
ATOM     10  C   UNL     1       6.741   2.210  11.982  0.00  0.00    +0.000 A 
ATOM     11  C   UNL     1       6.273   3.477  12.354  0.00  0.00    +0.000 A 
ATOM     12  C   UNL     1       5.000   3.901  11.924  0.00  0.00    +0.000 A 
BRANCH   7  14
ATOM     13  C   UNL     1       2.837   4.256   9.600  0.00  0.00    +0.000 C 
ATOM     14  O   UNL     1       2.949   3.334  10.675  0.00  0.00    +0.000 OA
ENDBRANCH   7  14
ENDBRANCH   2  11
ENDBRANCH   1   6
BRANCH   1  15
ATOM     15  C   UNL     1       6.681   4.295  17.281  0.00  0.00    +0.000 C 
BRANCH  15  16
ATOM     16  C   UNL     1       5.648   4.470  18.380  0.00  0.00    +0.000 C 
ATOM     17  O   UNL     1       5.750   5.347  19.234  0.00  0.00    +0.000 OA
ATOM     18  N   UNL     1       4.623   3.536  18.304  0.00  0.00    +0.000 N 
ATOM     19  H   UNL     1       4.934   2.615  18.005  0.00  0.00    +0.000 HD
BRANCH  18  20
ATOM     20  C   UNL     1       3.527   3.546  19.197  0.00  0.00    +0.000 A 
ATOM     21  C   UNL     1       3.604   2.634  20.262  0.00  0.00    +0.000 A 
ATOM     22  C   UNL     1       2.636   2.625  21.266  0.00  0.00    +0.000 A 
ATOM     23  C   UNL     1       1.557   3.500  21.196  0.00  0.00    +0.000 A 
ATOM     24  C   UNL     1       1.445   4.374  20.113  0.00  0.00    +0.000 A 
ATOM     25  C   UNL     1       2.414   4.400  19.099  0.00  0.00    +0.000 A 
BRANCH  25  26
ATOM     26  O   UNL     1       2.134   5.303  18.109  0.00  0.00    +0.000 OA
ATOM     27  C   UNL     1       2.563   6.641  18.324  0.00  0.00    +0.000 C 
ENDBRANCH  25  26
ENDBRANCH  18  20
ENDBRANCH  15  16
ENDBRANCH   1  15
TORSDOF 7
ENDMDL
MODEL 3
REMARK VINA RESULT:      -7.3      4.101      5.852
REMARK  Name = 
REMARK  9 active torsions:
REMARK  status: ('A' for Active; 'I' for Inactive)
REMARK    1  A    between atoms: C_1  and  O_2
REMARK    2  A    between atoms: O_2  and  C_3
REMARK    3  A    between atoms: C_7  and  N_8
REMARK    4  A    between atoms: C_12  and  S_13
REMARK    5  A    between atoms: S_13  and  C_14
REMARK    6  A    between atoms: C_14  and  C_15
REMARK    7  A    between atoms: N_17  and  C_18
REMARK    8  A    between atoms: C_23  and  O_24
REMARK    9  A    between atoms: O_24  and  C_25
REMARK                            x       y       z     vdW  Elec       q    Type
REMARK                         _______ _______ _______ _____ _____    ______ ____
ROOT
ATOM      1  S   UNL     1       6.132   3.643  15.682  0.00  0.00    +0.000 S 
ENDROOT
BRANCH   1   6
ATOM      2  N   UNL     1       7.060   4.299  13.142  0.00  0.00    +0.000 N 
ATOM      3  N   UNL     1       8.064   5.075  12.652  0.00  0.00    +0.000 NA
ATOM      4  N   UNL     1       8.408   5.907  13.626  0.00  0.00    +0.000 NA
ATOM      5  N   UNL     1       7.725   5.631  14.778  0.00  0.00    +0.000 NA
ATOM      6  C   UNL     1       6.950   4.607  14.498  0.00  0.00    +0.000 A 
BRANCH   2  11
ATOM      7  C   UNL     1       4.231   3.008  11.101  0.00  0.00    +0.000 A 
ATOM      8  C   UNL     1       4.713   1.745  10.757  0.00  0.00    +0.000 A 
ATOM      9  C   UNL     1       5.981   1.335  11.162  0.00  0.00    +0.000 A 
ATOM     10  C   UNL     1       6.779   2.184  11.929  0.00  0.00    +0.000 A 
ATOM     11  C   UNL     1       6.308   3.453  12.289  0.00  0.00    +0.000 A 
ATOM     12  C   UNL     1       5.028   3.864  11.866  0.00  0.00    +0.000 A 
BRANCH   7  14
ATOM     13  C   UNL     1       2.835   4.238   9.611  0.00  0.00    +0.000 C 
ATOM     14  O   UNL     1       2.969   3.272  10.644  0.00  0.00    +0.000 OA
ENDBRANCH   7  14
ENDBRANCH   2  11
ENDBRANCH   1   6
BRANCH   1  15
ATOM     15  C   UNL     1       6.178   4.721  17.135  0.00  0.00    +0.000 C 
BRANCH  15  16
ATOM     16  C   UNL     1       5.162   4.291  18.179  0.00  0.00    +0.000 C 
ATOM     17  O   UNL     1       5.503   3.854  19.275  0.00  0.00    +0.000 OA
ATOM     18  N   UNL     1       3.852   4.438  17.743  0.00  0.00    +0.000 N 
ATOM     19  H   UNL     1       3.725   4.226  16.757  0.00  0.00    +0.000 HD
BRANCH  18  20
ATOM     20  C   UNL     1       2.745   4.147  18.573  0.00  0.00    +0.000 A 
ATOM     21  C   UNL     1       2.033   2.981  18.247  0.00  0.00    +0.000 A 
ATOM     22  C   UNL     1       0.989   2.533  19.056  0.00  0.00    +0.000 A 
ATOM     23  C   UNL     1       0.616   3.267  20.177  0.00  0.00    +0.000 A 
ATOM     24  C   UNL     1       1.284   4.454  20.479  0.00  0.00    +0.000 A 
ATOM     25  C   UNL     1       2.341   4.915  19.680  0.00  0.00    +0.000 A 
BRANCH  25  26
ATOM     26  O   UNL     1       2.867   6.103  20.112  0.00  0.00    +0.000 OA
ATOM     27  C   UNL     1       2.194   7.287  19.705  0.00  0.00    +0.000 C 
ENDBRANCH  25  26
ENDBRANCH  18  20
ENDBRANCH  15  16
ENDBRANCH   1  15
TORSDOF 7
ENDMDL
MODEL 4
REMARK VINA RESULT:      -7.3      5.500      7.250
REMARK  Name = 
REMARK  9 active torsions:
REMARK  status: ('A' for Active; 'I' for Inactive)
REMARK    1  A    between atoms: C_1  and  O_2
REMARK    2  A    between atoms: O_2  and  C_3
REMARK    3  A    between atoms: C_7  and  N_8
REMARK    4  A    between atoms: C_12  and  S_13
REMARK    5  A    between atoms: S_13  and  C_14
REMARK    6  A    between atoms: C_14  and  C_15
REMARK    7  A    between atoms: N_17  and  C_18
REMARK    8  A    between atoms: C_23  and  O_24
REMARK    9  A    between atoms: O_24  and  C_25
REMARK                            x       y       z     vdW  Elec       q    Type
REMARK                         _______ _______ _______ _____ _____    ______ ____
ROOT
ATOM      1  S   UNL     1       7.290   6.539  17.976  0.00  0.00    +0.000 S 
ENDROOT
BRANCH   1   6
ATOM      2  N   UNL     1       5.613   5.146  16.248  0.00  0.00    +0.000 N 
ATOM      3  N   UNL     1       5.773   4.486  15.069  0.00  0.00    +0.000 NA
ATOM      4  N   UNL     1       6.909   4.926  14.543  0.00  0.00    +0.000 NA
ATOM      5  N   UNL     1       7.550   5.783  15.394  0.00  0.00    +0.000 NA
ATOM      6  C   UNL     1       6.789   5.864  16.462  0.00  0.00    +0.000 A 
BRANCH   2  11
ATOM      7  C   UNL     1       2.468   3.768  17.681  0.00  0.00    +0.000 A 
ATOM      8  C   UNL     1       1.888   4.927  18.197  0.00  0.00    +0.000 A 
ATOM      9  C   UNL     1       2.548   6.150  18.110  0.00  0.00    +0.000 A 
ATOM     10  C   UNL     1       3.794   6.230  17.492  0.00  0.00    +0.000 A 
ATOM     11  C   UNL     1       4.389   5.078  16.961  0.00  0.00    +0.000 A 
ATOM     12  C   UNL     1       3.720   3.842  17.063  0.00  0.00    +0.000 A 
BRANCH   7  14
ATOM     13  C   UNL     1       1.736   1.991  19.091  0.00  0.00    +0.000 C 
ATOM     14  O   UNL     1       1.704   2.643  17.828  0.00  0.00    +0.000 OA
ENDBRANCH   7  14
ENDBRANCH   2  11
ENDBRANCH   1   6
BRANCH   1  15
ATOM     15  C   UNL     1       7.444   8.295  17.567  0.00  0.00    +0.000 C 
BRANCH  15  16
ATOM     16  C   UNL     1       8.536   8.963  18.385  0.00  0.00    +0.000 C 
ATOM     17  O   UNL     1       9.156   8.359  19.257  0.00  0.00    +0.000 OA
ATOM     18  N   UNL     1       8.723  10.295  18.040  0.00  0.00    +0.000 N 
ATOM     19  H   UNL     1       7.860  10.779  17.805  0.00  0.00    +0.000 HD
BRANCH  18  20
ATOM     20  C   UNL     1       9.724  11.094  18.638  0.00  0.00    +0.000 A 
ATOM     21  C   UNL     1      10.742  11.536  17.779  0.00  0.00    +0.000 A 
ATOM     22  C   UNL     1      11.725  12.417  18.229  0.00  0.00    +0.000 A 
ATOM     23  C   UNL     1      11.726  12.836  19.555  0.00  0.00    +0.000 A 
ATOM     24  C   UNL     1      10.748  12.361  20.430  0.00  0.00    +0.000 A 
ATOM     25  C   UNL     1       9.748  11.479  19.991  0.00  0.00    +0.000 A 
BRANCH  25  26
ATOM     26  O   UNL     1       8.886  11.103  20.986  0.00  0.00    +0.000 OA
ATOM     27  C   UNL     1       8.654  12.047  22.022  0.00  0.00    +0.000 C 
ENDBRANCH  25  26
ENDBRANCH  18  20
ENDBRANCH  15  16
ENDBRANCH   1  15
TORSDOF 7
ENDMDL
MODEL 5
REMARK VINA RESULT:      -7.3      3.013      5.367
REMARK  Name = 
REMARK  9 active torsions:
REMARK  status: ('A' for Active; 'I' for Inactive)
REMARK    1  A    between atoms: C_1  and  O_2
REMARK    2  A    between atoms: O_2  and  C_3
REMARK    3  A    between atoms: C_7  and  N_8
REMARK    4  A    between atoms: C_12  and  S_13
REMARK    5  A    between atoms: S_13  and  C_14
REMARK    6  A    between atoms: C_14  and  C_15
REMARK    7  A    between atoms: N_17  and  C_18
REMARK    8  A    between atoms: C_23  and  O_24
REMARK    9  A    between atoms: O_24  and  C_25
REMARK                            x       y       z     vdW  Elec       q    Type
REMARK                         _______ _______ _______ _____ _____    ______ ____
ROOT
ATOM      1  S   UNL     1       4.946   6.949  16.174  0.00  0.00    +0.000 S 
ENDROOT
BRANCH   1   6
ATOM      2  N   UNL     1       6.893   4.985  15.868  0.00  0.00    +0.000 N 
ATOM      3  N   UNL     1       7.626   4.212  16.714  0.00  0.00    +0.000 NA
ATOM      4  N   UNL     1       7.586   4.808  17.899  0.00  0.00    +0.000 NA
ATOM      5  N   UNL     1       6.762   5.899  17.877  0.00  0.00    +0.000 NA
ATOM      6  C   UNL     1       6.290   5.967  16.653  0.00  0.00    +0.000 A 
BRANCH   2  11
ATOM      7  C   UNL     1       6.176   3.431  12.565  0.00  0.00    +0.000 A 
ATOM      8  C   UNL     1       7.051   4.146  11.746  0.00  0.00    +0.000 A 
ATOM      9  C   UNL     1       7.844   5.163  12.272  0.00  0.00    +0.000 A 
ATOM     10  C   UNL     1       7.780   5.468  13.630  0.00  0.00    +0.000 A 
ATOM     11  C   UNL     1       6.913   4.757  14.469  0.00  0.00    +0.000 A 
ATOM     12  C   UNL     1       6.105   3.737  13.928  0.00  0.00    +0.000 A 
BRANCH   7  14
ATOM     13  C   UNL     1       6.207   1.414  11.297  0.00  0.00    +0.000 C 
ATOM     14  O   UNL     1       5.468   2.457  11.916  0.00  0.00    +0.000 OA
ENDBRANCH   7  14
ENDBRANCH   2  11
ENDBRANCH   1   6
BRANCH   1  15
ATOM     15  C   UNL     1       4.245   7.427  17.772  0.00  0.00    +0.000 C 
BRANCH  15  16
ATOM     16  C   UNL     1       3.216   6.418  18.251  0.00  0.00    +0.000 C 
ATOM     17  O   UNL     1       2.034   6.492  17.925  0.00  0.00    +0.000 OA
ATOM     18  N   UNL     1       3.762   5.451  19.084  0.00  0.00    +0.000 N 
ATOM     19  H   UNL     1       4.487   5.808  19.701  0.00  0.00    +0.000 HD
BRANCH  18  20
ATOM     20  C   UNL     1       2.994   4.384  19.604  0.00  0.00    +0.000 A 
ATOM     21  C   UNL     1       2.665   4.480  20.966  0.00  0.00    +0.000 A 
ATOM     22  C   UNL     1       1.823   3.545  21.565  0.00  0.00    +0.000 A 
ATOM     23  C   UNL     1       1.332   2.478  20.821  0.00  0.00    +0.000 A 
ATOM     24  C   UNL     1       1.695   2.345  19.480  0.00  0.00    +0.000 A 
ATOM     25  C   UNL     1       2.537   3.281  18.860  0.00  0.00    +0.000 A 
BRANCH  25  26
ATOM     26  O   UNL     1       2.802   2.985  17.551  0.00  0.00    +0.000 OA
ATOM     27  C   UNL     1       4.121   2.548  17.248  0.00  0.00    +0.000 C 
ENDBRANCH  25  26
ENDBRANCH  18  20
ENDBRANCH  15  16
ENDBRANCH   1  15
TORSDOF 7
ENDMDL
MODEL 6
REMARK VINA RESULT:      -7.3      1.051      1.707
REMARK  Name = 
REMARK  9 active torsions:
REMARK  status: ('A' for Active; 'I' for Inactive)
REMARK    1  A    between atoms: C_1  and  O_2
REMARK    2  A    between atoms: O_2  and  C_3
REMARK    3  A    between atoms: C_7  and  N_8
REMARK    4  A    between atoms: C_12  and  S_13
REMARK    5  A    between atoms: S_13  and  C_14
REMARK    6  A    between atoms: C_14  and  C_15
REMARK    7  A    between atoms: N_17  and  C_18
REMARK    8  A    between atoms: C_23  and  O_24
REMARK    9  A    between atoms: O_24  and  C_25
REMARK                            x       y       z     vdW  Elec       q    Type
REMARK                         _______ _______ _______ _____ _____    ______ ____
ROOT
ATOM      1  S   UNL     1       3.554   2.742  20.761  0.00  0.00    +0.000 S 
ENDROOT
BRANCH   1   6
ATOM      2  N   UNL     1       3.225   3.266  18.049  0.00  0.00    +0.000 N 
ATOM      3  N   UNL     1       2.225   3.082  17.144  0.00  0.00    +0.000 NA
ATOM      4  N   UNL     1       1.414   2.167  17.659  0.00  0.00    +0.000 NA
ATOM      5  N   UNL     1       1.800   1.819  18.924  0.00  0.00    +0.000 NA
ATOM      6  C   UNL     1       2.868   2.539  19.184  0.00  0.00    +0.000 A 
BRANCH   2  11
ATOM      7  C   UNL     1       6.267   5.370  18.446  0.00  0.00    +0.000 A 
ATOM      8  C   UNL     1       6.570   5.644  17.112  0.00  0.00    +0.000 A 
ATOM      9  C   UNL     1       5.800   5.103  16.084  0.00  0.00    +0.000 A 
ATOM     10  C   UNL     1       4.707   4.292  16.382  0.00  0.00    +0.000 A 
ATOM     11  C   UNL     1       4.383   4.013  17.715  0.00  0.00    +0.000 A 
ATOM     12  C   UNL     1       5.173   4.553  18.749  0.00  0.00    +0.000 A 
BRANCH   7  14
ATOM     13  C   UNL     1       8.426   5.473  19.448  0.00  0.00    +0.000 C 
ATOM     14  O   UNL     1       7.100   5.974  19.347  0.00  0.00    +0.000 OA
ENDBRANCH   7  14
ENDBRANCH   2  11
ENDBRANCH   1   6
BRANCH   1  15
ATOM     15  C   UNL     1       2.238   3.632  21.627  0.00  0.00    +0.000 C 
BRANCH  15  16
ATOM     16  C   UNL     1       1.683   4.765  20.782  0.00  0.00    +0.000 C 
ATOM     17  O   UNL     1       0.570   4.706  20.267  0.00  0.00    +0.000 OA
ATOM     18  N   UNL     1       2.570   5.827  20.662  0.00  0.00    +0.000 N 
ATOM     19  H   UNL     1       3.543   5.538  20.595  0.00  0.00    +0.000 HD
BRANCH  18  20
ATOM     20  C   UNL     1       2.239   7.009  19.962  0.00  0.00    +0.000 A 
ATOM     21  C   UNL     1       2.626   7.045  18.613  0.00  0.00    +0.000 A 
ATOM     22  C   UNL     1       2.260   8.112  17.792  0.00  0.00    +0.000 A 
ATOM     23  C   UNL     1       1.539   9.176  18.321  0.00  0.00    +0.000 A 
ATOM     24  C   UNL     1       1.195   9.175  19.673  0.00  0.00    +0.000 A 
ATOM     25  C   UNL     1       1.549   8.106  20.511  0.00  0.00    +0.000 A 
BRANCH  25  26
ATOM     26  O   UNL     1       1.148   8.280  21.808  0.00  0.00    +0.000 OA
ATOM     27  C   UNL     1       0.609   9.552  22.145  0.00  0.00    +0.000 C 
ENDBRANCH  25  26
ENDBRANCH  18  20
ENDBRANCH  15  16
ENDBRANCH   1  15
TORSDOF 7
ENDMDL
MODEL 7
REMARK VINA RESULT:      -7.3      2.460      3.430
REMARK  Name = 
REMARK  9 active torsions:
REMARK  status: ('A' for Active; 'I' for Inactive)
REMARK    1  A    between atoms: C_1  and  O_2
REMARK    2  A    between atoms: O_2  and  C_3
REMARK    3  A    between atoms: C_7  and  N_8
REMARK    4  A    between atoms: C_12  and  S_13
REMARK    5  A    between atoms: S_13  and  C_14
REMARK    6  A    between atoms: C_14  and  C_15
REMARK    7  A    between atoms: N_17  and  C_18
REMARK    8  A    between atoms: C_23  and  O_24
REMARK    9  A    between atoms: O_24  and  C_25
REMARK                            x       y       z     vdW  Elec       q    Type
REMARK                         _______ _______ _______ _____ _____    ______ ____
ROOT
ATOM      1  S   UNL     1       2.394   6.442  19.536  0.00  0.00    +0.000 S 
ENDROOT
BRANCH   1   6
ATOM      2  N   UNL     1       3.410   4.320  18.051  0.00  0.00    +0.000 N 
ATOM      3  N   UNL     1       2.871   3.273  17.369  0.00  0.00    +0.000 NA
ATOM      4  N   UNL     1       1.638   3.117  17.831  0.00  0.00    +0.000 NA
ATOM      5  N   UNL     1       1.317   4.099  18.727  0.00  0.00    +0.000 NA
ATOM      6  C   UNL     1       2.378   4.869  18.810  0.00  0.00    +0.000 A 
BRANCH   2  11
ATOM      7  C   UNL     1       6.814   4.738  16.609  0.00  0.00    +0.000 A 
ATOM      8  C   UNL     1       7.554   5.005  17.761  0.00  0.00    +0.000 A 
ATOM      9  C   UNL     1       6.928   5.088  19.003  0.00  0.00    +0.000 A 
ATOM     10  C   UNL     1       5.552   4.891  19.107  0.00  0.00    +0.000 A 
ATOM     11  C   UNL     1       4.794   4.614  17.962  0.00  0.00    +0.000 A 
ATOM     12  C   UNL     1       5.433   4.543  16.708  0.00  0.00    +0.000 A 
BRANCH   7  14
ATOM     13  C   UNL     1       6.874   4.823  14.228  0.00  0.00    +0.000 C 
ATOM     14  O   UNL     1       7.560   4.676  15.464  0.00  0.00    +0.000 OA
ENDBRANCH   7  14
ENDBRANCH   2  11
ENDBRANCH   1   6
BRANCH   1  15
ATOM     15  C   UNL     1       2.656   7.511  18.101  0.00  0.00    +0.000 C 
BRANCH  15  16
ATOM     16  C   UNL     1       1.959   8.850  18.269  0.00  0.00    +0.000 C 
ATOM     17  O   UNL     1       2.143   9.781  17.489  0.00  0.00    +0.000 OA
ATOM     18  N   UNL     1       1.132   8.886  19.384  0.00  0.00    +0.000 N 
ATOM     19  H   UNL     1       1.500   8.372  20.180  0.00  0.00    +0.000 HD
BRANCH  18  20
ATOM     20  C   UNL     1       0.346  10.017  19.702  0.00  0.00    +0.000 A 
ATOM     21  C   UNL     1       0.714  10.701  20.872  0.00  0.00    +0.000 A 
ATOM     22  C   UNL     1       0.083  11.892  21.232  0.00  0.00    +0.000 A 
ATOM     23  C   UNL     1      -0.952  12.391  20.449  0.00  0.00    +0.000 A 
ATOM     24  C   UNL     1      -1.360  11.690  19.313  0.00  0.00    +0.000 A 
ATOM     25  C   UNL     1      -0.731  10.495  18.934  0.00  0.00    +0.000 A 
BRANCH  25  26
ATOM     26  O   UNL     1      -1.271   9.934  17.808  0.00  0.00    +0.000 OA
ATOM     27  C   UNL     1      -2.684  10.005  17.673  0.00  0.00    +0.000 C 
ENDBRANCH  25  26
ENDBRANCH  18  20
ENDBRANCH  15  16
ENDBRANCH   1  15
TORSDOF 7
ENDMDL
MODEL 8
REMARK VINA RESULT:      -7.2      1.718      6.054
REMARK  Name = 
REMARK  9 active torsions:
REMARK  status: ('A' for Active; 'I' for Inactive)
REMARK    1  A    between atoms: C_1  and  O_2
REMARK    2  A    between atoms: O_2  and  C_3
REMARK    3  A    between atoms: C_7  and  N_8
REMARK    4  A    between atoms: C_12  and  S_13
REMARK    5  A    between atoms: S_13  and  C_14
REMARK    6  A    between atoms: C_14  and  C_15
REMARK    7  A    between atoms: N_17  and  C_18
REMARK    8  A    between atoms: C_23  and  O_24
REMARK    9  A    between atoms: O_24  and  C_25
REMARK                            x       y       z     vdW  Elec       q    Type
REMARK                         _______ _______ _______ _____ _____    ______ ____
ROOT
ATOM      1  S   UNL     1       0.826   3.073  18.566  0.00  0.00    +0.000 S 
ENDROOT
BRANCH   1   6
ATOM      2  N   UNL     1       1.909   4.597  20.626  0.00  0.00    +0.000 N 
ATOM      3  N   UNL     1       2.465   4.327  21.838  0.00  0.00    +0.000 NA
ATOM      4  N   UNL     1       2.072   3.104  22.169  0.00  0.00    +0.000 NA
ATOM      5  N   UNL     1       1.355   2.524  21.159  0.00  0.00    +0.000 NA
ATOM      6  C   UNL     1       1.312   3.414  20.193  0.00  0.00    +0.000 A 
BRANCH   2  11
ATOM      7  C   UNL     1       1.499   8.285  20.353  0.00  0.00    +0.000 A 
ATOM      8  C   UNL     1       1.818   8.483  19.009  0.00  0.00    +0.000 A 
ATOM      9  C   UNL     1       2.207   7.413  18.206  0.00  0.00    +0.000 A 
ATOM     10  C   UNL     1       2.268   6.126  18.738  0.00  0.00    +0.000 A 
ATOM     11  C   UNL     1       1.943   5.906  20.083  0.00  0.00    +0.000 A 
ATOM     12  C   UNL     1       1.562   6.996  20.892  0.00  0.00    +0.000 A 
BRANCH   7  14
ATOM     13  C   UNL     1      -0.119   9.400  21.701  0.00  0.00    +0.000 C 
ATOM     14  O   UNL     1       1.126   9.421  21.016  0.00  0.00    +0.000 OA
ENDBRANCH   7  14
ENDBRANCH   2  11
ENDBRANCH   1   6
BRANCH   1  15
ATOM     15  C   UNL     1       2.160   1.990  17.999  0.00  0.00    +0.000 C 
BRANCH  15  16
ATOM     16  C   UNL     1       3.525   2.567  18.333  0.00  0.00    +0.000 C 
ATOM     17  O   UNL     1       4.237   2.084  19.210  0.00  0.00    +0.000 OA
ATOM     18  N   UNL     1       3.842   3.674  17.557  0.00  0.00    +0.000 N 
ATOM     19  H   UNL     1       3.045   4.272  17.357  0.00  0.00    +0.000 HD
BRANCH  18  20
ATOM     20  C   UNL     1       5.086   4.337  17.664  0.00  0.00    +0.000 A 
ATOM     21  C   UNL     1       5.416   4.805  18.946  0.00  0.00    +0.000 A 
ATOM     22  C   UNL     1       6.661   5.379  19.199  0.00  0.00    +0.000 A 
ATOM     23  C   UNL     1       7.577   5.530  18.164  0.00  0.00    +0.000 A 
ATOM     24  C   UNL     1       7.238   5.116  16.875  0.00  0.00    +0.000 A 
ATOM     25  C   UNL     1       5.992   4.530  16.606  0.00  0.00    +0.000 A 
BRANCH  25  26
ATOM     26  O   UNL     1       5.824   4.202  15.288  0.00  0.00    +0.000 OA
ATOM     27  C   UNL     1       6.909   4.484  14.414  0.00  0.00    +0.000 C 
ENDBRANCH  25  26
ENDBRANCH  18  20
ENDBRANCH  15  16
ENDBRANCH   1  15
TORSDOF 7
ENDMDL
MODEL 9
REMARK VINA RESULT:      -7.1      5.875      7.689
REMARK  Name = 
REMARK  9 active torsions:
REMARK  status: ('A' for Active; 'I' for Inactive)
REMARK    1  A    between atoms: C_1  and  O_2
REMARK    2  A    between atoms: O_2  and  C_3
REMARK    3  A    between atoms: C_7  and  N_8
REMARK    4  A    between atoms: C_12  and  S_13
REMARK    5  A    between atoms: S_13  and  C_14
REMARK    6  A    between atoms: C_14  and  C_15
REMARK    7  A    between atoms: N_17  and  C_18
REMARK    8  A    between atoms: C_23  and  O_24
REMARK    9  A    between atoms: O_24  and  C_25
REMARK                            x       y       z     vdW  Elec       q    Type
REMARK                         _______ _______ _______ _____ _____    ______ ____
ROOT
ATOM      1  S   UNL     1       7.859   7.184  18.196  0.00  0.00    +0.000 S 
ENDROOT
BRANCH   1   6
ATOM      2  N   UNL     1       5.730   5.922  16.925  0.00  0.00    +0.000 N 
ATOM      3  N   UNL     1       5.601   5.076  15.867  0.00  0.00    +0.000 NA
ATOM      4  N   UNL     1       6.714   5.190  15.155  0.00  0.00    +0.000 NA
ATOM      5  N   UNL     1       7.615   6.014  15.772  0.00  0.00    +0.000 NA
ATOM      6  C   UNL     1       7.037   6.408  16.884  0.00  0.00    +0.000 A 
BRANCH   2  11
ATOM      7  C   UNL     1       3.174   5.547  19.602  0.00  0.00    +0.000 A 
ATOM      8  C   UNL     1       2.355   6.645  19.335  0.00  0.00    +0.000 A 
ATOM      9  C   UNL     1       2.666   7.528  18.304  0.00  0.00    +0.000 A 
ATOM     10  C   UNL     1       3.797   7.315  17.517  0.00  0.00    +0.000 A 
ATOM     11  C   UNL     1       4.626   6.213  17.765  0.00  0.00    +0.000 A 
ATOM     12  C   UNL     1       4.311   5.330  18.817  0.00  0.00    +0.000 A 
BRANCH   7  14
ATOM     13  C   UNL     1       1.356   4.454  20.687  0.00  0.00    +0.000 C 
ATOM     14  O   UNL     1       2.742   4.761  20.634  0.00  0.00    +0.000 OA
ENDBRANCH   7  14
ENDBRANCH   2  11
ENDBRANCH   1   6
BRANCH   1  15
ATOM     15  C   UNL     1       7.743   8.927  17.729  0.00  0.00    +0.000 C 
BRANCH  15  16
ATOM     16  C   UNL     1       8.760   9.773  18.476  0.00  0.00    +0.000 C 
ATOM     17  O   UNL     1       9.301   9.378  19.506  0.00  0.00    +0.000 OA
ATOM     18  N   UNL     1       8.978  11.004  17.873  0.00  0.00    +0.000 N 
ATOM     19  H   UNL     1       8.140  11.412  17.467  0.00  0.00    +0.000 HD
BRANCH  18  20
ATOM     20  C   UNL     1       9.924  11.929  18.370  0.00  0.00    +0.000 A 
ATOM     21  C   UNL     1      11.120  12.026  17.641  0.00  0.00    +0.000 A 
ATOM     22  C   UNL     1      12.083  12.979  17.972  0.00  0.00    +0.000 A 
ATOM     23  C   UNL     1      11.881  13.820  19.060  0.00  0.00    +0.000 A 
ATOM     24  C   UNL     1      10.719  13.696  19.823  0.00  0.00    +0.000 A 
ATOM     25  C   UNL     1       9.737  12.747  19.500  0.00  0.00    +0.000 A 
BRANCH  25  26
ATOM     26  O   UNL     1       8.675  12.753  20.364  0.00  0.00    +0.000 OA
ATOM     27  C   UNL     1       8.882  12.153  21.636  0.00  0.00    +0.000 C 
ENDBRANCH  25  26
ENDBRANCH  18  20
ENDBRANCH  15  16
ENDBRANCH   1  15
TORSDOF 7
ENDMDL
