MODEL 1
REMARK VINA RESULT:      -6.9      0.000      0.000
REMARK  Name = 
REMARK  4 active torsions:
REMARK  status: ('A' for Active; 'I' for Inactive)
REMARK    1  A    between atoms: C_2  and  C_13
REMARK    2  A    between atoms: N_3  and  N_4
REMARK    3  A    between atoms: C_5  and  C_6
REMARK    4  A    between atoms: C_11  and  O_12
REMARK                            x       y       z     vdW  Elec       q    Type
REMARK                         _______ _______ _______ _____ _____    ______ ____
ROOT
ATOM      1  O   UNL     1       5.623   5.921  16.336  0.00  0.00    +0.000 OA
ATOM      2  C   UNL     1       5.695   4.797  15.839  0.00  0.00    +0.000 C 
ATOM      3  N   UNL     1       5.171   3.654  16.427  0.00  0.00    +0.000 N 
ATOM      4  H   UNL     1       5.251   2.751  15.982  0.00  0.00    +0.000 HD
ENDROOT
BRANCH   2   5
ATOM      5  C   UNL     1       6.358   4.599  14.565  0.00  0.00    +0.000 A 
ATOM      6  C   UNL     1       6.165   3.706  13.520  0.00  0.00    +0.000 A 
ATOM      7  C   UNL     1       7.129   3.995  12.522  0.00  0.00    +0.000 A 
ATOM      8 CL   UNL     1       7.285   3.170  11.049  0.00  0.00    +0.000 Cl
ATOM      9  C   UNL     1       7.892   5.045  12.966  0.00  0.00    +0.000 A 
ATOM     10  N   UNL     1       7.419   5.407  14.198  0.00  0.00    +0.000 N 
ATOM     11  H   UNL     1       7.773   6.156  14.783  0.00  0.00    +0.000 HD
ENDBRANCH   2   5
BRANCH   3  12
ATOM     12  N   UNL     1       4.521   3.762  17.620  0.00  0.00    +0.000 NA
ATOM     13  C   UNL     1       3.644   2.851  17.901  0.00  0.00    +0.000 C 
BRANCH  13  14
ATOM     14  C   UNL     1       2.883   2.913  19.168  0.00  0.00    +0.000 A 
ATOM     15  C   UNL     1       1.546   3.333  19.148  0.00  0.00    +0.000 A 
ATOM     16  C   UNL     1       0.802   3.368  20.327  0.00  0.00    +0.000 A 
ATOM     17  C   UNL     1       1.391   2.987  21.531  0.00  0.00    +0.000 A 
ATOM     18  C   UNL     1       2.726   2.576  21.562  0.00  0.00    +0.000 A 
ATOM     19  C   UNL     1       3.470   2.539  20.380  0.00  0.00    +0.000 A 
BRANCH  19  20
ATOM     20  O   UNL     1       4.774   2.128  20.414  0.00  0.00    +0.000 OA
ATOM     21  H   UNL     1       5.345   2.878  20.171  0.00  0.00    +0.000 HD
ENDBRANCH  19  20
ENDBRANCH  13  14
ENDBRANCH   3  12
TORSDOF 4
ENDMDL
MODEL 2
REMARK VINA RESULT:      -6.7      6.603      8.720
REMARK  Name = 
REMARK  4 active torsions:
REMARK  status: ('A' for Active; 'I' for Inactive)
REMARK    1  A    between atoms: C_2  and  C_13
REMARK    2  A    between atoms: N_3  and  N_4
REMARK    3  A    between atoms: C_5  and  C_6
REMARK    4  A    between atoms: C_11  and  O_12
REMARK                            x       y       z     vdW  Elec       q    Type
REMARK                         _______ _______ _______ _____ _____    ______ ____
ROOT
ATOM      1  O   UNL     1       8.325   6.332  18.935  0.00  0.00    +0.000 OA
ATOM      2  C   UNL     1       7.573   6.915  18.154  0.00  0.00    +0.000 C 
ATOM      3  N   UNL     1       7.677   8.264  17.841  0.00  0.00    +0.000 N 
ATOM      4  H   UNL     1       7.039   8.702  17.192  0.00  0.00    +0.000 HD
ENDROOT
BRANCH   2   5
ATOM      5  C   UNL     1       6.499   6.199  17.496  0.00  0.00    +0.000 A 
ATOM      6  C   UNL     1       5.510   5.339  17.951  0.00  0.00    +0.000 A 
ATOM      7  C   UNL     1       4.732   4.945  16.833  0.00  0.00    +0.000 A 
ATOM      8 CL   UNL     1       3.400   3.899  16.891  0.00  0.00    +0.000 Cl
ATOM      9  C   UNL     1       5.254   5.559  15.722  0.00  0.00    +0.000 A 
ATOM     10  N   UNL     1       6.317   6.317  16.129  0.00  0.00    +0.000 N 
ATOM     11  H   UNL     1       6.907   6.893  15.540  0.00  0.00    +0.000 HD
ENDBRANCH   2   5
BRANCH   3  12
ATOM     12  N   UNL     1       8.671   9.002  18.410  0.00  0.00    +0.000 NA
ATOM     13  C   UNL     1       8.765  10.243  18.053  0.00  0.00    +0.000 C 
BRANCH  13  14
ATOM     14  C   UNL     1       9.833  11.101  18.613  0.00  0.00    +0.000 A 
ATOM     15  C   UNL     1      10.607  11.889  17.749  0.00  0.00    +0.000 A 
ATOM     16  C   UNL     1      11.596  12.729  18.260  0.00  0.00    +0.000 A 
ATOM     17  C   UNL     1      11.819  12.783  19.634  0.00  0.00    +0.000 A 
ATOM     18  C   UNL     1      11.059  11.994  20.502  0.00  0.00    +0.000 A 
ATOM     19  C   UNL     1      10.067  11.155  19.990  0.00  0.00    +0.000 A 
BRANCH  19  20
ATOM     20  O   UNL     1       9.320  10.391  20.843  0.00  0.00    +0.000 OA
ATOM     21  H   UNL     1       8.378  10.522  20.637  0.00  0.00    +0.000 HD
ENDBRANCH  19  20
ENDBRANCH  13  14
ENDBRANCH   3  12
TORSDOF 4
ENDMDL
MODEL 3
REMARK VINA RESULT:      -6.7      3.393      7.649
REMARK  Name = 
REMARK  4 active torsions:
REMARK  status: ('A' for Active; 'I' for Inactive)
REMARK    1  A    between atoms: C_2  and  C_13
REMARK    2  A    between atoms: N_3  and  N_4
REMARK    3  A    between atoms: C_5  and  C_6
REMARK    4  A    between atoms: C_11  and  O_12
REMARK                            x       y       z     vdW  Elec       q    Type
REMARK                         _______ _______ _______ _____ _____    ______ ____
ROOT
ATOM      1  O   UNL     1       4.257   5.860  17.660  0.00  0.00    +0.000 OA
ATOM      2  C   UNL     1       4.258   4.730  18.148  0.00  0.00    +0.000 C 
ATOM      3  N   UNL     1       5.023   3.677  17.664  0.00  0.00    +0.000 N 
ATOM      4  H   UNL     1       4.994   2.765  18.098  0.00  0.00    +0.000 HD
ENDROOT
BRANCH   2   5
ATOM      5  C   UNL     1       3.427   4.425  19.296  0.00  0.00    +0.000 A 
ATOM      6  C   UNL     1       2.929   3.242  19.823  0.00  0.00    +0.000 A 
ATOM      7  C   UNL     1       2.169   3.568  20.974  0.00  0.00    +0.000 A 
ATOM      8 CL   UNL     1       1.366   2.450  21.962  0.00  0.00    +0.000 Cl
ATOM      9  C   UNL     1       2.208   4.931  21.131  0.00  0.00    +0.000 A 
ATOM     10  N   UNL     1       2.971   5.441  20.116  0.00  0.00    +0.000 N 
ATOM     11  H   UNL     1       3.191   6.418  19.961  0.00  0.00    +0.000 HD
ENDBRANCH   2   5
BRANCH   3  12
ATOM     12  N   UNL     1       5.841   3.890  16.595  0.00  0.00    +0.000 NA
ATOM     13  C   UNL     1       5.282   3.970  15.429  0.00  0.00    +0.000 C 
BRANCH  13  14
ATOM     14  C   UNL     1       6.108   4.179  14.219  0.00  0.00    +0.000 A 
ATOM     15  C   UNL     1       5.814   3.460  13.052  0.00  0.00    +0.000 A 
ATOM     16  C   UNL     1       6.560   3.666  11.892  0.00  0.00    +0.000 A 
ATOM     17  C   UNL     1       7.605   4.589  11.893  0.00  0.00    +0.000 A 
ATOM     18  C   UNL     1       7.911   5.303  13.055  0.00  0.00    +0.000 A 
ATOM     19  C   UNL     1       7.162   5.097  14.216  0.00  0.00    +0.000 A 
BRANCH  19  20
ATOM     20  O   UNL     1       7.460   5.805  15.348  0.00  0.00    +0.000 OA
ATOM     21  H   UNL     1       6.724   5.711  15.978  0.00  0.00    +0.000 HD
ENDBRANCH  19  20
ENDBRANCH  13  14
ENDBRANCH   3  12
TORSDOF 4
ENDMDL
MODEL 4
REMARK VINA RESULT:      -6.7      1.141      1.271
REMARK  Name = 
REMARK  4 active torsions:
REMARK  status: ('A' for Active; 'I' for Inactive)
REMARK    1  A    between atoms: C_2  and  C_13
REMARK    2  A    between atoms: N_3  and  N_4
REMARK    3  A    between atoms: C_5  and  C_6
REMARK    4  A    between atoms: C_11  and  O_12
REMARK                            x       y       z     vdW  Elec       q    Type
REMARK                         _______ _______ _______ _____ _____    ______ ____
ROOT
ATOM      1  O   UNL     1       7.073   4.277  16.787  0.00  0.00    +0.000 OA
ATOM      2  C   UNL     1       6.206   4.149  15.923  0.00  0.00    +0.000 C 
ATOM      3  N   UNL     1       4.873   3.875  16.198  0.00  0.00    +0.000 N 
ATOM      4  H   UNL     1       4.193   3.781  15.457  0.00  0.00    +0.000 HD
ENDROOT
BRANCH   2   5
ATOM      5  C   UNL     1       6.542   4.281  14.520  0.00  0.00    +0.000 A 
ATOM      6  C   UNL     1       7.166   5.276  13.780  0.00  0.00    +0.000 A 
ATOM      7  C   UNL     1       7.221   4.841  12.432  0.00  0.00    +0.000 A 
ATOM      8 CL   UNL     1       7.901   5.718  11.151  0.00  0.00    +0.000 Cl
ATOM      9  C   UNL     1       6.633   3.602  12.365  0.00  0.00    +0.000 A 
ATOM     10  N   UNL     1       6.229   3.269  13.629  0.00  0.00    +0.000 N 
ATOM     11  H   UNL     1       5.765   2.412  13.907  0.00  0.00    +0.000 HD
ENDBRANCH   2   5
BRANCH   3  12
ATOM     12  N   UNL     1       4.476   3.751  17.496  0.00  0.00    +0.000 NA
ATOM     13  C   UNL     1       3.282   3.297  17.709  0.00  0.00    +0.000 C 
BRANCH  13  14
ATOM     14  C   UNL     1       2.774   3.154  19.092  0.00  0.00    +0.000 A 
ATOM     15  C   UNL     1       1.476   3.587  19.396  0.00  0.00    +0.000 A 
ATOM     16  C   UNL     1       0.967   3.431  20.685  0.00  0.00    +0.000 A 
ATOM     17  C   UNL     1       1.753   2.846  21.676  0.00  0.00    +0.000 A 
ATOM     18  C   UNL     1       3.052   2.421  21.384  0.00  0.00    +0.000 A 
ATOM     19  C   UNL     1       3.560   2.575  20.092  0.00  0.00    +0.000 A 
BRANCH  19  20
ATOM     20  O   UNL     1       4.828   2.149  19.808  0.00  0.00    +0.000 OA
ATOM     21  H   UNL     1       4.818   1.181  19.707  0.00  0.00    +0.000 HD
ENDBRANCH  19  20
ENDBRANCH  13  14
ENDBRANCH   3  12
TORSDOF 4
ENDMDL
MODEL 5
REMARK VINA RESULT:      -6.6      6.234      8.287
REMARK  Name = 
REMARK  4 active torsions:
REMARK  status: ('A' for Active; 'I' for Inactive)
REMARK    1  A    between atoms: C_2  and  C_13
REMARK    2  A    between atoms: N_3  and  N_4
REMARK    3  A    between atoms: C_5  and  C_6
REMARK    4  A    between atoms: C_11  and  O_12
REMARK                            x       y       z     vdW  Elec       q    Type
REMARK                         _______ _______ _______ _____ _____    ______ ____
ROOT
ATOM      1  O   UNL     1       7.742   6.055  19.218  0.00  0.00    +0.000 OA
ATOM      2  C   UNL     1       7.471   6.510  18.108  0.00  0.00    +0.000 C 
ATOM      3  N   UNL     1       7.815   7.788  17.690  0.00  0.00    +0.000 N 
ATOM      4  H   UNL     1       7.574   8.121  16.766  0.00  0.00    +0.000 HD
ENDROOT
BRANCH   2   5
ATOM      5  C   UNL     1       6.750   5.707  17.140  0.00  0.00    +0.000 A 
ATOM      6  C   UNL     1       6.950   5.429  15.796  0.00  0.00    +0.000 A 
ATOM      7  C   UNL     1       5.907   4.567  15.373  0.00  0.00    +0.000 A 
ATOM      8 CL   UNL     1       5.728   3.948  13.806  0.00  0.00    +0.000 Cl
ATOM      9  C   UNL     1       5.090   4.336  16.451  0.00  0.00    +0.000 A 
ATOM     10  N   UNL     1       5.606   5.024  17.516  0.00  0.00    +0.000 N 
ATOM     11  H   UNL     1       5.230   5.050  18.456  0.00  0.00    +0.000 HD
ENDBRANCH   2   5
BRANCH   3  12
ATOM     12  N   UNL     1       8.507   8.599  18.539  0.00  0.00    +0.000 NA
ATOM     13  C   UNL     1       8.767   9.800  18.129  0.00  0.00    +0.000 C 
BRANCH  13  14
ATOM     14  C   UNL     1       9.533  10.731  18.988  0.00  0.00    +0.000 A 
ATOM     15  C   UNL     1       9.189  10.860  20.341  0.00  0.00    +0.000 A 
ATOM     16  C   UNL     1       9.918  11.708  21.174  0.00  0.00    +0.000 A 
ATOM     17  C   UNL     1      10.991  12.433  20.659  0.00  0.00    +0.000 A 
ATOM     18  C   UNL     1      11.335  12.318  19.310  0.00  0.00    +0.000 A 
ATOM     19  C   UNL     1      10.605  11.467  18.476  0.00  0.00    +0.000 A 
BRANCH  19  20
ATOM     20  O   UNL     1      10.950  11.352  17.158  0.00  0.00    +0.000 OA
ATOM     21  H   UNL     1      10.407  11.970  16.637  0.00  0.00    +0.000 HD
ENDBRANCH  19  20
ENDBRANCH  13  14
ENDBRANCH   3  12
TORSDOF 4
ENDMDL
MODEL 6
REMARK VINA RESULT:      -6.6      1.164      1.622
REMARK  Name = 
REMARK  4 active torsions:
REMARK  status: ('A' for Active; 'I' for Inactive)
REMARK    1  A    between atoms: C_2  and  C_13
REMARK    2  A    between atoms: N_3  and  N_4
REMARK    3  A    between atoms: C_5  and  C_6
REMARK    4  A    between atoms: C_11  and  O_12
REMARK                            x       y       z     vdW  Elec       q    Type
REMARK                         _______ _______ _______ _____ _____    ______ ____
ROOT
ATOM      1  O   UNL     1       4.961   5.986  15.824  0.00  0.00    +0.000 OA
ATOM      2  C   UNL     1       5.408   4.862  15.599  0.00  0.00    +0.000 C 
ATOM      3  N   UNL     1       5.224   3.772  16.439  0.00  0.00    +0.000 N 
ATOM      4  H   UNL     1       5.607   2.865  16.212  0.00  0.00    +0.000 HD
ENDROOT
BRANCH   2   5
ATOM      5  C   UNL     1       6.180   4.606  14.399  0.00  0.00    +0.000 A 
ATOM      6  C   UNL     1       6.085   3.657  13.390  0.00  0.00    +0.000 A 
ATOM      7  C   UNL     1       7.129   3.906  12.464  0.00  0.00    +0.000 A 
ATOM      8 CL   UNL     1       7.418   3.008  11.057  0.00  0.00    +0.000 Cl
ATOM      9  C   UNL     1       7.843   4.987  12.916  0.00  0.00    +0.000 A 
ATOM     10  N   UNL     1       7.262   5.407  14.082  0.00  0.00    +0.000 N 
ATOM     11  H   UNL     1       7.558   6.189  14.655  0.00  0.00    +0.000 HD
ENDBRANCH   2   5
BRANCH   3  12
ATOM     12  N   UNL     1       4.497   3.931  17.580  0.00  0.00    +0.000 NA
ATOM     13  C   UNL     1       3.772   2.929  17.964  0.00  0.00    +0.000 C 
BRANCH  13  14
ATOM     14  C   UNL     1       2.939   3.035  19.183  0.00  0.00    +0.000 A 
ATOM     15  C   UNL     1       3.410   2.493  20.387  0.00  0.00    +0.000 A 
ATOM     16  C   UNL     1       2.655   2.610  21.553  0.00  0.00    +0.000 A 
ATOM     17  C   UNL     1       1.425   3.266  21.522  0.00  0.00    +0.000 A 
ATOM     18  C   UNL     1       0.944   3.800  20.324  0.00  0.00    +0.000 A 
ATOM     19  C   UNL     1       1.702   3.684  19.156  0.00  0.00    +0.000 A 
BRANCH  19  20
ATOM     20  O   UNL     1       1.230   4.216  17.988  0.00  0.00    +0.000 OA
ATOM     21  H   UNL     1       0.981   3.489  17.391  0.00  0.00    +0.000 HD
ENDBRANCH  19  20
ENDBRANCH  13  14
ENDBRANCH   3  12
TORSDOF 4
ENDMDL
MODEL 7
REMARK VINA RESULT:      -6.4      3.701      3.944
REMARK  Name = 
REMARK  4 active torsions:
REMARK  status: ('A' for Active; 'I' for Inactive)
REMARK    1  A    between atoms: C_2  and  C_13
REMARK    2  A    between atoms: N_3  and  N_4
REMARK    3  A    between atoms: C_5  and  C_6
REMARK    4  A    between atoms: C_11  and  O_12
REMARK                            x       y       z     vdW  Elec       q    Type
REMARK                         _______ _______ _______ _____ _____    ______ ____
ROOT
ATOM      1  O   UNL     1       4.705   4.589  17.403  0.00  0.00    +0.000 OA
ATOM      2  C   UNL     1       5.040   5.399  16.539  0.00  0.00    +0.000 C 
ATOM      3  N   UNL     1       4.792   6.762  16.617  0.00  0.00    +0.000 N 
ATOM      4  H   UNL     1       5.088   7.392  15.884  0.00  0.00    +0.000 HD
ENDROOT
BRANCH   2   5
ATOM      5  C   UNL     1       5.739   4.955  15.348  0.00  0.00    +0.000 A 
ATOM      6  C   UNL     1       5.400   4.099  14.310  0.00  0.00    +0.000 A 
ATOM      7  C   UNL     1       6.498   4.052  13.414  0.00  0.00    +0.000 A 
ATOM      8 CL   UNL     1       6.554   3.141  11.987  0.00  0.00    +0.000 Cl
ATOM      9  C   UNL     1       7.483   4.868  13.913  0.00  0.00    +0.000 A 
ATOM     10  N   UNL     1       7.016   5.413  15.079  0.00  0.00    +0.000 N 
ATOM     11  H   UNL     1       7.511   6.061  15.681  0.00  0.00    +0.000 HD
ENDBRANCH   2   5
BRANCH   3  12
ATOM     12  N   UNL     1       4.151   7.257  17.713  0.00  0.00    +0.000 NA
ATOM     13  C   UNL     1       2.892   7.532  17.589  0.00  0.00    +0.000 C 
BRANCH  13  14
ATOM     14  C   UNL     1       2.135   8.093  18.731  0.00  0.00    +0.000 A 
ATOM     15  C   UNL     1       1.440   9.299  18.570  0.00  0.00    +0.000 A 
ATOM     16  C   UNL     1       0.694   9.827  19.623  0.00  0.00    +0.000 A 
ATOM     17  C   UNL     1       0.642   9.154  20.842  0.00  0.00    +0.000 A 
ATOM     18  C   UNL     1       1.339   7.956  21.014  0.00  0.00    +0.000 A 
ATOM     19  C   UNL     1       2.084   7.426  19.958  0.00  0.00    +0.000 A 
BRANCH  19  20
ATOM     20  O   UNL     1       2.758   6.249  20.128  0.00  0.00    +0.000 OA
ATOM     21  H   UNL     1       2.144   5.587  20.493  0.00  0.00    +0.000 HD
ENDBRANCH  19  20
ENDBRANCH  13  14
ENDBRANCH   3  12
TORSDOF 4
ENDMDL
MODEL 8
REMARK VINA RESULT:      -6.4      6.122      7.409
REMARK  Name = 
REMARK  4 active torsions:
REMARK  status: ('A' for Active; 'I' for Inactive)
REMARK    1  A    between atoms: C_2  and  C_13
REMARK    2  A    between atoms: N_3  and  N_4
REMARK    3  A    between atoms: C_5  and  C_6
REMARK    4  A    between atoms: C_11  and  O_12
REMARK                            x       y       z     vdW  Elec       q    Type
REMARK                         _______ _______ _______ _____ _____    ______ ____
ROOT
ATOM      1  O   UNL     1       2.395   7.380  18.063  0.00  0.00    +0.000 OA
ATOM      2  C   UNL     1       2.524   6.694  19.077  0.00  0.00    +0.000 C 
ATOM      3  N   UNL     1       2.128   7.103  20.344  0.00  0.00    +0.000 N 
ATOM      4  H   UNL     1       2.251   6.506  21.150  0.00  0.00    +0.000 HD
ENDROOT
BRANCH   2   5
ATOM      5  C   UNL     1       3.121   5.376  19.001  0.00  0.00    +0.000 A 
ATOM      6  C   UNL     1       2.642   4.136  18.599  0.00  0.00    +0.000 A 
ATOM      7  C   UNL     1       3.696   3.199  18.743  0.00  0.00    +0.000 A 
ATOM      8 CL   UNL     1       3.592   1.550  18.370  0.00  0.00    +0.000 Cl
ATOM      9  C   UNL     1       4.790   3.869  19.230  0.00  0.00    +0.000 A 
ATOM     10  N   UNL     1       4.437   5.183  19.380  0.00  0.00    +0.000 N 
ATOM     11  H   UNL     1       5.031   5.931  19.718  0.00  0.00    +0.000 HD
ENDBRANCH   2   5
BRANCH   3  12
ATOM     12  N   UNL     1       1.546   8.326  20.494  0.00  0.00    +0.000 NA
ATOM     13  C   UNL     1       0.571   8.417  21.341  0.00  0.00    +0.000 C 
BRANCH  13  14
ATOM     14  C   UNL     1      -0.124   9.708  21.542  0.00  0.00    +0.000 A 
ATOM     15  C   UNL     1      -0.480  10.480  20.427  0.00  0.00    +0.000 A 
ATOM     16  C   UNL     1      -1.163  11.684  20.595  0.00  0.00    +0.000 A 
ATOM     17  C   UNL     1      -1.491  12.124  21.875  0.00  0.00    +0.000 A 
ATOM     18  C   UNL     1      -1.132  11.366  22.993  0.00  0.00    +0.000 A 
ATOM     19  C   UNL     1      -0.449  10.158  22.825  0.00  0.00    +0.000 A 
BRANCH  19  20
ATOM     20  O   UNL     1      -0.107   9.416  23.921  0.00  0.00    +0.000 OA
ATOM     21  H   UNL     1      -0.554   9.786  24.702  0.00  0.00    +0.000 HD
ENDBRANCH  19  20
ENDBRANCH  13  14
ENDBRANCH   3  12
TORSDOF 4
ENDMDL
MODEL 9
REMARK VINA RESULT:      -6.4      3.545      7.823
REMARK  Name = 
REMARK  4 active torsions:
REMARK  status: ('A' for Active; 'I' for Inactive)
REMARK    1  A    between atoms: C_2  and  C_13
REMARK    2  A    between atoms: N_3  and  N_4
REMARK    3  A    between atoms: C_5  and  C_6
REMARK    4  A    between atoms: C_11  and  O_12
REMARK                            x       y       z     vdW  Elec       q    Type
REMARK                         _______ _______ _______ _____ _____    ______ ____
ROOT
ATOM      1  O   UNL     1       1.868   3.660  16.783  0.00  0.00    +0.000 OA
ATOM      2  C   UNL     1       2.734   3.746  17.653  0.00  0.00    +0.000 C 
ATOM      3  N   UNL     1       4.082   3.942  17.388  0.00  0.00    +0.000 N 
ATOM      4  H   UNL     1       4.759   4.010  18.135  0.00  0.00    +0.000 HD
ENDROOT
BRANCH   2   5
ATOM      5  C   UNL     1       2.379   3.641  19.055  0.00  0.00    +0.000 A 
ATOM      6  C   UNL     1       1.815   2.630  19.821  0.00  0.00    +0.000 A 
ATOM      7  C   UNL     1       1.705   3.107  21.151  0.00  0.00    +0.000 A 
ATOM      8 CL   UNL     1       1.077   2.225  22.455  0.00  0.00    +0.000 Cl
ATOM      9  C   UNL     1       2.193   4.389  21.180  0.00  0.00    +0.000 A 
ATOM     10  N   UNL     1       2.601   4.704  19.912  0.00  0.00    +0.000 N 
ATOM     11  H   UNL     1       3.012   5.580  19.612  0.00  0.00    +0.000 HD
ENDBRANCH   2   5
BRANCH   3  12
ATOM     12  N   UNL     1       4.491   4.065  16.094  0.00  0.00    +0.000 NA
ATOM     13  C   UNL     1       5.760   3.947  15.861  0.00  0.00    +0.000 C 
BRANCH  13  14
ATOM     14  C   UNL     1       6.281   4.088  14.483  0.00  0.00    +0.000 A 
ATOM     15  C   UNL     1       5.754   3.286  13.462  0.00  0.00    +0.000 A 
ATOM     16  C   UNL     1       6.209   3.426  12.151  0.00  0.00    +0.000 A 
ATOM     17  C   UNL     1       7.195   4.366  11.856  0.00  0.00    +0.000 A 
ATOM     18  C   UNL     1       7.733   5.163  12.869  0.00  0.00    +0.000 A 
ATOM     19  C   UNL     1       7.275   5.023  14.182  0.00  0.00    +0.000 A 
BRANCH  19  20
ATOM     20  O   UNL     1       7.799   5.811  15.169  0.00  0.00    +0.000 OA
ATOM     21  H   UNL     1       7.085   6.060  15.782  0.00  0.00    +0.000 HD
ENDBRANCH  19  20
ENDBRANCH  13  14
ENDBRANCH   3  12
TORSDOF 4
ENDMDL
