MODEL 1
REMARK VINA RESULT:      -9.1      0.000      0.000
REMARK  Name = 
REMARK  7 active torsions:
REMARK  status: ('A' for Active; 'I' for Inactive)
REMARK    1  A    between atoms: C_1  and  O_2
REMARK    2  A    between atoms: O_2  and  C_3
REMARK    3  A    between atoms: C_5  and  C_6
REMARK    4  A    between atoms: N_9  and  C_10
REMARK    5  A    between atoms: C_14  and  N_15
REMARK    6  A    between atoms: C_23  and  S_24
REMARK    7  A    between atoms: S_24  and  C_25
REMARK                            x       y       z     vdW  Elec       q    Type
REMARK                         _______ _______ _______ _____ _____    ______ ____
ROOT
ATOM      1  N   UNL     1       1.836   6.978  20.865  0.00  0.00    +0.000 N 
ATOM      2  C   UNL     1       1.228   8.225  21.106  0.00  0.00    +0.000 A 
ATOM      3  N   UNL     1       1.356   8.661  22.363  0.00  0.00    +0.000 NA
ATOM      4  C   UNL     1       0.732   9.806  22.669  0.00  0.00    +0.000 A 
ATOM      5  C   UNL     1      -0.051  10.527  21.789  0.00  0.00    +0.000 A 
ATOM      6  C   UNL     1      -0.734  11.661  22.239  0.00  0.00    +0.000 A 
ATOM      7  C   UNL     1      -1.515  12.336  21.340  0.00  0.00    +0.000 A 
ATOM      8  N   UNL     1      -1.592  11.986  20.051  0.00  0.00    +0.000 NA
ATOM      9  C   UNL     1      -0.883  10.899  19.602  0.00  0.00    +0.000 A 
ATOM     10  C   UNL     1      -0.111  10.064  20.463  0.00  0.00    +0.000 A 
ATOM     11  N   UNL     1       0.557   8.916  20.145  0.00  0.00    +0.000 NA
ATOM     12  H   UNL     1       2.343   6.701  21.700  0.00  0.00    +0.000 HD
ENDROOT
BRANCH   1  18
ATOM     13  C   UNL     1       2.777   5.182  19.470  0.00  0.00    +0.000 A 
ATOM     14  C   UNL     1       3.656   4.837  18.437  0.00  0.00    +0.000 A 
ATOM     15  C   UNL     1       4.169   5.811  17.574  0.00  0.00    +0.000 A 
ATOM     16  C   UNL     1       3.663   7.107  17.642  0.00  0.00    +0.000 A 
ATOM     17  C   UNL     1       2.818   7.450  18.685  0.00  0.00    +0.000 A 
ATOM     18  C   UNL     1       2.470   6.540  19.685  0.00  0.00    +0.000 A 
BRANCH  15  19
ATOM     19  C   UNL     1       5.287   5.499  16.727  0.00  0.00    +0.000 A 
ATOM     20  C   UNL     1       6.583   6.050  16.633  0.00  0.00    +0.000 A 
ATOM     21  N   UNL     1       7.248   5.614  15.560  0.00  0.00    +0.000 NA
ATOM     22  N   UNL     1       6.359   4.811  14.945  0.00  0.00    +0.000 N 
ATOM     23  C   UNL     1       6.658   4.231  13.661  0.00  0.00    +0.000 C 
ATOM     24  C   UNL     1       5.179   4.693  15.612  0.00  0.00    +0.000 A 
ENDBRANCH  15  19
BRANCH  13  26
ATOM     25  C   UNL     1       1.052   3.636  19.905  0.00  0.00    +0.000 C 
ATOM     26  O   UNL     1       2.273   4.247  20.346  0.00  0.00    +0.000 OA
ENDBRANCH  13  26
ENDBRANCH   1  18
BRANCH   9  27
ATOM     27  S   UNL     1      -0.947  10.947  17.808  0.00  0.00    +0.000 S 
BRANCH  27  28
ATOM     28  C   UNL     1      -2.204   9.783  17.153  0.00  0.00    +0.000 C 
ATOM     29  C   UNL     1      -3.470   9.608  17.992  0.00  0.00    +0.000 C 
ATOM     30  C   UNL     1      -4.399  10.822  17.970  0.00  0.00    +0.000 C 
ATOM     31  C   UNL     1      -4.786  11.213  16.547  0.00  0.00    +0.000 C 
ATOM     32  C   UNL     1      -3.557  11.441  15.676  0.00  0.00    +0.000 C 
ATOM     33  C   UNL     1      -2.590  10.251  15.722  0.00  0.00    +0.000 C 
ENDBRANCH  27  28
ENDBRANCH   9  27
TORSDOF 5
ENDMDL
MODEL 2
REMARK VINA RESULT:      -8.5      0.941      1.057
REMARK  Name = 
REMARK  7 active torsions:
REMARK  status: ('A' for Active; 'I' for Inactive)
REMARK    1  A    between atoms: C_1  and  O_2
REMARK    2  A    between atoms: O_2  and  C_3
REMARK    3  A    between atoms: C_5  and  C_6
REMARK    4  A    between atoms: N_9  and  C_10
REMARK    5  A    between atoms: C_14  and  N_15
REMARK    6  A    between atoms: C_23  and  S_24
REMARK    7  A    between atoms: S_24  and  C_25
REMARK                            x       y       z     vdW  Elec       q    Type
REMARK                         _______ _______ _______ _____ _____    ______ ____
ROOT
ATOM      1  N   UNL     1       1.319   7.470  21.293  0.00  0.00    +0.000 N 
ATOM      2  C   UNL     1       0.732   8.718  21.574  0.00  0.00    +0.000 A 
ATOM      3  N   UNL     1       0.942   9.153  22.820  0.00  0.00    +0.000 NA
ATOM      4  C   UNL     1       0.341  10.299  23.167  0.00  0.00    +0.000 A 
ATOM      5  C   UNL     1      -0.495  11.022  22.339  0.00  0.00    +0.000 A 
ATOM      6  C   UNL     1      -1.145  12.158  22.833  0.00  0.00    +0.000 A 
ATOM      7  C   UNL     1      -1.981  12.836  21.988  0.00  0.00    +0.000 A 
ATOM      8  N   UNL     1      -2.142  12.486  20.707  0.00  0.00    +0.000 NA
ATOM      9  C   UNL     1      -1.467  11.398  20.212  0.00  0.00    +0.000 A 
ATOM     10  C   UNL     1      -0.643  10.561  21.020  0.00  0.00    +0.000 A 
ATOM     11  N   UNL     1       0.001   9.411  20.659  0.00  0.00    +0.000 NA
ATOM     12  H   UNL     1       1.879   7.191  22.093  0.00  0.00    +0.000 HD
ENDROOT
BRANCH   1  18
ATOM     13  C   UNL     1       2.197   5.678  19.852  0.00  0.00    +0.000 A 
ATOM     14  C   UNL     1       3.005   5.340  18.760  0.00  0.00    +0.000 A 
ATOM     15  C   UNL     1       3.429   6.314  17.851  0.00  0.00    +0.000 A 
ATOM     16  C   UNL     1       2.899   7.598  17.942  0.00  0.00    +0.000 A 
ATOM     17  C   UNL     1       2.126   7.936  19.041  0.00  0.00    +0.000 A 
ATOM     18  C   UNL     1       1.874   7.031  20.074  0.00  0.00    +0.000 A 
BRANCH  15  19
ATOM     19  C   UNL     1       4.488   6.016  16.926  0.00  0.00    +0.000 A 
ATOM     20  C   UNL     1       5.169   6.815  15.983  0.00  0.00    +0.000 A 
ATOM     21  N   UNL     1       5.944   6.095  15.166  0.00  0.00    +0.000 NA
ATOM     22  N   UNL     1       5.726   4.828  15.566  0.00  0.00    +0.000 N 
ATOM     23  C   UNL     1       6.297   3.721  14.841  0.00  0.00    +0.000 C 
ATOM     24  C   UNL     1       4.879   4.728  16.626  0.00  0.00    +0.000 A 
ENDBRANCH  15  19
BRANCH  13  26
ATOM     25  C   UNL     1       2.259   3.416  20.512  0.00  0.00    +0.000 C 
ATOM     26  O   UNL     1       1.781   4.743  20.773  0.00  0.00    +0.000 OA
ENDBRANCH  13  26
ENDBRANCH   1  18
BRANCH   9  27
ATOM     27  S   UNL     1      -1.647  11.447  18.425  0.00  0.00    +0.000 S 
BRANCH  27  28
ATOM     28  C   UNL     1      -2.768  10.124  17.830  0.00  0.00    +0.000 C 
ATOM     29  C   UNL     1      -4.258  10.465  17.785  0.00  0.00    +0.000 C 
ATOM     30  C   UNL     1      -4.633  11.454  16.682  0.00  0.00    +0.000 C 
ATOM     31  C   UNL     1      -4.184  10.965  15.307  0.00  0.00    +0.000 C 
ATOM     32  C   UNL     1      -2.695  10.650  15.284  0.00  0.00    +0.000 C 
ATOM     33  C   UNL     1      -2.291   9.694  16.415  0.00  0.00    +0.000 C 
ENDBRANCH  27  28
ENDBRANCH   9  27
TORSDOF 5
ENDMDL
MODEL 3
REMARK VINA RESULT:      -8.3      3.411      6.320
REMARK  Name = 
REMARK  7 active torsions:
REMARK  status: ('A' for Active; 'I' for Inactive)
REMARK    1  A    between atoms: C_1  and  O_2
REMARK    2  A    between atoms: O_2  and  C_3
REMARK    3  A    between atoms: C_5  and  C_6
REMARK    4  A    between atoms: N_9  and  C_10
REMARK    5  A    between atoms: C_14  and  N_15
REMARK    6  A    between atoms: C_23  and  S_24
REMARK    7  A    between atoms: S_24  and  C_25
REMARK                            x       y       z     vdW  Elec       q    Type
REMARK                         _______ _______ _______ _____ _____    ______ ____
ROOT
ATOM      1  N   UNL     1      -2.333  12.075  23.346  0.00  0.00    +0.000 N 
ATOM      2  C   UNL     1      -3.474  12.633  22.738  0.00  0.00    +0.000 A 
ATOM      3  N   UNL     1      -3.966  13.700  23.375  0.00  0.00    +0.000 NA
ATOM      4  C   UNL     1      -5.097  14.225  22.884  0.00  0.00    +0.000 A 
ATOM      5  C   UNL     1      -5.788  13.714  21.803  0.00  0.00    +0.000 A 
ATOM      6  C   UNL     1      -7.009  14.286  21.429  0.00  0.00    +0.000 A 
ATOM      7  C   UNL     1      -7.673  13.739  20.365  0.00  0.00    +0.000 A 
ATOM      8  N   UNL     1      -7.165  12.732  19.644  0.00  0.00    +0.000 NA
ATOM      9  C   UNL     1      -5.944  12.204  19.984  0.00  0.00    +0.000 A 
ATOM     10  C   UNL     1      -5.205  12.629  21.128  0.00  0.00    +0.000 A 
ATOM     11  N   UNL     1      -4.033  12.118  21.609  0.00  0.00    +0.000 NA
ATOM     12  H   UNL     1      -2.055  12.675  24.118  0.00  0.00    +0.000 HD
ENDROOT
BRANCH   1  18
ATOM     13  C   UNL     1      -0.438  12.160  21.778  0.00  0.00    +0.000 A 
ATOM     14  C   UNL     1       0.452  11.440  20.973  0.00  0.00    +0.000 A 
ATOM     15  C   UNL     1       0.621  10.062  21.143  0.00  0.00    +0.000 A 
ATOM     16  C   UNL     1       0.023   9.438  22.234  0.00  0.00    +0.000 A 
ATOM     17  C   UNL     1      -0.881  10.147  23.008  0.00  0.00    +0.000 A 
ATOM     18  C   UNL     1      -1.228  11.468  22.717  0.00  0.00    +0.000 A 
BRANCH  15  19
ATOM     19  C   UNL     1       1.293   9.294  20.131  0.00  0.00    +0.000 A 
ATOM     20  C   UNL     1       1.412   9.470  18.736  0.00  0.00    +0.000 A 
ATOM     21  N   UNL     1       1.944   8.406  18.128  0.00  0.00    +0.000 NA
ATOM     22  N   UNL     1       2.130   7.532  19.136  0.00  0.00    +0.000 N 
ATOM     23  C   UNL     1       2.583   6.191  18.869  0.00  0.00    +0.000 C 
ATOM     24  C   UNL     1       1.775   8.021  20.355  0.00  0.00    +0.000 A 
ENDBRANCH  15  19
BRANCH  13  26
ATOM     25  C   UNL     1      -0.398  13.986  20.287  0.00  0.00    +0.000 C 
ATOM     26  O   UNL     1      -0.637  13.513  21.621  0.00  0.00    +0.000 OA
ENDBRANCH  13  26
ENDBRANCH   1  18
BRANCH   9  27
ATOM     27  S   UNL     1      -5.441  11.148  18.621  0.00  0.00    +0.000 S 
BRANCH  27  28
ATOM     28  C   UNL     1      -4.046  11.884  17.686  0.00  0.00    +0.000 C 
ATOM     29  C   UNL     1      -2.674  11.833  18.360  0.00  0.00    +0.000 C 
ATOM     30  C   UNL     1      -2.064  10.433  18.416  0.00  0.00    +0.000 C 
ATOM     31  C   UNL     1      -1.970   9.800  17.030  0.00  0.00    +0.000 C 
ATOM     32  C   UNL     1      -3.321   9.787  16.329  0.00  0.00    +0.000 C 
ATOM     33  C   UNL     1      -3.971  11.177  16.304  0.00  0.00    +0.000 C 
ENDBRANCH  27  28
ENDBRANCH   9  27
TORSDOF 5
ENDMDL
MODEL 4
REMARK VINA RESULT:      -8.2      3.025      8.880
REMARK  Name = 
REMARK  7 active torsions:
REMARK  status: ('A' for Active; 'I' for Inactive)
REMARK    1  A    between atoms: C_1  and  O_2
REMARK    2  A    between atoms: O_2  and  C_3
REMARK    3  A    between atoms: C_5  and  C_6
REMARK    4  A    between atoms: N_9  and  C_10
REMARK    5  A    between atoms: C_14  and  N_15
REMARK    6  A    between atoms: C_23  and  S_24
REMARK    7  A    between atoms: S_24  and  C_25
REMARK                            x       y       z     vdW  Elec       q    Type
REMARK                         _______ _______ _______ _____ _____    ______ ____
ROOT
ATOM      1  N   UNL     1       1.412   6.940  21.184  0.00  0.00    +0.000 N 
ATOM      2  C   UNL     1       1.694   5.787  20.427  0.00  0.00    +0.000 A 
ATOM      3  N   UNL     1       0.978   4.715  20.777  0.00  0.00    +0.000 NA
ATOM      4  C   UNL     1       1.259   3.569  20.142  0.00  0.00    +0.000 A 
ATOM      5  C   UNL     1       2.252   3.428  19.193  0.00  0.00    +0.000 A 
ATOM      6  C   UNL     1       2.524   2.165  18.658  0.00  0.00    +0.000 A 
ATOM      7  C   UNL     1       3.529   2.063  17.734  0.00  0.00    +0.000 A 
ATOM      8  N   UNL     1       4.202   3.130  17.288  0.00  0.00    +0.000 NA
ATOM      9  C   UNL     1       3.901   4.376  17.780  0.00  0.00    +0.000 A 
ATOM     10  C   UNL     1       2.941   4.592  18.812  0.00  0.00    +0.000 A 
ATOM     11  N   UNL     1       2.626   5.766  19.436  0.00  0.00    +0.000 NA
ATOM     12  H   UNL     1       0.629   6.737  21.799  0.00  0.00    +0.000 HD
ENDROOT
BRANCH   1  18
ATOM     13  C   UNL     1       1.265   9.352  21.652  0.00  0.00    +0.000 A 
ATOM     14  C   UNL     1       0.982  10.629  21.155  0.00  0.00    +0.000 A 
ATOM     15  C   UNL     1       0.923  10.867  19.778  0.00  0.00    +0.000 A 
ATOM     16  C   UNL     1       1.318   9.860  18.901  0.00  0.00    +0.000 A 
ATOM     17  C   UNL     1       1.566   8.590  19.397  0.00  0.00    +0.000 A 
ATOM     18  C   UNL     1       1.415   8.281  20.750  0.00  0.00    +0.000 A 
BRANCH  15  19
ATOM     19  C   UNL     1       0.341  12.086  19.287  0.00  0.00    +0.000 A 
ATOM     20  C   UNL     1      -0.570  12.342  18.241  0.00  0.00    +0.000 A 
ATOM     21  N   UNL     1      -0.689  13.646  17.972  0.00  0.00    +0.000 NA
ATOM     22  N   UNL     1       0.180  14.220  18.825  0.00  0.00    +0.000 N 
ATOM     23  C   UNL     1       0.440  15.636  18.765  0.00  0.00    +0.000 C 
ATOM     24  C   UNL     1       0.806  13.334  19.646  0.00  0.00    +0.000 A 
ENDBRANCH  15  19
BRANCH  13  26
ATOM     25  C   UNL     1       0.111   9.435  23.706  0.00  0.00    +0.000 C 
ATOM     26  O   UNL     1       1.311   9.085  23.003  0.00  0.00    +0.000 OA
ENDBRANCH  13  26
ENDBRANCH   1  18
BRANCH   9  27
ATOM     27  S   UNL     1       4.735   5.564  16.722  0.00  0.00    +0.000 S 
BRANCH  27  28
ATOM     28  C   UNL     1       6.537   5.236  16.640  0.00  0.00    +0.000 C 
ATOM     29  C   UNL     1       7.432   6.435  16.323  0.00  0.00    +0.000 C 
ATOM     30  C   UNL     1       7.539   7.445  17.465  0.00  0.00    +0.000 C 
ATOM     31  C   UNL     1       8.013   6.789  18.759  0.00  0.00    +0.000 C 
ATOM     32  C   UNL     1       7.128   5.610  19.144  0.00  0.00    +0.000 C 
ATOM     33  C   UNL     1       6.970   4.608  17.993  0.00  0.00    +0.000 C 
ENDBRANCH  27  28
ENDBRANCH   9  27
TORSDOF 5
ENDMDL
MODEL 5
REMARK VINA RESULT:      -7.9      3.484      8.702
REMARK  Name = 
REMARK  7 active torsions:
REMARK  status: ('A' for Active; 'I' for Inactive)
REMARK    1  A    between atoms: C_1  and  O_2
REMARK    2  A    between atoms: O_2  and  C_3
REMARK    3  A    between atoms: C_5  and  C_6
REMARK    4  A    between atoms: N_9  and  C_10
REMARK    5  A    between atoms: C_14  and  N_15
REMARK    6  A    between atoms: C_23  and  S_24
REMARK    7  A    between atoms: S_24  and  C_25
REMARK                            x       y       z     vdW  Elec       q    Type
REMARK                         _______ _______ _______ _____ _____    ______ ____
ROOT
ATOM      1  N   UNL     1       0.872   7.182  20.948  0.00  0.00    +0.000 N 
ATOM      2  C   UNL     1       1.459   5.978  20.516  0.00  0.00    +0.000 A 
ATOM      3  N   UNL     1       0.608   4.950  20.445  0.00  0.00    +0.000 NA
ATOM      4  C   UNL     1       1.127   3.760  20.115  0.00  0.00    +0.000 A 
ATOM      5  C   UNL     1       2.470   3.533  19.884  0.00  0.00    +0.000 A 
ATOM      6  C   UNL     1       2.919   2.232  19.635  0.00  0.00    +0.000 A 
ATOM      7  C   UNL     1       4.259   2.045  19.432  0.00  0.00    +0.000 A 
ATOM      8  N   UNL     1       5.128   3.062  19.400  0.00  0.00    +0.000 NA
ATOM      9  C   UNL     1       4.677   4.344  19.598  0.00  0.00    +0.000 A 
ATOM     10  C   UNL     1       3.320   4.651  19.912  0.00  0.00    +0.000 A 
ATOM     11  N   UNL     1       2.781   5.869  20.214  0.00  0.00    +0.000 NA
ATOM     12  H   UNL     1      -0.131   7.040  21.029  0.00  0.00    +0.000 HD
ENDROOT
BRANCH   1  18
ATOM     13  C   UNL     1       1.215   9.566  21.456  0.00  0.00    +0.000 A 
ATOM     14  C   UNL     1       1.248  10.877  20.968  0.00  0.00    +0.000 A 
ATOM     15  C   UNL     1       1.337  11.131  19.595  0.00  0.00    +0.000 A 
ATOM     16  C   UNL     1       1.566  10.068  18.726  0.00  0.00    +0.000 A 
ATOM     17  C   UNL     1       1.501   8.771  19.210  0.00  0.00    +0.000 A 
ATOM     18  C   UNL     1       1.193   8.494  20.543  0.00  0.00    +0.000 A 
BRANCH  15  19
ATOM     19  C   UNL     1       1.066  12.450  19.093  0.00  0.00    +0.000 A 
ATOM     20  C   UNL     1       1.845  13.348  18.332  0.00  0.00    +0.000 A 
ATOM     21  N   UNL     1       1.299  14.565  18.259  0.00  0.00    +0.000 NA
ATOM     22  N   UNL     1       0.186  14.453  19.009  0.00  0.00    +0.000 N 
ATOM     23  C   UNL     1      -0.632  15.606  19.284  0.00  0.00    +0.000 C 
ATOM     24  C   UNL     1      -0.009  13.205  19.513  0.00  0.00    +0.000 A 
ENDBRANCH  15  19
BRANCH  13  26
ATOM     25  C   UNL     1      -0.164   9.631  23.367  0.00  0.00    +0.000 C 
ATOM     26  O   UNL     1       1.108   9.288  22.801  0.00  0.00    +0.000 OA
ENDBRANCH  13  26
ENDBRANCH   1  18
BRANCH   9  27
ATOM     27  S   UNL     1       6.025   5.441  19.144  0.00  0.00    +0.000 S 
BRANCH  27  28
ATOM     28  C   UNL     1       5.756   6.179  17.487  0.00  0.00    +0.000 C 
ATOM     29  C   UNL     1       6.923   6.085  16.503  0.00  0.00    +0.000 C 
ATOM     30  C   UNL     1       7.174   4.674  15.974  0.00  0.00    +0.000 C 
ATOM     31  C   UNL     1       5.923   4.080  15.332  0.00  0.00    +0.000 C 
ATOM     32  C   UNL     1       4.737   4.110  16.286  0.00  0.00    +0.000 C 
ATOM     33  C   UNL     1       4.499   5.511  16.865  0.00  0.00    +0.000 C 
ENDBRANCH  27  28
ENDBRANCH   9  27
TORSDOF 5
ENDMDL
MODEL 6
REMARK VINA RESULT:      -7.9      0.570      1.178
REMARK  Name = 
REMARK  7 active torsions:
REMARK  status: ('A' for Active; 'I' for Inactive)
REMARK    1  A    between atoms: C_1  and  O_2
REMARK    2  A    between atoms: O_2  and  C_3
REMARK    3  A    between atoms: C_5  and  C_6
REMARK    4  A    between atoms: N_9  and  C_10
REMARK    5  A    between atoms: C_14  and  N_15
REMARK    6  A    between atoms: C_23  and  S_24
REMARK    7  A    between atoms: S_24  and  C_25
REMARK                            x       y       z     vdW  Elec       q    Type
REMARK                         _______ _______ _______ _____ _____    ______ ____
ROOT
ATOM      1  N   UNL     1       1.691   6.960  20.786  0.00  0.00    +0.000 N 
ATOM      2  C   UNL     1       1.135   8.215  21.098  0.00  0.00    +0.000 A 
ATOM      3  N   UNL     1       1.252   8.559  22.384  0.00  0.00    +0.000 NA
ATOM      4  C   UNL     1       0.673   9.708  22.755  0.00  0.00    +0.000 A 
ATOM      5  C   UNL     1      -0.055  10.522  21.909  0.00  0.00    +0.000 A 
ATOM      6  C   UNL     1      -0.696  11.655  22.421  0.00  0.00    +0.000 A 
ATOM      7  C   UNL     1      -1.424  12.425  21.554  0.00  0.00    +0.000 A 
ATOM      8  N   UNL     1      -1.485  12.166  20.243  0.00  0.00    +0.000 NA
ATOM      9  C   UNL     1      -0.816  11.079  19.736  0.00  0.00    +0.000 A 
ATOM     10  C   UNL     1      -0.104  10.154  20.554  0.00  0.00    +0.000 A 
ATOM     11  N   UNL     1       0.519   8.999  20.173  0.00  0.00    +0.000 NA
ATOM     12  H   UNL     1       2.165   6.604  21.611  0.00  0.00    +0.000 HD
ENDROOT
BRANCH   1  18
ATOM     13  C   UNL     1       2.527   5.217  19.261  0.00  0.00    +0.000 A 
ATOM     14  C   UNL     1       3.415   4.886  18.232  0.00  0.00    +0.000 A 
ATOM     15  C   UNL     1       4.049   5.881  17.482  0.00  0.00    +0.000 A 
ATOM     16  C   UNL     1       3.659   7.207  17.653  0.00  0.00    +0.000 A 
ATOM     17  C   UNL     1       2.804   7.532  18.694  0.00  0.00    +0.000 A 
ATOM     18  C   UNL     1       2.333   6.572  19.593  0.00  0.00    +0.000 A 
BRANCH  15  19
ATOM     19  C   UNL     1       5.169   5.544  16.647  0.00  0.00    +0.000 A 
ATOM     20  C   UNL     1       6.451   6.118  16.513  0.00  0.00    +0.000 A 
ATOM     21  N   UNL     1       7.122   5.633  15.463  0.00  0.00    +0.000 NA
ATOM     22  N   UNL     1       6.248   4.775  14.904  0.00  0.00    +0.000 N 
ATOM     23  C   UNL     1       6.554   4.126  13.655  0.00  0.00    +0.000 C 
ATOM     24  C   UNL     1       5.074   4.670  15.584  0.00  0.00    +0.000 A 
ENDBRANCH  15  19
BRANCH  13  26
ATOM     25  C   UNL     1       1.474   3.108  19.285  0.00  0.00    +0.000 C 
ATOM     26  O   UNL     1       1.903   4.257  20.028  0.00  0.00    +0.000 OA
ENDBRANCH  13  26
ENDBRANCH   1  18
BRANCH   9  27
ATOM     27  S   UNL     1      -0.834  11.251  17.948  0.00  0.00    +0.000 S 
BRANCH  27  28
ATOM     28  C   UNL     1      -2.505  11.695  17.336  0.00  0.00    +0.000 C 
ATOM     29  C   UNL     1      -2.719  11.610  15.825  0.00  0.00    +0.000 C 
ATOM     30  C   UNL     1      -2.763  10.180  15.286  0.00  0.00    +0.000 C 
ATOM     31  C   UNL     1      -3.822   9.340  15.995  0.00  0.00    +0.000 C 
ATOM     32  C   UNL     1      -3.629   9.356  17.505  0.00  0.00    +0.000 C 
ATOM     33  C   UNL     1      -3.535  10.784  18.059  0.00  0.00    +0.000 C 
ENDBRANCH  27  28
ENDBRANCH   9  27
TORSDOF 5
ENDMDL
MODEL 7
REMARK VINA RESULT:      -7.7      3.638      6.736
REMARK  Name = 
REMARK  7 active torsions:
REMARK  status: ('A' for Active; 'I' for Inactive)
REMARK    1  A    between atoms: C_1  and  O_2
REMARK    2  A    between atoms: O_2  and  C_3
REMARK    3  A    between atoms: C_5  and  C_6
REMARK    4  A    between atoms: N_9  and  C_10
REMARK    5  A    between atoms: C_14  and  N_15
REMARK    6  A    between atoms: C_23  and  S_24
REMARK    7  A    between atoms: S_24  and  C_25
REMARK                            x       y       z     vdW  Elec       q    Type
REMARK                         _______ _______ _______ _____ _____    ______ ____
ROOT
ATOM      1  N   UNL     1      -2.928  12.667  22.979  0.00  0.00    +0.000 N 
ATOM      2  C   UNL     1      -3.986  13.181  22.206  0.00  0.00    +0.000 A 
ATOM      3  N   UNL     1      -4.478  14.340  22.655  0.00  0.00    +0.000 NA
ATOM      4  C   UNL     1      -5.537  14.837  22.004  0.00  0.00    +0.000 A 
ATOM      5  C   UNL     1      -6.160  14.215  20.939  0.00  0.00    +0.000 A 
ATOM      6  C   UNL     1      -7.317  14.777  20.390  0.00  0.00    +0.000 A 
ATOM      7  C   UNL     1      -7.916  14.119  19.349  0.00  0.00    +0.000 A 
ATOM      8  N   UNL     1      -7.399  13.009  18.811  0.00  0.00    +0.000 NA
ATOM      9  C   UNL     1      -6.237  12.485  19.322  0.00  0.00    +0.000 A 
ATOM     10  C   UNL     1      -5.576  13.029  20.463  0.00  0.00    +0.000 A 
ATOM     11  N   UNL     1      -4.474  12.544  21.107  0.00  0.00    +0.000 NA
ATOM     12  H   UNL     1      -2.686  13.352  23.689  0.00  0.00    +0.000 HD
ENDROOT
BRANCH   1  18
ATOM     13  C   UNL     1      -1.036  12.369  21.433  0.00  0.00    +0.000 A 
ATOM     14  C   UNL     1      -0.125  11.481  20.851  0.00  0.00    +0.000 A 
ATOM     15  C   UNL     1       0.086  10.209  21.393  0.00  0.00    +0.000 A 
ATOM     16  C   UNL     1      -0.492   9.895  22.620  0.00  0.00    +0.000 A 
ATOM     17  C   UNL     1      -1.417  10.764  23.176  0.00  0.00    +0.000 A 
ATOM     18  C   UNL     1      -1.805  11.942  22.533  0.00  0.00    +0.000 A 
BRANCH  15  19
ATOM     19  C   UNL     1       0.781   9.211  20.628  0.00  0.00    +0.000 A 
ATOM     20  C   UNL     1       1.421   8.011  21.003  0.00  0.00    +0.000 A 
ATOM     21  N   UNL     1       2.137   7.479  20.008  0.00  0.00    +0.000 NA
ATOM     22  N   UNL     1       1.985   8.365  19.006  0.00  0.00    +0.000 N 
ATOM     23  C   UNL     1       2.714   8.212  17.773  0.00  0.00    +0.000 C 
ATOM     24  C   UNL     1       1.168   9.408  19.318  0.00  0.00    +0.000 A 
ENDBRANCH  15  19
BRANCH  13  26
ATOM     25  C   UNL     1      -0.182  14.155  20.152  0.00  0.00    +0.000 C 
ATOM     26  O   UNL     1      -1.277  13.620  20.908  0.00  0.00    +0.000 OA
ENDBRANCH  13  26
ENDBRANCH   1  18
BRANCH   9  27
ATOM     27  S   UNL     1      -5.674  11.241  18.155  0.00  0.00    +0.000 S 
BRANCH  27  28
ATOM     28  C   UNL     1      -4.212  11.823  17.213  0.00  0.00    +0.000 C 
ATOM     29  C   UNL     1      -2.887  11.868  17.975  0.00  0.00    +0.000 C 
ATOM     30  C   UNL     1      -2.301  10.490  18.279  0.00  0.00    +0.000 C 
ATOM     31  C   UNL     1      -2.128   9.656  17.013  0.00  0.00    +0.000 C 
ATOM     32  C   UNL     1      -3.432   9.544  16.235  0.00  0.00    +0.000 C 
ATOM     33  C   UNL     1      -4.060  10.917  15.960  0.00  0.00    +0.000 C 
ENDBRANCH  27  28
ENDBRANCH   9  27
TORSDOF 5
ENDMDL
MODEL 8
REMARK VINA RESULT:      -7.7      2.621      8.615
REMARK  Name = 
REMARK  7 active torsions:
REMARK  status: ('A' for Active; 'I' for Inactive)
REMARK    1  A    between atoms: C_1  and  O_2
REMARK    2  A    between atoms: O_2  and  C_3
REMARK    3  A    between atoms: C_5  and  C_6
REMARK    4  A    between atoms: N_9  and  C_10
REMARK    5  A    between atoms: C_14  and  N_15
REMARK    6  A    between atoms: C_23  and  S_24
REMARK    7  A    between atoms: S_24  and  C_25
REMARK                            x       y       z     vdW  Elec       q    Type
REMARK                         _______ _______ _______ _____ _____    ______ ____
ROOT
ATOM      1  N   UNL     1       1.928   6.673  21.281  0.00  0.00    +0.000 N 
ATOM      2  C   UNL     1       2.203   5.402  20.741  0.00  0.00    +0.000 A 
ATOM      3  N   UNL     1       1.917   4.387  21.561  0.00  0.00    +0.000 NA
ATOM      4  C   UNL     1       2.230   3.158  21.129  0.00  0.00    +0.000 A 
ATOM      5  C   UNL     1       2.854   2.890  19.927  0.00  0.00    +0.000 A 
ATOM      6  C   UNL     1       3.220   1.576  19.614  0.00  0.00    +0.000 A 
ATOM      7  C   UNL     1       3.855   1.355  18.422  0.00  0.00    +0.000 A 
ATOM      8  N   UNL     1       4.072   2.332  17.534  0.00  0.00    +0.000 NA
ATOM      9  C   UNL     1       3.669   3.612  17.823  0.00  0.00    +0.000 A 
ATOM     10  C   UNL     1       3.085   3.980  19.071  0.00  0.00    +0.000 A 
ATOM     11  N   UNL     1       2.730   5.228  19.499  0.00  0.00    +0.000 NA
ATOM     12  H   UNL     1       1.465   6.548  22.177  0.00  0.00    +0.000 HD
ENDROOT
BRANCH   1  18
ATOM     13  C   UNL     1       0.597   8.742  21.207  0.00  0.00    +0.000 A 
ATOM     14  C   UNL     1      -0.051   9.693  20.411  0.00  0.00    +0.000 A 
ATOM     15  C   UNL     1       0.217   9.787  19.041  0.00  0.00    +0.000 A 
ATOM     16  C   UNL     1       1.264   9.040  18.506  0.00  0.00    +0.000 A 
ATOM     17  C   UNL     1       1.881   8.079  19.291  0.00  0.00    +0.000 A 
ATOM     18  C   UNL     1       1.473   7.820  20.601  0.00  0.00    +0.000 A 
BRANCH  15  19
ATOM     19  C   UNL     1      -0.659  10.544  18.191  0.00  0.00    +0.000 A 
ATOM     20  C   UNL     1      -1.116  11.878  18.254  0.00  0.00    +0.000 A 
ATOM     21  N   UNL     1      -2.098  12.125  17.382  0.00  0.00    +0.000 NA
ATOM     22  N   UNL     1      -2.294  10.933  16.788  0.00  0.00    +0.000 N 
ATOM     23  C   UNL     1      -3.374  10.750  15.852  0.00  0.00    +0.000 C 
ATOM     24  C   UNL     1      -1.448   9.961  17.221  0.00  0.00    +0.000 A 
ENDBRANCH  15  19
BRANCH  13  26
ATOM     25  C   UNL     1      -0.338   9.744  23.125  0.00  0.00    +0.000 C 
ATOM     26  O   UNL     1       0.339   8.616  22.554  0.00  0.00    +0.000 OA
ENDBRANCH  13  26
ENDBRANCH   1  18
BRANCH   9  27
ATOM     27  S   UNL     1       3.801   4.552  16.298  0.00  0.00    +0.000 S 
BRANCH  27  28
ATOM     28  C   UNL     1       5.119   5.822  16.408  0.00  0.00    +0.000 C 
ATOM     29  C   UNL     1       5.625   6.157  17.812  0.00  0.00    +0.000 C 
ATOM     30  C   UNL     1       6.463   5.049  18.448  0.00  0.00    +0.000 C 
ATOM     31  C   UNL     1       7.645   4.657  17.566  0.00  0.00    +0.000 C 
ATOM     32  C   UNL     1       7.193   4.272  16.163  0.00  0.00    +0.000 C 
ATOM     33  C   UNL     1       6.310   5.353  15.526  0.00  0.00    +0.000 C 
ENDBRANCH  27  28
ENDBRANCH   9  27
TORSDOF 5
ENDMDL
MODEL 9
REMARK VINA RESULT:      -7.6      3.583      5.134
REMARK  Name = 
REMARK  7 active torsions:
REMARK  status: ('A' for Active; 'I' for Inactive)
REMARK    1  A    between atoms: C_1  and  O_2
REMARK    2  A    between atoms: O_2  and  C_3
REMARK    3  A    between atoms: C_5  and  C_6
REMARK    4  A    between atoms: N_9  and  C_10
REMARK    5  A    between atoms: C_14  and  N_15
REMARK    6  A    between atoms: C_23  and  S_24
REMARK    7  A    between atoms: S_24  and  C_25
REMARK                            x       y       z     vdW  Elec       q    Type
REMARK                         _______ _______ _______ _____ _____    ______ ____
ROOT
ATOM      1  N   UNL     1      -0.823  10.171  21.034  0.00  0.00    +0.000 N 
ATOM      2  C   UNL     1      -0.817  11.369  21.772  0.00  0.00    +0.000 A 
ATOM      3  N   UNL     1      -1.637  11.367  22.826  0.00  0.00    +0.000 NA
ATOM      4  C   UNL     1      -1.730  12.509  23.520  0.00  0.00    +0.000 A 
ATOM      5  C   UNL     1      -1.067  13.675  23.193  0.00  0.00    +0.000 A 
ATOM      6  C   UNL     1      -1.306  14.838  23.933  0.00  0.00    +0.000 A 
ATOM      7  C   UNL     1      -0.645  15.978  23.564  0.00  0.00    +0.000 A 
ATOM      8  N   UNL     1       0.256  15.997  22.575  0.00  0.00    +0.000 NA
ATOM      9  C   UNL     1       0.523  14.842  21.881  0.00  0.00    +0.000 A 
ATOM     10  C   UNL     1      -0.170  13.618  22.113  0.00  0.00    +0.000 A 
ATOM     11  N   UNL     1      -0.051  12.441  21.429  0.00  0.00    +0.000 NA
ATOM     12  H   UNL     1      -1.400   9.494  21.525  0.00  0.00    +0.000 HD
ENDROOT
BRANCH   1  18
ATOM     13  C   UNL     1       0.543   9.844  19.013  0.00  0.00    +0.000 A 
ATOM     14  C   UNL     1       1.425   9.011  18.315  0.00  0.00    +0.000 A 
ATOM     15  C   UNL     1       2.081   7.957  18.959  0.00  0.00    +0.000 A 
ATOM     16  C   UNL     1       1.981   7.846  20.344  0.00  0.00    +0.000 A 
ATOM     17  C   UNL     1       1.083   8.652  21.025  0.00  0.00    +0.000 A 
ATOM     18  C   UNL     1       0.257   9.563  20.363  0.00  0.00    +0.000 A 
BRANCH  15  19
ATOM     19  C   UNL     1       2.735   6.940  18.183  0.00  0.00    +0.000 A 
ATOM     20  C   UNL     1       2.565   5.540  18.128  0.00  0.00    +0.000 A 
ATOM     21  N   UNL     1       3.529   4.935  17.427  0.00  0.00    +0.000 NA
ATOM     22  N   UNL     1       4.337   5.950  17.066  0.00  0.00    +0.000 N 
ATOM     23  C   UNL     1       5.580   5.691  16.387  0.00  0.00    +0.000 C 
ATOM     24  C   UNL     1       3.897   7.170  17.476  0.00  0.00    +0.000 A 
ENDBRANCH  15  19
BRANCH  13  26
ATOM     25  C   UNL     1      -1.322  10.469  17.714  0.00  0.00    +0.000 C 
ATOM     26  O   UNL     1      -0.130  10.877  18.399  0.00  0.00    +0.000 OA
ENDBRANCH  13  26
ENDBRANCH   1  18
BRANCH   9  27
ATOM     27  S   UNL     1       1.996  15.158  20.901  0.00  0.00    +0.000 S 
BRANCH  27  28
ATOM     28  C   UNL     1       1.661  14.959  19.109  0.00  0.00    +0.000 C 
ATOM     29  C   UNL     1       0.190  14.941  18.691  0.00  0.00    +0.000 C 
ATOM     30  C   UNL     1      -0.500  16.301  18.799  0.00  0.00    +0.000 C 
ATOM     31  C   UNL     1       0.238  17.375  18.004  0.00  0.00    +0.000 C 
ATOM     32  C   UNL     1       1.703  17.464  18.412  0.00  0.00    +0.000 C 
ATOM     33  C   UNL     1       2.401  16.098  18.356  0.00  0.00    +0.000 C 
ENDBRANCH  27  28
ENDBRANCH   9  27
TORSDOF 5
ENDMDL
