MODEL 1
REMARK VINA RESULT:      -7.9      0.000      0.000
REMARK  Name = 
REMARK  7 active torsions:
REMARK  status: ('A' for Active; 'I' for Inactive)
REMARK    1  A    between atoms: C_2  and  C_3
REMARK    2  A    between atoms: C_6  and  O_7
REMARK    3  A    between atoms: O_7  and  C_8
REMARK    4  A    between atoms: C_13  and  C_14
REMARK    5  A    between atoms: N_16  and  C_17
REMARK    6  A    between atoms: C_17  and  C_18
REMARK    7  A    between atoms: C_18  and  N_19
REMARK                            x       y       z     vdW  Elec       q    Type
REMARK                         _______ _______ _______ _____ _____    ______ ____
ROOT
ATOM      1  C   UNL     1      -0.144  11.089  20.038  0.00  0.00    +0.000 A 
ATOM      2  C   UNL     1      -0.275  10.156  21.062  0.00  0.00    +0.000 A 
ATOM      3  C   UNL     1       0.444   8.956  21.016  0.00  0.00    +0.000 A 
ATOM      4  C   UNL     1       1.243   8.616  19.934  0.00  0.00    +0.000 A 
ATOM      5  N   UNL     1       1.929   7.455  19.955  0.00  0.00    +0.000 NA
ATOM      6  C   UNL     1       2.674   7.150  18.859  0.00  0.00    +0.000 A 
ATOM      7  C   UNL     1       2.736   7.951  17.725  0.00  0.00    +0.000 A 
ATOM      8  C   UNL     1       2.037   9.154  17.725  0.00  0.00    +0.000 A 
ATOM      9  C   UNL     1       1.285   9.522  18.846  0.00  0.00    +0.000 A 
ATOM     10  C   UNL     1       0.596  10.753  18.906  0.00  0.00    +0.000 A 
ENDROOT
BRANCH   6  11
ATOM     11  C   UNL     1       3.468   5.871  18.887  0.00  0.00    +0.000 C 
ATOM     12  O   UNL     1       4.386   5.722  19.692  0.00  0.00    +0.000 OA
ATOM     13  N   UNL     1       3.115   4.901  17.969  0.00  0.00    +0.000 N 
ATOM     14  H   UNL     1       2.345   5.115  17.343  0.00  0.00    +0.000 HD
BRANCH  13  15
ATOM     15  C   UNL     1       3.865   3.661  17.827  0.00  0.00    +0.000 C 
BRANCH  15  16
ATOM     16  C   UNL     1       2.972   2.398  17.804  0.00  0.00    +0.000 C 
BRANCH  16  17
ATOM     17  N   UNL     1       2.463   1.974  19.127  0.00  0.00    +0.000 NA
ATOM     18  C   UNL     1       1.077   2.421  19.357  0.00  0.00    +0.000 C 
ATOM     19  C   UNL     1       1.139   3.465  20.459  0.00  0.00    +0.000 C 
ATOM     20  C   UNL     1       2.309   3.000  21.293  0.00  0.00    +0.000 C 
ATOM     21  C   UNL     1       3.278   2.461  20.253  0.00  0.00    +0.000 C 
ENDBRANCH  16  17
ENDBRANCH  15  16
ENDBRANCH  13  15
ENDBRANCH   6  11
BRANCH   1  22
ATOM     22  O   UNL     1      -0.738  12.336  20.061  0.00  0.00    +0.000 OA
BRANCH  22  26
ATOM     23  C   UNL     1      -4.909  12.421  19.720  0.00  0.00    +0.000 A 
ATOM     24  C   UNL     1      -4.307  13.013  20.830  0.00  0.00    +0.000 A 
ATOM     25  C   UNL     1      -2.916  13.043  20.941  0.00  0.00    +0.000 A 
ATOM     26  C   UNL     1      -2.116  12.415  19.979  0.00  0.00    +0.000 A 
ATOM     27  C   UNL     1      -2.715  11.857  18.847  0.00  0.00    +0.000 A 
ATOM     28  C   UNL     1      -4.113  11.861  18.718  0.00  0.00    +0.000 A 
BRANCH  23  30
ATOM     29  N   UNL     1      -7.496  12.358  19.508  0.00  0.00    +0.000 NA
ATOM     30  C   UNL     1      -6.339  12.387  19.616  0.00  0.00    +0.000 C 
ENDBRANCH  23  30
ENDBRANCH  22  26
ENDBRANCH   1  22
TORSDOF 7
ENDMDL
MODEL 2
REMARK VINA RESULT:      -7.7      1.910      3.012
REMARK  Name = 
REMARK  7 active torsions:
REMARK  status: ('A' for Active; 'I' for Inactive)
REMARK    1  A    between atoms: C_2  and  C_3
REMARK    2  A    between atoms: C_6  and  O_7
REMARK    3  A    between atoms: O_7  and  C_8
REMARK    4  A    between atoms: C_13  and  C_14
REMARK    5  A    between atoms: N_16  and  C_17
REMARK    6  A    between atoms: C_17  and  C_18
REMARK    7  A    between atoms: C_18  and  N_19
REMARK                            x       y       z     vdW  Elec       q    Type
REMARK                         _______ _______ _______ _____ _____    ______ ____
ROOT
ATOM      1  C   UNL     1      -0.154  11.059  20.251  0.00  0.00    +0.000 A 
ATOM      2  C   UNL     1      -0.180  10.133  21.289  0.00  0.00    +0.000 A 
ATOM      3  C   UNL     1       0.568   8.953  21.196  0.00  0.00    +0.000 A 
ATOM      4  C   UNL     1       1.292   8.626  20.059  0.00  0.00    +0.000 A 
ATOM      5  N   UNL     1       2.011   7.485  20.036  0.00  0.00    +0.000 NA
ATOM      6  C   UNL     1       2.680   7.191  18.889  0.00  0.00    +0.000 A 
ATOM      7  C   UNL     1       2.632   7.983  17.748  0.00  0.00    +0.000 A 
ATOM      8  C   UNL     1       1.901   9.166  17.792  0.00  0.00    +0.000 A 
ATOM      9  C   UNL     1       1.225   9.523  18.965  0.00  0.00    +0.000 A 
ATOM     10  C   UNL     1       0.507  10.735  19.069  0.00  0.00    +0.000 A 
ENDROOT
BRANCH   6  11
ATOM     11  C   UNL     1       3.510   5.935  18.865  0.00  0.00    +0.000 C 
ATOM     12  O   UNL     1       3.671   5.273  19.889  0.00  0.00    +0.000 OA
ATOM     13  N   UNL     1       4.072   5.585  17.654  0.00  0.00    +0.000 N 
ATOM     14  H   UNL     1       3.885   6.195  16.863  0.00  0.00    +0.000 HD
BRANCH  13  15
ATOM     15  C   UNL     1       4.975   4.450  17.519  0.00  0.00    +0.000 C 
BRANCH  15  16
ATOM     16  C   UNL     1       6.008   4.615  16.380  0.00  0.00    +0.000 C 
BRANCH  16  17
ATOM     17  N   UNL     1       7.288   5.234  16.788  0.00  0.00    +0.000 NA
ATOM     18  C   UNL     1       7.819   4.641  18.029  0.00  0.00    +0.000 C 
ATOM     19  C   UNL     1       7.726   5.719  19.095  0.00  0.00    +0.000 C 
ATOM     20  C   UNL     1       7.916   6.990  18.301  0.00  0.00    +0.000 C 
ATOM     21  C   UNL     1       7.196   6.689  16.996  0.00  0.00    +0.000 C 
ENDBRANCH  16  17
ENDBRANCH  15  16
ENDBRANCH  13  15
ENDBRANCH   6  11
BRANCH   1  22
ATOM     22  O   UNL     1      -0.780  12.289  20.310  0.00  0.00    +0.000 OA
BRANCH  22  26
ATOM     23  C   UNL     1      -4.938  12.294  19.829  0.00  0.00    +0.000 A 
ATOM     24  C   UNL     1      -4.392  12.785  21.015  0.00  0.00    +0.000 A 
ATOM     25  C   UNL     1      -3.007  12.842  21.178  0.00  0.00    +0.000 A 
ATOM     26  C   UNL     1      -2.156  12.339  20.187  0.00  0.00    +0.000 A 
ATOM     27  C   UNL     1      -2.701  11.883  18.983  0.00  0.00    +0.000 A 
ATOM     28  C   UNL     1      -4.093  11.862  18.805  0.00  0.00    +0.000 A 
BRANCH  23  30
ATOM     29  N   UNL     1      -7.518  12.204  19.549  0.00  0.00    +0.000 NA
ATOM     30  C   UNL     1      -6.363  12.231  19.671  0.00  0.00    +0.000 C 
ENDBRANCH  23  30
ENDBRANCH  22  26
ENDBRANCH   1  22
TORSDOF 7
ENDMDL
MODEL 3
REMARK VINA RESULT:      -7.6      1.439      1.959
REMARK  Name = 
REMARK  7 active torsions:
REMARK  status: ('A' for Active; 'I' for Inactive)
REMARK    1  A    between atoms: C_2  and  C_3
REMARK    2  A    between atoms: C_6  and  O_7
REMARK    3  A    between atoms: O_7  and  C_8
REMARK    4  A    between atoms: C_13  and  C_14
REMARK    5  A    between atoms: N_16  and  C_17
REMARK    6  A    between atoms: C_17  and  C_18
REMARK    7  A    between atoms: C_18  and  N_19
REMARK                            x       y       z     vdW  Elec       q    Type
REMARK                         _______ _______ _______ _____ _____    ______ ____
ROOT
ATOM      1  C   UNL     1      -0.238  10.994  21.928  0.00  0.00    +0.000 A 
ATOM      2  C   UNL     1      -0.068   9.758  22.544  0.00  0.00    +0.000 A 
ATOM      3  C   UNL     1       0.626   8.735  21.887  0.00  0.00    +0.000 A 
ATOM      4  C   UNL     1       1.098   8.879  20.591  0.00  0.00    +0.000 A 
ATOM      5  N   UNL     1       1.779   7.866  20.017  0.00  0.00    +0.000 NA
ATOM      6  C   UNL     1       2.195   8.041  18.734  0.00  0.00    +0.000 A 
ATOM      7  C   UNL     1       1.930   9.184  17.990  0.00  0.00    +0.000 A 
ATOM      8  C   UNL     1       1.242  10.228  18.601  0.00  0.00    +0.000 A 
ATOM      9  C   UNL     1       0.825  10.102  19.930  0.00  0.00    +0.000 A 
ATOM     10  C   UNL     1       0.163  11.152  20.604  0.00  0.00    +0.000 A 
ENDROOT
BRANCH   6  11
ATOM     11  C   UNL     1       2.983   6.927  18.096  0.00  0.00    +0.000 C 
ATOM     12  O   UNL     1       3.942   7.176  17.368  0.00  0.00    +0.000 OA
ATOM     13  N   UNL     1       2.566   5.639  18.366  0.00  0.00    +0.000 N 
ATOM     14  H   UNL     1       1.762   5.531  18.977  0.00  0.00    +0.000 HD
BRANCH  13  15
ATOM     15  C   UNL     1       3.179   4.479  17.735  0.00  0.00    +0.000 C 
BRANCH  15  16
ATOM     16  C   UNL     1       3.964   3.582  18.721  0.00  0.00    +0.000 C 
BRANCH  16  17
ATOM     17  N   UNL     1       3.142   2.588  19.446  0.00  0.00    +0.000 NA
ATOM     18  C   UNL     1       1.851   2.344  18.777  0.00  0.00    +0.000 C 
ATOM     19  C   UNL     1       0.778   2.910  19.693  0.00  0.00    +0.000 C 
ATOM     20  C   UNL     1       1.374   2.709  21.067  0.00  0.00    +0.000 C 
ATOM     21  C   UNL     1       2.855   2.969  20.840  0.00  0.00    +0.000 C 
ENDBRANCH  16  17
ENDBRANCH  15  16
ENDBRANCH  13  15
ENDBRANCH   6  11
BRANCH   1  22
ATOM     22  O   UNL     1      -0.820  12.083  22.549  0.00  0.00    +0.000 OA
BRANCH  22  26
ATOM     23  C   UNL     1      -4.887  12.927  22.033  0.00  0.00    +0.000 A 
ATOM     24  C   UNL     1      -4.058  12.868  20.912  0.00  0.00    +0.000 A 
ATOM     25  C   UNL     1      -2.710  12.538  21.054  0.00  0.00    +0.000 A 
ATOM     26  C   UNL     1      -2.160  12.336  22.325  0.00  0.00    +0.000 A 
ATOM     27  C   UNL     1      -2.996  12.355  23.444  0.00  0.00    +0.000 A 
ATOM     28  C   UNL     1      -4.360  12.651  23.297  0.00  0.00    +0.000 A 
BRANCH  23  30
ATOM     29  N   UNL     1      -7.390  13.547  21.736  0.00  0.00    +0.000 NA
ATOM     30  C   UNL     1      -6.270  13.275  21.881  0.00  0.00    +0.000 C 
ENDBRANCH  23  30
ENDBRANCH  22  26
ENDBRANCH   1  22
TORSDOF 7
ENDMDL
MODEL 4
REMARK VINA RESULT:      -7.4      2.008      2.556
REMARK  Name = 
REMARK  7 active torsions:
REMARK  status: ('A' for Active; 'I' for Inactive)
REMARK    1  A    between atoms: C_2  and  C_3
REMARK    2  A    between atoms: C_6  and  O_7
REMARK    3  A    between atoms: O_7  and  C_8
REMARK    4  A    between atoms: C_13  and  C_14
REMARK    5  A    between atoms: N_16  and  C_17
REMARK    6  A    between atoms: C_17  and  C_18
REMARK    7  A    between atoms: C_18  and  N_19
REMARK                            x       y       z     vdW  Elec       q    Type
REMARK                         _______ _______ _______ _____ _____    ______ ____
ROOT
ATOM      1  C   UNL     1      -0.017  11.154  19.836  0.00  0.00    +0.000 A 
ATOM      2  C   UNL     1      -0.177  10.281  20.908  0.00  0.00    +0.000 A 
ATOM      3  C   UNL     1       0.507   9.060  20.929  0.00  0.00    +0.000 A 
ATOM      4  C   UNL     1       1.298   8.640  19.869  0.00  0.00    +0.000 A 
ATOM      5  N   UNL     1       1.951   7.463  19.955  0.00  0.00    +0.000 NA
ATOM      6  C   UNL     1       2.688   7.078  18.879  0.00  0.00    +0.000 A 
ATOM      7  C   UNL     1       2.775   7.814  17.704  0.00  0.00    +0.000 A 
ATOM      8  C   UNL     1       2.111   9.035  17.637  0.00  0.00    +0.000 A 
ATOM      9  C   UNL     1       1.368   9.485  18.734  0.00  0.00    +0.000 A 
ATOM     10  C   UNL     1       0.714  10.736  18.726  0.00  0.00    +0.000 A 
ENDROOT
BRANCH   6  11
ATOM     11  C   UNL     1       3.445   5.780  18.979  0.00  0.00    +0.000 C 
ATOM     12  O   UNL     1       4.289   5.613  19.858  0.00  0.00    +0.000 OA
ATOM     13  N   UNL     1       3.145   4.813  18.039  0.00  0.00    +0.000 N 
ATOM     14  H   UNL     1       2.435   5.041  17.350  0.00  0.00    +0.000 HD
BRANCH  13  15
ATOM     15  C   UNL     1       3.873   3.554  17.965  0.00  0.00    +0.000 C 
BRANCH  15  16
ATOM     16  C   UNL     1       2.955   2.316  17.835  0.00  0.00    +0.000 C 
BRANCH  16  17
ATOM     17  N   UNL     1       2.253   1.930  19.079  0.00  0.00    +0.000 NA
ATOM     18  C   UNL     1       0.872   2.445  19.118  0.00  0.00    +0.000 C 
ATOM     19  C   UNL     1       0.835   3.496  20.214  0.00  0.00    +0.000 C 
ATOM     20  C   UNL     1       1.860   2.986  21.200  0.00  0.00    +0.000 C 
ATOM     21  C   UNL     1       2.933   2.390  20.302  0.00  0.00    +0.000 C 
ENDBRANCH  16  17
ENDBRANCH  15  16
ENDBRANCH  13  15
ENDBRANCH   6  11
BRANCH   1  22
ATOM     22  O   UNL     1      -0.576  12.416  19.789  0.00  0.00    +0.000 OA
BRANCH  22  26
ATOM     23  C   UNL     1      -2.034  14.032  23.365  0.00  0.00    +0.000 A 
ATOM     24  C   UNL     1      -0.677  14.157  23.067  0.00  0.00    +0.000 A 
ATOM     25  C   UNL     1      -0.176  13.672  21.858  0.00  0.00    +0.000 A 
ATOM     26  C   UNL     1      -1.015  12.991  20.967  0.00  0.00    +0.000 A 
ATOM     27  C   UNL     1      -2.381  12.901  21.245  0.00  0.00    +0.000 A 
ATOM     28  C   UNL     1      -2.890  13.422  22.445  0.00  0.00    +0.000 A 
BRANCH  23  30
ATOM     29  N   UNL     1      -2.949  14.902  25.634  0.00  0.00    +0.000 NA
ATOM     30  C   UNL     1      -2.540  14.525  24.613  0.00  0.00    +0.000 C 
ENDBRANCH  23  30
ENDBRANCH  22  26
ENDBRANCH   1  22
TORSDOF 7
ENDMDL
MODEL 5
REMARK VINA RESULT:      -7.3      2.690     10.247
REMARK  Name = 
REMARK  7 active torsions:
REMARK  status: ('A' for Active; 'I' for Inactive)
REMARK    1  A    between atoms: C_2  and  C_3
REMARK    2  A    between atoms: C_6  and  O_7
REMARK    3  A    between atoms: O_7  and  C_8
REMARK    4  A    between atoms: C_13  and  C_14
REMARK    5  A    between atoms: N_16  and  C_17
REMARK    6  A    between atoms: C_17  and  C_18
REMARK    7  A    between atoms: C_18  and  N_19
REMARK                            x       y       z     vdW  Elec       q    Type
REMARK                         _______ _______ _______ _____ _____    ______ ____
ROOT
ATOM      1  C   UNL     1       2.533   7.315  19.225  0.00  0.00    +0.000 A 
ATOM      2  C   UNL     1       2.251   7.986  18.039  0.00  0.00    +0.000 A 
ATOM      3  C   UNL     1       1.421   9.113  18.049  0.00  0.00    +0.000 A 
ATOM      4  C   UNL     1       0.795   9.558  19.204  0.00  0.00    +0.000 A 
ATOM      5  N   UNL     1       0.024  10.663  19.157  0.00  0.00    +0.000 NA
ATOM      6  C   UNL     1      -0.595  11.042  20.307  0.00  0.00    +0.000 A 
ATOM      7  C   UNL     1      -0.495  10.338  21.501  0.00  0.00    +0.000 A 
ATOM      8  C   UNL     1       0.319   9.210  21.540  0.00  0.00    +0.000 A 
ATOM      9  C   UNL     1       1.000   8.804  20.387  0.00  0.00    +0.000 A 
ATOM     10  C   UNL     1       1.870   7.692  20.390  0.00  0.00    +0.000 A 
ENDROOT
BRANCH   6  11
ATOM     11  C   UNL     1      -1.434  12.293  20.271  0.00  0.00    +0.000 C 
ATOM     12  O   UNL     1      -1.365  13.064  19.315  0.00  0.00    +0.000 OA
ATOM     13  N   UNL     1      -2.258  12.518  21.354  0.00  0.00    +0.000 N 
ATOM     14  H   UNL     1      -2.247  11.827  22.098  0.00  0.00    +0.000 HD
BRANCH  13  15
ATOM     15  C   UNL     1      -3.045  13.737  21.487  0.00  0.00    +0.000 C 
BRANCH  15  16
ATOM     16  C   UNL     1      -3.931  13.765  22.755  0.00  0.00    +0.000 C 
BRANCH  16  17
ATOM     17  N   UNL     1      -4.931  12.677  22.838  0.00  0.00    +0.000 NA
ATOM     18  C   UNL     1      -5.875  12.705  21.706  0.00  0.00    +0.000 C 
ATOM     19  C   UNL     1      -7.227  13.088  22.282  0.00  0.00    +0.000 C 
ATOM     20  C   UNL     1      -7.176  12.498  23.672  0.00  0.00    +0.000 C 
ATOM     21  C   UNL     1      -5.724  12.704  24.078  0.00  0.00    +0.000 C 
ENDBRANCH  16  17
ENDBRANCH  15  16
ENDBRANCH  13  15
ENDBRANCH   6  11
BRANCH   1  22
ATOM     22  O   UNL     1       3.421   6.260  19.313  0.00  0.00    +0.000 OA
BRANCH  22  26
ATOM     23  C   UNL     1       5.205   4.797  15.821  0.00  0.00    +0.000 A 
ATOM     24  C   UNL     1       4.225   4.032  16.454  0.00  0.00    +0.000 A 
ATOM     25  C   UNL     1       3.579   4.522  17.590  0.00  0.00    +0.000 A 
ATOM     26  C   UNL     1       3.960   5.748  18.148  0.00  0.00    +0.000 A 
ATOM     27  C   UNL     1       4.912   6.533  17.493  0.00  0.00    +0.000 A 
ATOM     28  C   UNL     1       5.535   6.056  16.328  0.00  0.00    +0.000 A 
BRANCH  23  30
ATOM     29  N   UNL     1       6.432   3.878  13.725  0.00  0.00    +0.000 NA
ATOM     30  C   UNL     1       5.871   4.285  14.658  0.00  0.00    +0.000 C 
ENDBRANCH  23  30
ENDBRANCH  22  26
ENDBRANCH   1  22
TORSDOF 7
ENDMDL
MODEL 6
REMARK VINA RESULT:      -7.2      2.217      3.451
REMARK  Name = 
REMARK  7 active torsions:
REMARK  status: ('A' for Active; 'I' for Inactive)
REMARK    1  A    between atoms: C_2  and  C_3
REMARK    2  A    between atoms: C_6  and  O_7
REMARK    3  A    between atoms: O_7  and  C_8
REMARK    4  A    between atoms: C_13  and  C_14
REMARK    5  A    between atoms: N_16  and  C_17
REMARK    6  A    between atoms: C_17  and  C_18
REMARK    7  A    between atoms: C_18  and  N_19
REMARK                            x       y       z     vdW  Elec       q    Type
REMARK                         _______ _______ _______ _____ _____    ______ ____
ROOT
ATOM      1  C   UNL     1      -0.122  11.071  21.116  0.00  0.00    +0.000 A 
ATOM      2  C   UNL     1      -0.183  10.092  22.104  0.00  0.00    +0.000 A 
ATOM      3  C   UNL     1       0.452   8.860  21.913  0.00  0.00    +0.000 A 
ATOM      4  C   UNL     1       1.093   8.536  20.726  0.00  0.00    +0.000 A 
ATOM      5  N   UNL     1       1.706   7.341  20.607  0.00  0.00    +0.000 NA
ATOM      6  C   UNL     1       2.294   7.056  19.414  0.00  0.00    +0.000 A 
ATOM      7  C   UNL     1       2.266   7.912  18.321  0.00  0.00    +0.000 A 
ATOM      8  C   UNL     1       1.645   9.149  18.463  0.00  0.00    +0.000 A 
ATOM      9  C   UNL     1       1.057   9.496  19.684  0.00  0.00    +0.000 A 
ATOM     10  C   UNL     1       0.454  10.757  19.887  0.00  0.00    +0.000 A 
ENDROOT
BRANCH   6  11
ATOM     11  C   UNL     1       3.008   5.736  19.284  0.00  0.00    +0.000 C 
ATOM     12  O   UNL     1       2.400   4.678  19.440  0.00  0.00    +0.000 OA
ATOM     13  N   UNL     1       4.356   5.787  18.994  0.00  0.00    +0.000 N 
ATOM     14  H   UNL     1       4.773   6.707  18.885  0.00  0.00    +0.000 HD
BRANCH  13  15
ATOM     15  C   UNL     1       5.181   4.588  18.939  0.00  0.00    +0.000 C 
BRANCH  15  16
ATOM     16  C   UNL     1       6.629   4.855  18.465  0.00  0.00    +0.000 C 
BRANCH  16  17
ATOM     17  N   UNL     1       6.831   4.758  17.003  0.00  0.00    +0.000 NA
ATOM     18  C   UNL     1       6.690   6.066  16.336  0.00  0.00    +0.000 C 
ATOM     19  C   UNL     1       5.428   5.986  15.495  0.00  0.00    +0.000 C 
ATOM     20  C   UNL     1       5.379   4.528  15.102  0.00  0.00    +0.000 C 
ATOM     21  C   UNL     1       5.903   3.822  16.344  0.00  0.00    +0.000 C 
ENDBRANCH  16  17
ENDBRANCH  15  16
ENDBRANCH  13  15
ENDBRANCH   6  11
BRANCH   1  22
ATOM     22  O   UNL     1      -0.634  12.344  21.270  0.00  0.00    +0.000 OA
BRANCH  22  26
ATOM     23  C   UNL     1      -4.471  12.851  22.864  0.00  0.00    +0.000 A 
ATOM     24  C   UNL     1      -4.303  12.873  21.479  0.00  0.00    +0.000 A 
ATOM     25  C   UNL     1      -3.042  12.654  20.922  0.00  0.00    +0.000 A 
ATOM     26  C   UNL     1      -1.923  12.487  21.747  0.00  0.00    +0.000 A 
ATOM     27  C   UNL     1      -2.096  12.426  23.133  0.00  0.00    +0.000 A 
ATOM     28  C   UNL     1      -3.371  12.608  23.690  0.00  0.00    +0.000 A 
BRANCH  23  30
ATOM     29  N   UNL     1      -6.811  13.265  23.910  0.00  0.00    +0.000 NA
ATOM     30  C   UNL     1      -5.768  13.085  23.430  0.00  0.00    +0.000 C 
ENDBRANCH  23  30
ENDBRANCH  22  26
ENDBRANCH   1  22
TORSDOF 7
ENDMDL
MODEL 7
REMARK VINA RESULT:      -7.2      2.069      3.316
REMARK  Name = 
REMARK  7 active torsions:
REMARK  status: ('A' for Active; 'I' for Inactive)
REMARK    1  A    between atoms: C_2  and  C_3
REMARK    2  A    between atoms: C_6  and  O_7
REMARK    3  A    between atoms: O_7  and  C_8
REMARK    4  A    between atoms: C_13  and  C_14
REMARK    5  A    between atoms: N_16  and  C_17
REMARK    6  A    between atoms: C_17  and  C_18
REMARK    7  A    between atoms: C_18  and  N_19
REMARK                            x       y       z     vdW  Elec       q    Type
REMARK                         _______ _______ _______ _____ _____    ______ ____
ROOT
ATOM      1  C   UNL     1       0.145  11.014  21.038  0.00  0.00    +0.000 A 
ATOM      2  C   UNL     1       0.105  10.018  22.008  0.00  0.00    +0.000 A 
ATOM      3  C   UNL     1       0.704   8.776  21.765  0.00  0.00    +0.000 A 
ATOM      4  C   UNL     1       1.285   8.463  20.545  0.00  0.00    +0.000 A 
ATOM      5  N   UNL     1       1.867   7.259  20.377  0.00  0.00    +0.000 NA
ATOM      6  C   UNL     1       2.396   6.985  19.154  0.00  0.00    +0.000 A 
ATOM      7  C   UNL     1       2.339   7.864  18.079  0.00  0.00    +0.000 A 
ATOM      8  C   UNL     1       1.753   9.111  18.272  0.00  0.00    +0.000 A 
ATOM      9  C   UNL     1       1.225   9.445  19.525  0.00  0.00    +0.000 A 
ATOM     10  C   UNL     1       0.660  10.714  19.779  0.00  0.00    +0.000 A 
ENDROOT
BRANCH   6  11
ATOM     11  C   UNL     1       3.074   5.654  18.967  0.00  0.00    +0.000 C 
ATOM     12  O   UNL     1       3.501   5.028  19.936  0.00  0.00    +0.000 OA
ATOM     13  N   UNL     1       3.192   5.194  17.671  0.00  0.00    +0.000 N 
ATOM     14  H   UNL     1       2.811   5.781  16.935  0.00  0.00    +0.000 HD
BRANCH  13  15
ATOM     15  C   UNL     1       3.912   3.971  17.346  0.00  0.00    +0.000 C 
BRANCH  15  16
ATOM     16  C   UNL     1       5.406   4.202  17.019  0.00  0.00    +0.000 C 
BRANCH  16  17
ATOM     17  N   UNL     1       5.658   4.998  15.798  0.00  0.00    +0.000 NA
ATOM     18  C   UNL     1       5.060   4.380  14.601  0.00  0.00    +0.000 C 
ATOM     19  C   UNL     1       6.217   3.916  13.732  0.00  0.00    +0.000 C 
ATOM     20  C   UNL     1       7.292   4.932  14.038  0.00  0.00    +0.000 C 
ATOM     21  C   UNL     1       7.090   5.208  15.520  0.00  0.00    +0.000 C 
ENDBRANCH  16  17
ENDBRANCH  15  16
ENDBRANCH  13  15
ENDBRANCH   6  11
BRANCH   1  22
ATOM     22  O   UNL     1      -0.332  12.295  21.239  0.00  0.00    +0.000 OA
BRANCH  22  26
ATOM     23  C   UNL     1      -4.476  12.763  21.592  0.00  0.00    +0.000 A 
ATOM     24  C   UNL     1      -3.703  12.666  22.749  0.00  0.00    +0.000 A 
ATOM     25  C   UNL     1      -2.315  12.562  22.658  0.00  0.00    +0.000 A 
ATOM     26  C   UNL     1      -1.692  12.478  21.407  0.00  0.00    +0.000 A 
ATOM     27  C   UNL     1      -2.460  12.614  20.248  0.00  0.00    +0.000 A 
ATOM     28  C   UNL     1      -3.854  12.757  20.342  0.00  0.00    +0.000 A 
BRANCH  23  30
ATOM     29  N   UNL     1      -7.060  12.922  21.791  0.00  0.00    +0.000 NA
ATOM     30  C   UNL     1      -5.904  12.861  21.693  0.00  0.00    +0.000 C 
ENDBRANCH  23  30
ENDBRANCH  22  26
ENDBRANCH   1  22
TORSDOF 7
ENDMDL
MODEL 8
REMARK VINA RESULT:      -7.2      1.811      3.035
REMARK  Name = 
REMARK  7 active torsions:
REMARK  status: ('A' for Active; 'I' for Inactive)
REMARK    1  A    between atoms: C_2  and  C_3
REMARK    2  A    between atoms: C_6  and  O_7
REMARK    3  A    between atoms: O_7  and  C_8
REMARK    4  A    between atoms: C_13  and  C_14
REMARK    5  A    between atoms: N_16  and  C_17
REMARK    6  A    between atoms: C_17  and  C_18
REMARK    7  A    between atoms: C_18  and  N_19
REMARK                            x       y       z     vdW  Elec       q    Type
REMARK                         _______ _______ _______ _____ _____    ______ ____
ROOT
ATOM      1  C   UNL     1      -0.320  11.156  19.983  0.00  0.00    +0.000 A 
ATOM      2  C   UNL     1      -0.422  10.404  21.150  0.00  0.00    +0.000 A 
ATOM      3  C   UNL     1       0.298   9.211  21.282  0.00  0.00    +0.000 A 
ATOM      4  C   UNL     1       1.069   8.696  20.249  0.00  0.00    +0.000 A 
ATOM      5  N   UNL     1       1.758   7.554  20.442  0.00  0.00    +0.000 NA
ATOM      6  C   UNL     1       2.475   7.071  19.392  0.00  0.00    +0.000 A 
ATOM      7  C   UNL     1       2.504   7.675  18.141  0.00  0.00    +0.000 A 
ATOM      8  C   UNL     1       1.803   8.863  17.961  0.00  0.00    +0.000 A 
ATOM      9  C   UNL     1       1.080   9.412  19.026  0.00  0.00    +0.000 A 
ATOM     10  C   UNL     1       0.390  10.638  18.903  0.00  0.00    +0.000 A 
ENDROOT
BRANCH   6  11
ATOM     11  C   UNL     1       3.272   5.812  19.608  0.00  0.00    +0.000 C 
ATOM     12  O   UNL     1       2.893   4.962  20.413  0.00  0.00    +0.000 OA
ATOM     13  N   UNL     1       4.431   5.677  18.870  0.00  0.00    +0.000 N 
ATOM     14  H   UNL     1       4.664   6.431  18.231  0.00  0.00    +0.000 HD
BRANCH  13  15
ATOM     15  C   UNL     1       5.340   4.555  19.057  0.00  0.00    +0.000 C 
BRANCH  15  16
ATOM     16  C   UNL     1       6.360   4.389  17.907  0.00  0.00    +0.000 C 
BRANCH  16  17
ATOM     17  N   UNL     1       5.948   4.990  16.619  0.00  0.00    +0.000 NA
ATOM     18  C   UNL     1       5.221   4.031  15.767  0.00  0.00    +0.000 C 
ATOM     19  C   UNL     1       6.122   3.742  14.579  0.00  0.00    +0.000 C 
ATOM     20  C   UNL     1       6.867   5.044  14.401  0.00  0.00    +0.000 C 
ATOM     21  C   UNL     1       7.075   5.518  15.831  0.00  0.00    +0.000 C 
ENDBRANCH  16  17
ENDBRANCH  15  16
ENDBRANCH  13  15
ENDBRANCH   6  11
BRANCH   1  22
ATOM     22  O   UNL     1      -0.917  12.391  19.817  0.00  0.00    +0.000 OA
BRANCH  22  26
ATOM     23  C   UNL     1      -5.076  12.564  20.253  0.00  0.00    +0.000 A 
ATOM     24  C   UNL     1      -4.266  13.057  21.276  0.00  0.00    +0.000 A 
ATOM     25  C   UNL     1      -2.877  13.058  21.132  0.00  0.00    +0.000 A 
ATOM     26  C   UNL     1      -2.283  12.497  19.995  0.00  0.00    +0.000 A 
ATOM     27  C   UNL     1      -3.094  12.039  18.953  0.00  0.00    +0.000 A 
ATOM     28  C   UNL     1      -4.491  12.073  19.083  0.00  0.00    +0.000 A 
BRANCH  23  30
ATOM     29  N   UNL     1      -7.654  12.539  20.559  0.00  0.00    +0.000 NA
ATOM     30  C   UNL     1      -6.502  12.558  20.411  0.00  0.00    +0.000 C 
ENDBRANCH  23  30
ENDBRANCH  22  26
ENDBRANCH   1  22
TORSDOF 7
ENDMDL
MODEL 9
REMARK VINA RESULT:      -7.2      2.641     10.041
REMARK  Name = 
REMARK  7 active torsions:
REMARK  status: ('A' for Active; 'I' for Inactive)
REMARK    1  A    between atoms: C_2  and  C_3
REMARK    2  A    between atoms: C_6  and  O_7
REMARK    3  A    between atoms: O_7  and  C_8
REMARK    4  A    between atoms: C_13  and  C_14
REMARK    5  A    between atoms: N_16  and  C_17
REMARK    6  A    between atoms: C_17  and  C_18
REMARK    7  A    between atoms: C_18  and  N_19
REMARK                            x       y       z     vdW  Elec       q    Type
REMARK                         _______ _______ _______ _____ _____    ______ ____
ROOT
ATOM      1  C   UNL     1       0.959   9.947  18.716  0.00  0.00    +0.000 A 
ATOM      2  C   UNL     1       0.729  10.985  19.614  0.00  0.00    +0.000 A 
ATOM      3  C   UNL     1      -0.541  11.565  19.707  0.00  0.00    +0.000 A 
ATOM      4  C   UNL     1      -1.585  11.193  18.872  0.00  0.00    +0.000 A 
ATOM      5  N   UNL     1      -2.794  11.772  19.023  0.00  0.00    +0.000 NA
ATOM      6  C   UNL     1      -3.778  11.398  18.161  0.00  0.00    +0.000 A 
ATOM      7  C   UNL     1      -3.590  10.484  17.132  0.00  0.00    +0.000 A 
ATOM      8  C   UNL     1      -2.343   9.880  17.000  0.00  0.00    +0.000 A 
ATOM      9  C   UNL     1      -1.312  10.213  17.886  0.00  0.00    +0.000 A 
ATOM     10  C   UNL     1      -0.045   9.594  17.817  0.00  0.00    +0.000 A 
ENDROOT
BRANCH   6  11
ATOM     11  C   UNL     1      -5.138  12.017  18.342  0.00  0.00    +0.000 C 
ATOM     12  O   UNL     1      -6.114  11.570  17.742  0.00  0.00    +0.000 OA
ATOM     13  N   UNL     1      -5.219  13.098  19.198  0.00  0.00    +0.000 N 
ATOM     14  H   UNL     1      -4.359  13.398  19.648  0.00  0.00    +0.000 HD
BRANCH  13  15
ATOM     15  C   UNL     1      -6.454  13.847  19.384  0.00  0.00    +0.000 C 
BRANCH  15  16
ATOM     16  C   UNL     1      -7.279  13.383  20.607  0.00  0.00    +0.000 C 
BRANCH  16  17
ATOM     17  N   UNL     1      -6.832  13.938  21.904  0.00  0.00    +0.000 NA
ATOM     18  C   UNL     1      -6.212  12.912  22.762  0.00  0.00    +0.000 C 
ATOM     19  C   UNL     1      -7.156  12.704  23.934  0.00  0.00    +0.000 C 
ATOM     20  C   UNL     1      -7.778  14.070  24.108  0.00  0.00    +0.000 C 
ATOM     21  C   UNL     1      -7.917  14.567  22.677  0.00  0.00    +0.000 C 
ENDBRANCH  16  17
ENDBRANCH  15  16
ENDBRANCH  13  15
ENDBRANCH   6  11
BRANCH   1  22
ATOM     22  O   UNL     1       2.153   9.256  18.637  0.00  0.00    +0.000 OA
BRANCH  22  26
ATOM     23  C   UNL     1       2.047   5.206  19.689  0.00  0.00    +0.000 A 
ATOM     24  C   UNL     1       2.414   5.561  18.390  0.00  0.00    +0.000 A 
ATOM     25  C   UNL     1       2.507   6.906  18.030  0.00  0.00    +0.000 A 
ATOM     26  C   UNL     1       2.161   7.909  18.944  0.00  0.00    +0.000 A 
ATOM     27  C   UNL     1       1.831   7.557  20.256  0.00  0.00    +0.000 A 
ATOM     28  C   UNL     1       1.774   6.204  20.627  0.00  0.00    +0.000 A 
BRANCH  23  30
ATOM     29  N   UNL     1       1.853   2.707  20.363  0.00  0.00    +0.000 NA
ATOM     30  C   UNL     1       1.945   3.822  20.049  0.00  0.00    +0.000 C 
ENDBRANCH  23  30
ENDBRANCH  22  26
ENDBRANCH   1  22
TORSDOF 7
ENDMDL
