MODEL 1
REMARK VINA RESULT:      -7.2      0.000      0.000
REMARK  Name = 
REMARK  4 active torsions:
REMARK  status: ('A' for Active; 'I' for Inactive)
REMARK    1  A    between atoms: C_1  and  N_2
REMARK    2  A    between atoms: N_5  and  S_6
REMARK    3  A    between atoms: S_6  and  C_9
REMARK    4  A    between atoms: N_15  and  C_16
REMARK                            x       y       z     vdW  Elec       q    Type
REMARK                         _______ _______ _______ _____ _____    ______ ____
ROOT
ATOM      1  C   UNL     1       6.160   3.746  13.052  0.00  0.00    +0.000 C 
ATOM      2  N   UNL     1       6.339   3.878  14.476  0.00  0.00    +0.000 N 
ATOM      3  C   UNL     1       5.574   3.133  15.432  0.00  0.00    +0.000 C 
ATOM      4  C   UNL     1       5.694   4.058  16.636  0.00  0.00    +0.000 C 
ATOM      5  N   UNL     1       4.831   3.931  17.585  0.00  0.00    +0.000 NA
ATOM      6  N   UNL     1       6.742   4.911  16.414  0.00  0.00    +0.000 N 
ATOM      7  C   UNL     1       7.409   5.851  17.289  0.00  0.00    +0.000 C 
ATOM      8  C   UNL     1       7.059   4.896  15.075  0.00  0.00    +0.000 C 
ATOM      9  O   UNL     1       7.788   5.682  14.490  0.00  0.00    +0.000 OA
ENDROOT
BRANCH   5  10
ATOM     10  S   UNL     1       4.668   4.951  18.819  0.00  0.00    +0.000 S 
ATOM     11  O   UNL     1       5.836   4.872  19.670  0.00  0.00    +0.000 OA
ATOM     12  O   UNL     1       4.197   6.232  18.325  0.00  0.00    +0.000 OA
BRANCH  10  13
ATOM     13  C   UNL     1       3.323   4.247  19.756  0.00  0.00    +0.000 A 
ATOM     14  C   UNL     1       2.087   4.902  19.770  0.00  0.00    +0.000 A 
ATOM     15  C   UNL     1       1.031   4.354  20.498  0.00  0.00    +0.000 A 
ATOM     16  C   UNL     1       1.210   3.162  21.202  0.00  0.00    +0.000 A 
ATOM     17  C   UNL     1       2.444   2.508  21.181  0.00  0.00    +0.000 A 
ATOM     18  C   UNL     1       3.505   3.048  20.454  0.00  0.00    +0.000 A 
ENDBRANCH  10  13
ENDBRANCH   5  10
TORSDOF 2
ENDMDL
MODEL 2
REMARK VINA RESULT:      -7.2      0.214      1.153
REMARK  Name = 
REMARK  4 active torsions:
REMARK  status: ('A' for Active; 'I' for Inactive)
REMARK    1  A    between atoms: C_1  and  N_2
REMARK    2  A    between atoms: N_5  and  S_6
REMARK    3  A    between atoms: S_6  and  C_9
REMARK    4  A    between atoms: N_15  and  C_16
REMARK                            x       y       z     vdW  Elec       q    Type
REMARK                         _______ _______ _______ _____ _____    ______ ____
ROOT
ATOM      1  C   UNL     1       6.124   3.717  12.889  0.00  0.00    +0.000 C 
ATOM      2  N   UNL     1       6.331   3.856  14.308  0.00  0.00    +0.000 N 
ATOM      3  C   UNL     1       5.576   3.125  15.283  0.00  0.00    +0.000 C 
ATOM      4  C   UNL     1       5.728   4.055  16.479  0.00  0.00    +0.000 C 
ATOM      5  N   UNL     1       4.882   3.944  17.445  0.00  0.00    +0.000 NA
ATOM      6  N   UNL     1       6.781   4.896  16.232  0.00  0.00    +0.000 N 
ATOM      7  C   UNL     1       7.474   5.835  17.088  0.00  0.00    +0.000 C 
ATOM      8  C   UNL     1       7.073   4.869  14.887  0.00  0.00    +0.000 C 
ATOM      9  O   UNL     1       7.798   5.644  14.284  0.00  0.00    +0.000 OA
ENDROOT
BRANCH   5  10
ATOM     10  S   UNL     1       4.752   4.972  18.675  0.00  0.00    +0.000 S 
ATOM     11  O   UNL     1       5.911   4.848  19.534  0.00  0.00    +0.000 OA
ATOM     12  O   UNL     1       4.338   6.270  18.175  0.00  0.00    +0.000 OA
BRANCH  10  13
ATOM     13  C   UNL     1       3.374   4.326  19.605  0.00  0.00    +0.000 A 
ATOM     14  C   UNL     1       3.454   3.031  20.128  0.00  0.00    +0.000 A 
ATOM     15  C   UNL     1       2.382   2.521  20.859  0.00  0.00    +0.000 A 
ATOM     16  C   UNL     1       1.242   3.301  21.067  0.00  0.00    +0.000 A 
ATOM     17  C   UNL     1       1.170   4.596  20.549  0.00  0.00    +0.000 A 
ATOM     18  C   UNL     1       2.238   5.114  19.818  0.00  0.00    +0.000 A 
ENDBRANCH  10  13
ENDBRANCH   5  10
TORSDOF 2
ENDMDL
MODEL 3
REMARK VINA RESULT:      -7.1      1.005      1.024
REMARK  Name = 
REMARK  4 active torsions:
REMARK  status: ('A' for Active; 'I' for Inactive)
REMARK    1  A    between atoms: C_1  and  N_2
REMARK    2  A    between atoms: N_5  and  S_6
REMARK    3  A    between atoms: S_6  and  C_9
REMARK    4  A    between atoms: N_15  and  C_16
REMARK                            x       y       z     vdW  Elec       q    Type
REMARK                         _______ _______ _______ _____ _____    ______ ____
ROOT
ATOM      1  C   UNL     1       6.385   3.662  12.614  0.00  0.00    +0.000 C 
ATOM      2  N   UNL     1       6.445   3.891  14.036  0.00  0.00    +0.000 N 
ATOM      3  C   UNL     1       5.585   3.229  14.972  0.00  0.00    +0.000 C 
ATOM      4  C   UNL     1       5.623   4.234  16.114  0.00  0.00    +0.000 C 
ATOM      5  N   UNL     1       4.680   4.189  16.992  0.00  0.00    +0.000 NA
ATOM      6  N   UNL     1       6.706   5.051  15.926  0.00  0.00    +0.000 N 
ATOM      7  C   UNL     1       7.317   6.040  16.788  0.00  0.00    +0.000 C 
ATOM      8  C   UNL     1       7.135   4.936  14.623  0.00  0.00    +0.000 C 
ATOM      9  O   UNL     1       7.928   5.667  14.050  0.00  0.00    +0.000 OA
ENDROOT
BRANCH   5  10
ATOM     10  S   UNL     1       4.436   5.296  18.134  0.00  0.00    +0.000 S 
ATOM     11  O   UNL     1       5.516   5.245  19.097  0.00  0.00    +0.000 OA
ATOM     12  O   UNL     1       4.057   6.552  17.513  0.00  0.00    +0.000 OA
BRANCH  10  13
ATOM     13  C   UNL     1       2.986   4.695  18.983  0.00  0.00    +0.000 A 
ATOM     14  C   UNL     1       2.506   5.400  20.091  0.00  0.00    +0.000 A 
ATOM     15  C   UNL     1       1.372   4.937  20.757  0.00  0.00    +0.000 A 
ATOM     16  C   UNL     1       0.723   3.782  20.315  0.00  0.00    +0.000 A 
ATOM     17  C   UNL     1       1.203   3.085  19.204  0.00  0.00    +0.000 A 
ATOM     18  C   UNL     1       2.336   3.542  18.532  0.00  0.00    +0.000 A 
ENDBRANCH  10  13
ENDBRANCH   5  10
TORSDOF 2
ENDMDL
MODEL 4
REMARK VINA RESULT:      -6.7      2.179      6.433
REMARK  Name = 
REMARK  4 active torsions:
REMARK  status: ('A' for Active; 'I' for Inactive)
REMARK    1  A    between atoms: C_1  and  N_2
REMARK    2  A    between atoms: N_5  and  S_6
REMARK    3  A    between atoms: S_6  and  C_9
REMARK    4  A    between atoms: N_15  and  C_16
REMARK                            x       y       z     vdW  Elec       q    Type
REMARK                         _______ _______ _______ _____ _____    ______ ____
ROOT
ATOM      1  C   UNL     1       1.553   2.042  19.202  0.00  0.00    +0.000 C 
ATOM      2  N   UNL     1       2.311   3.172  18.726  0.00  0.00    +0.000 N 
ATOM      3  C   UNL     1       2.454   3.489  17.335  0.00  0.00    +0.000 C 
ATOM      4  C   UNL     1       3.753   4.280  17.382  0.00  0.00    +0.000 C 
ATOM      5  N   UNL     1       4.418   4.417  16.286  0.00  0.00    +0.000 NA
ATOM      6  N   UNL     1       3.970   4.666  18.677  0.00  0.00    +0.000 N 
ATOM      7  C   UNL     1       4.934   5.580  19.253  0.00  0.00    +0.000 C 
ATOM      8  C   UNL     1       3.181   3.907  19.511  0.00  0.00    +0.000 C 
ATOM      9  O   UNL     1       3.270   3.829  20.727  0.00  0.00    +0.000 OA
ENDROOT
BRANCH   5  10
ATOM     10  S   UNL     1       5.904   5.026  16.184  0.00  0.00    +0.000 S 
ATOM     11  O   UNL     1       5.845   6.469  16.286  0.00  0.00    +0.000 OA
ATOM     12  O   UNL     1       6.797   4.260  17.035  0.00  0.00    +0.000 OA
BRANCH  10  13
ATOM     13  C   UNL     1       6.379   4.667  14.502  0.00  0.00    +0.000 A 
ATOM     14  C   UNL     1       7.476   5.335  13.948  0.00  0.00    +0.000 A 
ATOM     15  C   UNL     1       7.854   5.056  12.635  0.00  0.00    +0.000 A 
ATOM     16  C   UNL     1       7.142   4.116  11.886  0.00  0.00    +0.000 A 
ATOM     17  C   UNL     1       6.052   3.448  12.445  0.00  0.00    +0.000 A 
ATOM     18  C   UNL     1       5.668   3.719  13.758  0.00  0.00    +0.000 A 
ENDBRANCH  10  13
ENDBRANCH   5  10
TORSDOF 2
ENDMDL
MODEL 5
REMARK VINA RESULT:      -6.7      1.866      3.022
REMARK  Name = 
REMARK  4 active torsions:
REMARK  status: ('A' for Active; 'I' for Inactive)
REMARK    1  A    between atoms: C_1  and  N_2
REMARK    2  A    between atoms: N_5  and  S_6
REMARK    3  A    between atoms: S_6  and  C_9
REMARK    4  A    between atoms: N_15  and  C_16
REMARK                            x       y       z     vdW  Elec       q    Type
REMARK                         _______ _______ _______ _____ _____    ______ ____
ROOT
ATOM      1  C   UNL     1       7.631   7.764  17.395  0.00  0.00    +0.000 C 
ATOM      2  N   UNL     1       6.540   6.947  16.926  0.00  0.00    +0.000 N 
ATOM      3  C   UNL     1       5.240   6.957  17.530  0.00  0.00    +0.000 C 
ATOM      4  C   UNL     1       4.751   5.577  17.113  0.00  0.00    +0.000 C 
ATOM      5  N   UNL     1       3.775   5.055  17.774  0.00  0.00    +0.000 NA
ATOM      6  N   UNL     1       5.535   5.142  16.078  0.00  0.00    +0.000 N 
ATOM      7  C   UNL     1       5.403   4.006  15.191  0.00  0.00    +0.000 C 
ATOM      8  C   UNL     1       6.686   5.897  16.037  0.00  0.00    +0.000 C 
ATOM      9  O   UNL     1       7.694   5.655  15.393  0.00  0.00    +0.000 OA
ENDROOT
BRANCH   5  10
ATOM     10  S   UNL     1       3.273   3.533  17.622  0.00  0.00    +0.000 S 
ATOM     11  O   UNL     1       2.202   3.472  16.650  0.00  0.00    +0.000 OA
ATOM     12  O   UNL     1       4.424   2.656  17.511  0.00  0.00    +0.000 OA
BRANCH  10  13
ATOM     13  C   UNL     1       2.526   3.189  19.205  0.00  0.00    +0.000 A 
ATOM     14  C   UNL     1       3.339   2.771  20.264  0.00  0.00    +0.000 A 
ATOM     15  C   UNL     1       2.762   2.503  21.505  0.00  0.00    +0.000 A 
ATOM     16  C   UNL     1       1.385   2.656  21.684  0.00  0.00    +0.000 A 
ATOM     17  C   UNL     1       0.579   3.079  20.625  0.00  0.00    +0.000 A 
ATOM     18  C   UNL     1       1.148   3.350  19.382  0.00  0.00    +0.000 A 
ENDBRANCH  10  13
ENDBRANCH   5  10
TORSDOF 2
ENDMDL
MODEL 6
REMARK VINA RESULT:      -6.6      1.852      2.835
REMARK  Name = 
REMARK  4 active torsions:
REMARK  status: ('A' for Active; 'I' for Inactive)
REMARK    1  A    between atoms: C_1  and  N_2
REMARK    2  A    between atoms: N_5  and  S_6
REMARK    3  A    between atoms: S_6  and  C_9
REMARK    4  A    between atoms: N_15  and  C_16
REMARK                            x       y       z     vdW  Elec       q    Type
REMARK                         _______ _______ _______ _____ _____    ______ ____
ROOT
ATOM      1  C   UNL     1       7.676   7.715  17.411  0.00  0.00    +0.000 C 
ATOM      2  N   UNL     1       6.573   6.912  16.948  0.00  0.00    +0.000 N 
ATOM      3  C   UNL     1       5.279   6.930  17.565  0.00  0.00    +0.000 C 
ATOM      4  C   UNL     1       4.772   5.558  17.143  0.00  0.00    +0.000 C 
ATOM      5  N   UNL     1       3.799   5.040  17.811  0.00  0.00    +0.000 NA
ATOM      6  N   UNL     1       5.541   5.123  16.097  0.00  0.00    +0.000 N 
ATOM      7  C   UNL     1       5.388   3.996  15.202  0.00  0.00    +0.000 C 
ATOM      8  C   UNL     1       6.698   5.868  16.050  0.00  0.00    +0.000 C 
ATOM      9  O   UNL     1       7.697   5.620  15.392  0.00  0.00    +0.000 OA
ENDROOT
BRANCH   5  10
ATOM     10  S   UNL     1       3.280   3.525  17.652  0.00  0.00    +0.000 S 
ATOM     11  O   UNL     1       2.211   3.479  16.677  0.00  0.00    +0.000 OA
ATOM     12  O   UNL     1       4.422   2.635  17.541  0.00  0.00    +0.000 OA
BRANCH  10  13
ATOM     13  C   UNL     1       2.526   3.183  19.232  0.00  0.00    +0.000 A 
ATOM     14  C   UNL     1       1.144   3.344  19.375  0.00  0.00    +0.000 A 
ATOM     15  C   UNL     1       0.547   3.075  20.607  0.00  0.00    +0.000 A 
ATOM     16  C   UNL     1       1.328   2.647  21.683  0.00  0.00    +0.000 A 
ATOM     17  C   UNL     1       2.706   2.482  21.534  0.00  0.00    +0.000 A 
ATOM     18  C   UNL     1       3.310   2.747  20.305  0.00  0.00    +0.000 A 
ENDBRANCH  10  13
ENDBRANCH   5  10
TORSDOF 2
ENDMDL
MODEL 7
REMARK VINA RESULT:      -6.5      2.713      6.245
REMARK  Name = 
REMARK  4 active torsions:
REMARK  status: ('A' for Active; 'I' for Inactive)
REMARK    1  A    between atoms: C_1  and  N_2
REMARK    2  A    between atoms: N_5  and  S_6
REMARK    3  A    between atoms: S_6  and  C_9
REMARK    4  A    between atoms: N_15  and  C_16
REMARK                            x       y       z     vdW  Elec       q    Type
REMARK                         _______ _______ _______ _____ _____    ______ ____
ROOT
ATOM      1  C   UNL     1       1.424   2.501  21.871  0.00  0.00    +0.000 C 
ATOM      2  N   UNL     1       2.153   2.525  20.628  0.00  0.00    +0.000 N 
ATOM      3  C   UNL     1       3.570   2.729  20.556  0.00  0.00    +0.000 C 
ATOM      4  C   UNL     1       3.682   3.272  19.138  0.00  0.00    +0.000 C 
ATOM      5  N   UNL     1       4.744   3.931  18.824  0.00  0.00    +0.000 NA
ATOM      6  N   UNL     1       2.530   2.954  18.469  0.00  0.00    +0.000 N 
ATOM      7  C   UNL     1       2.181   3.056  17.068  0.00  0.00    +0.000 C 
ATOM      8  C   UNL     1       1.558   2.616  19.383  0.00  0.00    +0.000 C 
ATOM      9  O   UNL     1       0.364   2.488  19.162  0.00  0.00    +0.000 OA
ENDROOT
BRANCH   5  10
ATOM     10  S   UNL     1       4.941   4.758  17.458  0.00  0.00    +0.000 S 
ATOM     11  O   UNL     1       5.448   3.875  16.428  0.00  0.00    +0.000 OA
ATOM     12  O   UNL     1       3.767   5.577  17.218  0.00  0.00    +0.000 OA
BRANCH  10  13
ATOM     13  C   UNL     1       6.271   5.881  17.847  0.00  0.00    +0.000 A 
ATOM     14  C   UNL     1       7.171   5.543  18.862  0.00  0.00    +0.000 A 
ATOM     15  C   UNL     1       8.215   6.416  19.169  0.00  0.00    +0.000 A 
ATOM     16  C   UNL     1       8.357   7.613  18.464  0.00  0.00    +0.000 A 
ATOM     17  C   UNL     1       7.459   7.944  17.448  0.00  0.00    +0.000 A 
ATOM     18  C   UNL     1       6.413   7.076  17.133  0.00  0.00    +0.000 A 
ENDBRANCH  10  13
ENDBRANCH   5  10
TORSDOF 2
ENDMDL
MODEL 8
REMARK VINA RESULT:      -6.5      2.179      6.468
REMARK  Name = 
REMARK  4 active torsions:
REMARK  status: ('A' for Active; 'I' for Inactive)
REMARK    1  A    between atoms: C_1  and  N_2
REMARK    2  A    between atoms: N_5  and  S_6
REMARK    3  A    between atoms: S_6  and  C_9
REMARK    4  A    between atoms: N_15  and  C_16
REMARK                            x       y       z     vdW  Elec       q    Type
REMARK                         _______ _______ _______ _____ _____    ______ ____
ROOT
ATOM      1  C   UNL     1       1.547   2.444  18.811  0.00  0.00    +0.000 C 
ATOM      2  N   UNL     1       2.488   3.488  18.491  0.00  0.00    +0.000 N 
ATOM      3  C   UNL     1       2.647   4.019  17.170  0.00  0.00    +0.000 C 
ATOM      4  C   UNL     1       4.072   4.545  17.272  0.00  0.00    +0.000 C 
ATOM      5  N   UNL     1       4.719   4.757  16.178  0.00  0.00    +0.000 NA
ATOM      6  N   UNL     1       4.393   4.647  18.599  0.00  0.00    +0.000 N 
ATOM      7  C   UNL     1       5.525   5.257  19.263  0.00  0.00    +0.000 C 
ATOM      8  C   UNL     1       3.500   3.903  19.337  0.00  0.00    +0.000 C 
ATOM      9  O   UNL     1       3.608   3.593  20.513  0.00  0.00    +0.000 OA
ENDROOT
BRANCH   5  10
ATOM     10  S   UNL     1       6.289   5.100  16.091  0.00  0.00    +0.000 S 
ATOM     11  O   UNL     1       6.485   6.521  16.289  0.00  0.00    +0.000 OA
ATOM     12  O   UNL     1       7.036   4.134  16.875  0.00  0.00    +0.000 OA
BRANCH  10  13
ATOM     13  C   UNL     1       6.684   4.779  14.382  0.00  0.00    +0.000 A 
ATOM     14  C   UNL     1       5.971   3.792  13.693  0.00  0.00    +0.000 A 
ATOM     15  C   UNL     1       6.274   3.538  12.356  0.00  0.00    +0.000 A 
ATOM     16  C   UNL     1       7.278   4.267  11.714  0.00  0.00    +0.000 A 
ATOM     17  C   UNL     1       7.982   5.255  12.404  0.00  0.00    +0.000 A 
ATOM     18  C   UNL     1       7.685   5.516  13.741  0.00  0.00    +0.000 A 
ENDBRANCH  10  13
ENDBRANCH   5  10
TORSDOF 2
ENDMDL
MODEL 9
REMARK VINA RESULT:      -6.2      2.605      6.556
REMARK  Name = 
REMARK  4 active torsions:
REMARK  status: ('A' for Active; 'I' for Inactive)
REMARK    1  A    between atoms: C_1  and  N_2
REMARK    2  A    between atoms: N_5  and  S_6
REMARK    3  A    between atoms: S_6  and  C_9
REMARK    4  A    between atoms: N_15  and  C_16
REMARK                            x       y       z     vdW  Elec       q    Type
REMARK                         _______ _______ _______ _____ _____    ______ ____
ROOT
ATOM      1  C   UNL     1       1.786   7.900  18.310  0.00  0.00    +0.000 C 
ATOM      2  N   UNL     1       3.071   7.248  18.276  0.00  0.00    +0.000 N 
ATOM      3  C   UNL     1       4.046   7.493  17.255  0.00  0.00    +0.000 C 
ATOM      4  C   UNL     1       4.832   6.191  17.330  0.00  0.00    +0.000 C 
ATOM      5  N   UNL     1       5.557   5.863  16.317  0.00  0.00    +0.000 NA
ATOM      6  N   UNL     1       4.545   5.590  18.526  0.00  0.00    +0.000 N 
ATOM      7  C   UNL     1       5.143   4.451  19.190  0.00  0.00    +0.000 C 
ATOM      8  C   UNL     1       3.401   6.149  19.048  0.00  0.00    +0.000 C 
ATOM      9  O   UNL     1       2.740   5.719  19.981  0.00  0.00    +0.000 OA
ENDROOT
BRANCH   5  10
ATOM     10  S   UNL     1       6.277   4.436  16.127  0.00  0.00    +0.000 S 
ATOM     11  O   UNL     1       7.560   4.448  16.799  0.00  0.00    +0.000 OA
ATOM     12  O   UNL     1       5.318   3.376  16.381  0.00  0.00    +0.000 OA
BRANCH  10  13
ATOM     13  C   UNL     1       6.633   4.386  14.380  0.00  0.00    +0.000 A 
ATOM     14  C   UNL     1       7.576   5.275  13.852  0.00  0.00    +0.000 A 
ATOM     15  C   UNL     1       7.861   5.239  12.488  0.00  0.00    +0.000 A 
ATOM     16  C   UNL     1       7.211   4.320  11.660  0.00  0.00    +0.000 A 
ATOM     17  C   UNL     1       6.275   3.431  12.192  0.00  0.00    +0.000 A 
ATOM     18  C   UNL     1       5.985   3.459  13.556  0.00  0.00    +0.000 A 
ENDBRANCH  10  13
ENDBRANCH   5  10
TORSDOF 2
ENDMDL
