MODEL 1
REMARK VINA RESULT:      -8.3      0.000      0.000
REMARK  Name = 
REMARK  9 active torsions:
REMARK  status: ('A' for Active; 'I' for Inactive)
REMARK    1  A    between atoms: C_1  and  C_2
REMARK    2  A    between atoms: C_2  and  C_3
REMARK    3  A    between atoms: C_6  and  C_7
REMARK    4  A    between atoms: C_7  and  N_8
REMARK    5  A    between atoms: C_7  and  C_24
REMARK    6  A    between atoms: C_9  and  C_11
REMARK    7  A    between atoms: N_13  and  C_14
REMARK    8  A    between atoms: C_24  and  C_25
REMARK    9  A    between atoms: C_24  and  C_26
REMARK                            x       y       z     vdW  Elec       q    Type
REMARK                         _______ _______ _______ _____ _____    ______ ____
ROOT
ATOM      1  N   UNL     1       1.096  10.266  18.922  0.00  0.00    +0.000 N 
ATOM      2  C   UNL     1       1.424   9.059  19.501  0.00  0.00    +0.000 C 
ATOM      3  O   UNL     1       1.156   8.683  20.630  0.00  0.00    +0.000 OA
ATOM      4  H   UNL     1       1.343  10.352  17.940  0.00  0.00    +0.000 HD
ENDROOT
BRANCH   2   5
ATOM      5  C   UNL     1       2.207   8.163  18.518  0.00  0.00    +0.000 C 
ATOM      6  O   UNL     1       2.233   8.540  17.347  0.00  0.00    +0.000 OA
ATOM      7  N   UNL     1       2.768   7.024  19.056  0.00  0.00    +0.000 N 
ATOM      8  H   UNL     1       2.731   6.909  20.071  0.00  0.00    +0.000 HD
BRANCH   7   9
ATOM      9  C   UNL     1       3.315   5.934  18.327  0.00  0.00    +0.000 A 
ATOM     10  C   UNL     1       4.362   6.117  17.413  0.00  0.00    +0.000 A 
ATOM     11  C   UNL     1       4.835   5.059  16.636  0.00  0.00    +0.000 A 
ATOM     12  C   UNL     1       4.231   3.819  16.740  0.00  0.00    +0.000 A 
ATOM     13  C   UNL     1       3.164   3.625  17.630  0.00  0.00    +0.000 A 
ATOM     14  C   UNL     1       2.498   2.396  17.660  0.00  0.00    +0.000 A 
ATOM     15  C   UNL     1       1.454   2.200  18.550  0.00  0.00    +0.000 A 
ATOM     16  C   UNL     1       1.134   3.236  19.406  0.00  0.00    +0.000 A 
ATOM     17  N   UNL     1       1.724   4.455  19.377  0.00  0.00    +0.000 NA
ATOM     18  C   UNL     1       2.717   4.668  18.479  0.00  0.00    +0.000 A 
ENDBRANCH   7   9
ENDBRANCH   2   5
BRANCH   1  19
ATOM     19  C   UNL     1       0.286  11.296  19.540  0.00  0.00    +0.000 C 
BRANCH  19  23
ATOM     20  C   UNL     1      -3.736  11.257  17.882  0.00  0.00    +0.000 A 
ATOM     21  C   UNL     1      -3.412  12.076  18.969  0.00  0.00    +0.000 A 
ATOM     22  C   UNL     1      -2.127  12.059  19.514  0.00  0.00    +0.000 A 
ATOM     23  C   UNL     1      -1.130  11.229  18.980  0.00  0.00    +0.000 A 
ATOM     24  C   UNL     1      -1.470  10.381  17.914  0.00  0.00    +0.000 A 
ATOM     25  C   UNL     1      -2.758  10.398  17.369  0.00  0.00    +0.000 A 
BRANCH  20  27
ATOM     26  C   UNL     1      -6.195  11.006  18.215  0.00  0.00    +0.000 C 
ATOM     27  C   UNL     1      -5.090  11.357  17.229  0.00  0.00    +0.000 C 
ENDBRANCH  20  27
ENDBRANCH  19  23
BRANCH  19  28
ATOM     28  C   UNL     1       0.941  12.696  19.335  0.00  0.00    +0.000 C 
ATOM     29  C   UNL     1       1.355  13.348  20.661  0.00  0.00    +0.000 C 
ATOM     30  C   UNL     1       2.179  12.613  18.430  0.00  0.00    +0.000 C 
ENDBRANCH  19  28
ENDBRANCH   1  19
TORSDOF 6
ENDMDL
MODEL 2
REMARK VINA RESULT:      -8.0      1.278      1.487
REMARK  Name = 
REMARK  9 active torsions:
REMARK  status: ('A' for Active; 'I' for Inactive)
REMARK    1  A    between atoms: C_1  and  C_2
REMARK    2  A    between atoms: C_2  and  C_3
REMARK    3  A    between atoms: C_6  and  C_7
REMARK    4  A    between atoms: C_7  and  N_8
REMARK    5  A    between atoms: C_7  and  C_24
REMARK    6  A    between atoms: C_9  and  C_11
REMARK    7  A    between atoms: N_13  and  C_14
REMARK    8  A    between atoms: C_24  and  C_25
REMARK    9  A    between atoms: C_24  and  C_26
REMARK                            x       y       z     vdW  Elec       q    Type
REMARK                         _______ _______ _______ _____ _____    ______ ____
ROOT
ATOM      1  N   UNL     1       0.867   9.726  19.337  0.00  0.00    +0.000 N 
ATOM      2  C   UNL     1       1.255   8.713  20.187  0.00  0.00    +0.000 C 
ATOM      3  O   UNL     1       0.894   8.534  21.338  0.00  0.00    +0.000 OA
ATOM      4  H   UNL     1       1.221   9.649  18.388  0.00  0.00    +0.000 HD
ENDROOT
BRANCH   2   5
ATOM      5  C   UNL     1       2.248   7.754  19.496  0.00  0.00    +0.000 C 
ATOM      6  O   UNL     1       2.600   8.068  18.359  0.00  0.00    +0.000 OA
ATOM      7  N   UNL     1       2.613   6.639  20.220  0.00  0.00    +0.000 N 
ATOM      8  H   UNL     1       2.300   6.579  21.191  0.00  0.00    +0.000 HD
BRANCH   7   9
ATOM      9  C   UNL     1       3.305   5.503  19.719  0.00  0.00    +0.000 A 
ATOM     10  C   UNL     1       4.662   5.569  19.372  0.00  0.00    +0.000 A 
ATOM     11  C   UNL     1       5.314   4.477  18.799  0.00  0.00    +0.000 A 
ATOM     12  C   UNL     1       4.597   3.325  18.529  0.00  0.00    +0.000 A 
ATOM     13  C   UNL     1       3.232   3.251  18.845  0.00  0.00    +0.000 A 
ATOM     14  C   UNL     1       2.494   2.120  18.484  0.00  0.00    +0.000 A 
ATOM     15  C   UNL     1       1.150   2.043  18.809  0.00  0.00    +0.000 A 
ATOM     16  C   UNL     1       0.596   3.091  19.519  0.00  0.00    +0.000 A 
ATOM     17  N   UNL     1       1.265   4.222  19.847  0.00  0.00    +0.000 NA
ATOM     18  C   UNL     1       2.570   4.324  19.494  0.00  0.00    +0.000 A 
ENDBRANCH   7   9
ENDBRANCH   2   5
BRANCH   1  19
ATOM     19  C   UNL     1      -0.124  10.738  19.641  0.00  0.00    +0.000 C 
BRANCH  19  23
ATOM     20  C   UNL     1      -3.254  10.724  16.621  0.00  0.00    +0.000 A 
ATOM     21  C   UNL     1      -3.287  11.627  17.688  0.00  0.00    +0.000 A 
ATOM     22  C   UNL     1      -2.294  11.604  18.670  0.00  0.00    +0.000 A 
ATOM     23  C   UNL     1      -1.239  10.683  18.604  0.00  0.00    +0.000 A 
ATOM     24  C   UNL     1      -1.231   9.754  17.551  0.00  0.00    +0.000 A 
ATOM     25  C   UNL     1      -2.226   9.777  16.568  0.00  0.00    +0.000 A 
BRANCH  20  27
ATOM     26  C   UNL     1      -3.743  10.158  14.241  0.00  0.00    +0.000 C 
ATOM     27  C   UNL     1      -4.265  10.823  15.507  0.00  0.00    +0.000 C 
ENDBRANCH  20  27
ENDBRANCH  19  23
BRANCH  19  28
ATOM     28  C   UNL     1       0.545  12.145  19.721  0.00  0.00    +0.000 C 
ATOM     29  C   UNL     1       0.842  12.570  21.165  0.00  0.00    +0.000 C 
ATOM     30  C   UNL     1       1.857  12.191  18.924  0.00  0.00    +0.000 C 
ENDBRANCH  19  28
ENDBRANCH   1  19
TORSDOF 6
ENDMDL
MODEL 3
REMARK VINA RESULT:      -7.9      0.902      2.514
REMARK  Name = 
REMARK  9 active torsions:
REMARK  status: ('A' for Active; 'I' for Inactive)
REMARK    1  A    between atoms: C_1  and  C_2
REMARK    2  A    between atoms: C_2  and  C_3
REMARK    3  A    between atoms: C_6  and  C_7
REMARK    4  A    between atoms: C_7  and  N_8
REMARK    5  A    between atoms: C_7  and  C_24
REMARK    6  A    between atoms: C_9  and  C_11
REMARK    7  A    between atoms: N_13  and  C_14
REMARK    8  A    between atoms: C_24  and  C_25
REMARK    9  A    between atoms: C_24  and  C_26
REMARK                            x       y       z     vdW  Elec       q    Type
REMARK                         _______ _______ _______ _____ _____    ______ ____
ROOT
ATOM      1  N   UNL     1       1.131  10.197  18.776  0.00  0.00    +0.000 N 
ATOM      2  C   UNL     1       1.526   9.021  19.376  0.00  0.00    +0.000 C 
ATOM      3  O   UNL     1       1.389   8.705  20.547  0.00  0.00    +0.000 OA
ATOM      4  H   UNL     1       1.264  10.230  17.769  0.00  0.00    +0.000 HD
ENDROOT
BRANCH   2   5
ATOM      5  C   UNL     1       2.195   8.071  18.359  0.00  0.00    +0.000 C 
ATOM      6  O   UNL     1       2.263   8.482  17.201  0.00  0.00    +0.000 OA
ATOM      7  N   UNL     1       2.620   6.858  18.855  0.00  0.00    +0.000 N 
ATOM      8  H   UNL     1       2.572   6.714  19.867  0.00  0.00    +0.000 HD
BRANCH   7   9
ATOM      9  C   UNL     1       3.032   5.735  18.088  0.00  0.00    +0.000 A 
ATOM     10  C   UNL     1       2.196   4.622  17.914  0.00  0.00    +0.000 A 
ATOM     11  C   UNL     1       2.639   3.487  17.234  0.00  0.00    +0.000 A 
ATOM     12  C   UNL     1       3.939   3.444  16.763  0.00  0.00    +0.000 A 
ATOM     13  C   UNL     1       4.797   4.537  16.953  0.00  0.00    +0.000 A 
ATOM     14  C   UNL     1       6.135   4.448  16.558  0.00  0.00    +0.000 A 
ATOM     15  C   UNL     1       6.978   5.534  16.732  0.00  0.00    +0.000 A 
ATOM     16  C   UNL     1       6.440   6.688  17.268  0.00  0.00    +0.000 A 
ATOM     17  N   UNL     1       5.162   6.800  17.704  0.00  0.00    +0.000 NA
ATOM     18  C   UNL     1       4.343   5.726  17.576  0.00  0.00    +0.000 A 
ENDBRANCH   7   9
ENDBRANCH   2   5
BRANCH   1  19
ATOM     19  C   UNL     1       0.393  11.260  19.427  0.00  0.00    +0.000 C 
BRANCH  19  23
ATOM     20  C   UNL     1      -3.725  11.123  18.033  0.00  0.00    +0.000 A 
ATOM     21  C   UNL     1      -2.743  10.310  17.458  0.00  0.00    +0.000 A 
ATOM     22  C   UNL     1      -1.417  10.384  17.891  0.00  0.00    +0.000 A 
ATOM     23  C   UNL     1      -1.043  11.265  18.916  0.00  0.00    +0.000 A 
ATOM     24  C   UNL     1      -2.025  12.105  19.463  0.00  0.00    +0.000 A 
ATOM     25  C   UNL     1      -3.353  12.033  19.029  0.00  0.00    +0.000 A 
BRANCH  20  27
ATOM     26  C   UNL     1      -6.077  11.755  18.573  0.00  0.00    +0.000 C 
ATOM     27  C   UNL     1      -5.171  10.964  17.639  0.00  0.00    +0.000 C 
ENDBRANCH  20  27
ENDBRANCH  19  23
BRANCH  19  28
ATOM     28  C   UNL     1       1.107  12.629  19.207  0.00  0.00    +0.000 C 
ATOM     29  C   UNL     1       1.542  13.280  20.526  0.00  0.00    +0.000 C 
ATOM     30  C   UNL     1       2.345  12.481  18.310  0.00  0.00    +0.000 C 
ENDBRANCH  19  28
ENDBRANCH   1  19
TORSDOF 6
ENDMDL
MODEL 4
REMARK VINA RESULT:      -7.8      1.444      2.695
REMARK  Name = 
REMARK  9 active torsions:
REMARK  status: ('A' for Active; 'I' for Inactive)
REMARK    1  A    between atoms: C_1  and  C_2
REMARK    2  A    between atoms: C_2  and  C_3
REMARK    3  A    between atoms: C_6  and  C_7
REMARK    4  A    between atoms: C_7  and  N_8
REMARK    5  A    between atoms: C_7  and  C_24
REMARK    6  A    between atoms: C_9  and  C_11
REMARK    7  A    between atoms: N_13  and  C_14
REMARK    8  A    between atoms: C_24  and  C_25
REMARK    9  A    between atoms: C_24  and  C_26
REMARK                            x       y       z     vdW  Elec       q    Type
REMARK                         _______ _______ _______ _____ _____    ______ ____
ROOT
ATOM      1  N   UNL     1       1.029   9.133  19.425  0.00  0.00    +0.000 N 
ATOM      2  C   UNL     1       1.478   8.339  20.457  0.00  0.00    +0.000 C 
ATOM      3  O   UNL     1       1.591   8.647  21.633  0.00  0.00    +0.000 OA
ATOM      4  H   UNL     1       0.933   8.660  18.531  0.00  0.00    +0.000 HD
ENDROOT
BRANCH   2   5
ATOM      5  C   UNL     1       1.843   6.925  19.956  0.00  0.00    +0.000 C 
ATOM      6  O   UNL     1       1.827   6.032  20.803  0.00  0.00    +0.000 OA
ATOM      7  N   UNL     1       2.171   6.824  18.621  0.00  0.00    +0.000 N 
ATOM      8  H   UNL     1       2.041   7.651  18.035  0.00  0.00    +0.000 HD
BRANCH   7   9
ATOM      9  C   UNL     1       2.770   5.702  17.987  0.00  0.00    +0.000 A 
ATOM     10  C   UNL     1       2.108   4.468  17.907  0.00  0.00    +0.000 A 
ATOM     11  C   UNL     1       2.735   3.348  17.363  0.00  0.00    +0.000 A 
ATOM     12  C   UNL     1       4.048   3.446  16.935  0.00  0.00    +0.000 A 
ATOM     13  C   UNL     1       4.734   4.665  17.033  0.00  0.00    +0.000 A 
ATOM     14  C   UNL     1       6.087   4.733  16.687  0.00  0.00    +0.000 A 
ATOM     15  C   UNL     1       6.759   5.941  16.770  0.00  0.00    +0.000 A 
ATOM     16  C   UNL     1       6.041   7.053  17.167  0.00  0.00    +0.000 A 
ATOM     17  N   UNL     1       4.743   7.021  17.553  0.00  0.00    +0.000 NA
ATOM     18  C   UNL     1       4.090   5.833  17.516  0.00  0.00    +0.000 A 
ENDBRANCH   7   9
ENDBRANCH   2   5
BRANCH   1  19
ATOM     19  C   UNL     1       0.521  10.482  19.568  0.00  0.00    +0.000 C 
BRANCH  19  23
ATOM     20  C   UNL     1      -3.212  10.996  17.394  0.00  0.00    +0.000 A 
ATOM     21  C   UNL     1      -2.996  11.640  18.617  0.00  0.00    +0.000 A 
ATOM     22  C   UNL     1      -1.807  11.444  19.323  0.00  0.00    +0.000 A 
ATOM     23  C   UNL     1      -0.801  10.608  18.819  0.00  0.00    +0.000 A 
ATOM     24  C   UNL     1      -1.038   9.935  17.610  0.00  0.00    +0.000 A 
ATOM     25  C   UNL     1      -2.229  10.130  16.903  0.00  0.00    +0.000 A 
BRANCH  20  27
ATOM     26  C   UNL     1      -5.516  11.950  17.447  0.00  0.00    +0.000 C 
ATOM     27  C   UNL     1      -4.448  11.294  16.584  0.00  0.00    +0.000 C 
ENDBRANCH  20  27
ENDBRANCH  19  23
BRANCH  19  28
ATOM     28  C   UNL     1       1.581  11.516  19.081  0.00  0.00    +0.000 C 
ATOM     29  C   UNL     1       2.378  11.009  17.872  0.00  0.00    +0.000 C 
ATOM     30  C   UNL     1       0.931  12.856  18.704  0.00  0.00    +0.000 C 
ENDBRANCH  19  28
ENDBRANCH   1  19
TORSDOF 6
ENDMDL
MODEL 5
REMARK VINA RESULT:      -7.7      0.442      1.159
REMARK  Name = 
REMARK  9 active torsions:
REMARK  status: ('A' for Active; 'I' for Inactive)
REMARK    1  A    between atoms: C_1  and  C_2
REMARK    2  A    between atoms: C_2  and  C_3
REMARK    3  A    between atoms: C_6  and  C_7
REMARK    4  A    between atoms: C_7  and  N_8
REMARK    5  A    between atoms: C_7  and  C_24
REMARK    6  A    between atoms: C_9  and  C_11
REMARK    7  A    between atoms: N_13  and  C_14
REMARK    8  A    between atoms: C_24  and  C_25
REMARK    9  A    between atoms: C_24  and  C_26
REMARK                            x       y       z     vdW  Elec       q    Type
REMARK                         _______ _______ _______ _____ _____    ______ ____
ROOT
ATOM      1  N   UNL     1       0.856  10.279  19.132  0.00  0.00    +0.000 N 
ATOM      2  C   UNL     1       1.334   9.142  19.745  0.00  0.00    +0.000 C 
ATOM      3  O   UNL     1       1.248   8.845  20.925  0.00  0.00    +0.000 OA
ATOM      4  H   UNL     1       0.959  10.298  18.121  0.00  0.00    +0.000 HD
ENDROOT
BRANCH   2   5
ATOM      5  C   UNL     1       2.029   8.210  18.729  0.00  0.00    +0.000 C 
ATOM      6  O   UNL     1       1.916   8.523  17.544  0.00  0.00    +0.000 OA
ATOM      7  N   UNL     1       2.678   7.116  19.260  0.00  0.00    +0.000 N 
ATOM      8  H   UNL     1       2.756   7.056  20.278  0.00  0.00    +0.000 HD
BRANCH   7   9
ATOM      9  C   UNL     1       3.172   5.999  18.533  0.00  0.00    +0.000 A 
ATOM     10  C   UNL     1       4.209   6.136  17.599  0.00  0.00    +0.000 A 
ATOM     11  C   UNL     1       4.630   5.054  16.825  0.00  0.00    +0.000 A 
ATOM     12  C   UNL     1       3.982   3.838  16.951  0.00  0.00    +0.000 A 
ATOM     13  C   UNL     1       2.925   3.691  17.861  0.00  0.00    +0.000 A 
ATOM     14  C   UNL     1       2.215   2.488  17.915  0.00  0.00    +0.000 A 
ATOM     15  C   UNL     1       1.181   2.338  18.825  0.00  0.00    +0.000 A 
ATOM     16  C   UNL     1       0.914   3.393  19.676  0.00  0.00    +0.000 A 
ATOM     17  N   UNL     1       1.547   4.589  19.625  0.00  0.00    +0.000 NA
ATOM     18  C   UNL     1       2.532   4.758  18.708  0.00  0.00    +0.000 A 
ENDBRANCH   7   9
ENDBRANCH   2   5
BRANCH   1  19
ATOM     19  C   UNL     1       0.075  11.313  19.781  0.00  0.00    +0.000 C 
BRANCH  19  23
ATOM     20  C   UNL     1      -3.826  11.449  17.861  0.00  0.00    +0.000 A 
ATOM     21  C   UNL     1      -2.717  10.908  17.202  0.00  0.00    +0.000 A 
ATOM     22  C   UNL     1      -1.462  10.897  17.814  0.00  0.00    +0.000 A 
ATOM     23  C   UNL     1      -1.287  11.418  19.105  0.00  0.00    +0.000 A 
ATOM     24  C   UNL     1      -2.395  11.994  19.746  0.00  0.00    +0.000 A 
ATOM     25  C   UNL     1      -3.651  12.006  19.132  0.00  0.00    +0.000 A 
BRANCH  20  27
ATOM     26  C   UNL     1      -6.242  11.001  18.288  0.00  0.00    +0.000 C 
ATOM     27  C   UNL     1      -5.197  11.362  17.242  0.00  0.00    +0.000 C 
ENDBRANCH  20  27
ENDBRANCH  19  23
BRANCH  19  28
ATOM     28  C   UNL     1       0.850  12.665  19.770  0.00  0.00    +0.000 C 
ATOM     29  C   UNL     1       1.950  12.700  18.701  0.00  0.00    +0.000 C 
ATOM     30  C   UNL     1      -0.093  13.854  19.532  0.00  0.00    +0.000 C 
ENDBRANCH  19  28
ENDBRANCH   1  19
TORSDOF 6
ENDMDL
MODEL 6
REMARK VINA RESULT:      -7.7      1.744      9.052
REMARK  Name = 
REMARK  9 active torsions:
REMARK  status: ('A' for Active; 'I' for Inactive)
REMARK    1  A    between atoms: C_1  and  C_2
REMARK    2  A    between atoms: C_2  and  C_3
REMARK    3  A    between atoms: C_6  and  C_7
REMARK    4  A    between atoms: C_7  and  N_8
REMARK    5  A    between atoms: C_7  and  C_24
REMARK    6  A    between atoms: C_9  and  C_11
REMARK    7  A    between atoms: N_13  and  C_14
REMARK    8  A    between atoms: C_24  and  C_25
REMARK    9  A    between atoms: C_24  and  C_26
REMARK                            x       y       z     vdW  Elec       q    Type
REMARK                         _______ _______ _______ _____ _____    ______ ____
ROOT
ATOM      1  N   UNL     1       2.696   6.698  18.160  0.00  0.00    +0.000 N 
ATOM      2  C   UNL     1       2.283   7.607  19.110  0.00  0.00    +0.000 C 
ATOM      3  O   UNL     1       2.449   7.542  20.317  0.00  0.00    +0.000 OA
ATOM      4  H   UNL     1       2.531   6.979  17.198  0.00  0.00    +0.000 HD
ENDROOT
BRANCH   2   5
ATOM      5  C   UNL     1       1.551   8.800  18.460  0.00  0.00    +0.000 C 
ATOM      6  O   UNL     1       1.947   9.134  17.344  0.00  0.00    +0.000 OA
ATOM      7  N   UNL     1       0.550   9.376  19.213  0.00  0.00    +0.000 N 
ATOM      8  H   UNL     1       0.283   8.913  20.085  0.00  0.00    +0.000 HD
BRANCH   7   9
ATOM      9  C   UNL     1      -0.092  10.615  18.948  0.00  0.00    +0.000 A 
ATOM     10  C   UNL     1      -1.226  10.690  18.126  0.00  0.00    +0.000 A 
ATOM     11  C   UNL     1      -1.800  11.919  17.798  0.00  0.00    +0.000 A 
ATOM     12  C   UNL     1      -1.212  13.084  18.256  0.00  0.00    +0.000 A 
ATOM     13  C   UNL     1      -0.062  13.030  19.056  0.00  0.00    +0.000 A 
ATOM     14  C   UNL     1       0.580  14.212  19.436  0.00  0.00    +0.000 A 
ATOM     15  C   UNL     1       1.707  14.157  20.239  0.00  0.00    +0.000 A 
ATOM     16  C   UNL     1       2.137  12.915  20.663  0.00  0.00    +0.000 A 
ATOM     17  N   UNL     1       1.571  11.745  20.281  0.00  0.00    +0.000 NA
ATOM     18  C   UNL     1       0.493  11.789  19.460  0.00  0.00    +0.000 A 
ENDBRANCH   7   9
ENDBRANCH   2   5
BRANCH   1  19
ATOM     19  C   UNL     1       3.490   5.515  18.425  0.00  0.00    +0.000 C 
BRANCH  19  23
ATOM     20  C   UNL     1       6.101   4.751  15.030  0.00  0.00    +0.000 A 
ATOM     21  C   UNL     1       5.733   3.721  15.902  0.00  0.00    +0.000 A 
ATOM     22  C   UNL     1       4.919   3.982  17.007  0.00  0.00    +0.000 A 
ATOM     23  C   UNL     1       4.446   5.277  17.262  0.00  0.00    +0.000 A 
ATOM     24  C   UNL     1       4.850   6.314  16.405  0.00  0.00    +0.000 A 
ATOM     25  C   UNL     1       5.665   6.053  15.300  0.00  0.00    +0.000 A 
BRANCH  20  27
ATOM     26  C   UNL     1       6.071   3.595  12.820  0.00  0.00    +0.000 C 
ATOM     27  C   UNL     1       6.888   4.447  13.781  0.00  0.00    +0.000 C 
ENDBRANCH  20  27
ENDBRANCH  19  23
BRANCH  19  28
ATOM     28  C   UNL     1       2.564   4.290  18.692  0.00  0.00    +0.000 C 
ATOM     29  C   UNL     1       2.046   4.253  20.136  0.00  0.00    +0.000 C 
ATOM     30  C   UNL     1       1.355   4.279  17.745  0.00  0.00    +0.000 C 
ENDBRANCH  19  28
ENDBRANCH   1  19
TORSDOF 6
ENDMDL
MODEL 7
REMARK VINA RESULT:      -7.7      1.556      8.824
REMARK  Name = 
REMARK  9 active torsions:
REMARK  status: ('A' for Active; 'I' for Inactive)
REMARK    1  A    between atoms: C_1  and  C_2
REMARK    2  A    between atoms: C_2  and  C_3
REMARK    3  A    between atoms: C_6  and  C_7
REMARK    4  A    between atoms: C_7  and  N_8
REMARK    5  A    between atoms: C_7  and  C_24
REMARK    6  A    between atoms: C_9  and  C_11
REMARK    7  A    between atoms: N_13  and  C_14
REMARK    8  A    between atoms: C_24  and  C_25
REMARK    9  A    between atoms: C_24  and  C_26
REMARK                            x       y       z     vdW  Elec       q    Type
REMARK                         _______ _______ _______ _____ _____    ______ ____
ROOT
ATOM      1  N   UNL     1       2.739   5.918  20.174  0.00  0.00    +0.000 N 
ATOM      2  C   UNL     1       2.318   6.826  19.227  0.00  0.00    +0.000 C 
ATOM      3  O   UNL     1       2.339   6.693  18.015  0.00  0.00    +0.000 OA
ATOM      4  H   UNL     1       2.559   6.189  21.138  0.00  0.00    +0.000 HD
ENDROOT
BRANCH   2   5
ATOM      5  C   UNL     1       1.772   8.110  19.888  0.00  0.00    +0.000 C 
ATOM      6  O   UNL     1       1.694   8.094  21.116  0.00  0.00    +0.000 OA
ATOM      7  N   UNL     1       1.409   9.123  19.027  0.00  0.00    +0.000 N 
ATOM      8  H   UNL     1       1.629   9.007  18.035  0.00  0.00    +0.000 HD
BRANCH   7   9
ATOM      9  C   UNL     1       0.664  10.285  19.365  0.00  0.00    +0.000 A 
ATOM     10  C   UNL     1       1.055  11.122  20.420  0.00  0.00    +0.000 A 
ATOM     11  C   UNL     1       0.273  12.211  20.805  0.00  0.00    +0.000 A 
ATOM     12  C   UNL     1      -0.930  12.442  20.162  0.00  0.00    +0.000 A 
ATOM     13  C   UNL     1      -1.350  11.598  19.124  0.00  0.00    +0.000 A 
ATOM     14  C   UNL     1      -2.609  11.781  18.544  0.00  0.00    +0.000 A 
ATOM     15  C   UNL     1      -3.016  10.957  17.508  0.00  0.00    +0.000 A 
ATOM     16  C   UNL     1      -2.131   9.994  17.063  0.00  0.00    +0.000 A 
ATOM     17  N   UNL     1      -0.923   9.755  17.627  0.00  0.00    +0.000 NA
ATOM     18  C   UNL     1      -0.535  10.531  18.670  0.00  0.00    +0.000 A 
ENDBRANCH   7   9
ENDBRANCH   2   5
BRANCH   1  19
ATOM     19  C   UNL     1       3.217   4.579  19.895  0.00  0.00    +0.000 C 
BRANCH  19  23
ATOM     20  C   UNL     1       6.136   4.847  16.680  0.00  0.00    +0.000 A 
ATOM     21  C   UNL     1       4.941   4.140  16.511  0.00  0.00    +0.000 A 
ATOM     22  C   UNL     1       4.024   4.033  17.559  0.00  0.00    +0.000 A 
ATOM     23  C   UNL     1       4.275   4.639  18.799  0.00  0.00    +0.000 A 
ATOM     24  C   UNL     1       5.493   5.316  18.975  0.00  0.00    +0.000 A 
ATOM     25  C   UNL     1       6.412   5.422  17.926  0.00  0.00    +0.000 A 
BRANCH  20  27
ATOM     26  C   UNL     1       6.489   4.458  14.242  0.00  0.00    +0.000 C 
ATOM     27  C   UNL     1       7.072   5.052  15.516  0.00  0.00    +0.000 C 
ENDBRANCH  20  27
ENDBRANCH  19  23
BRANCH  19  28
ATOM     28  C   UNL     1       2.027   3.645  19.521  0.00  0.00    +0.000 C 
ATOM     29  C   UNL     1       2.389   2.159  19.645  0.00  0.00    +0.000 C 
ATOM     30  C   UNL     1       0.798   3.918  20.402  0.00  0.00    +0.000 C 
ENDBRANCH  19  28
ENDBRANCH   1  19
TORSDOF 6
ENDMDL
MODEL 8
REMARK VINA RESULT:      -7.6      1.732      8.899
REMARK  Name = 
REMARK  9 active torsions:
REMARK  status: ('A' for Active; 'I' for Inactive)
REMARK    1  A    between atoms: C_1  and  C_2
REMARK    2  A    between atoms: C_2  and  C_3
REMARK    3  A    between atoms: C_6  and  C_7
REMARK    4  A    between atoms: C_7  and  N_8
REMARK    5  A    between atoms: C_7  and  C_24
REMARK    6  A    between atoms: C_9  and  C_11
REMARK    7  A    between atoms: N_13  and  C_14
REMARK    8  A    between atoms: C_24  and  C_25
REMARK    9  A    between atoms: C_24  and  C_26
REMARK                            x       y       z     vdW  Elec       q    Type
REMARK                         _______ _______ _______ _____ _____    ______ ____
ROOT
ATOM      1  N   UNL     1       2.883   6.583  17.972  0.00  0.00    +0.000 N 
ATOM      2  C   UNL     1       2.459   7.433  18.971  0.00  0.00    +0.000 C 
ATOM      3  O   UNL     1       2.580   7.278  20.175  0.00  0.00    +0.000 OA
ATOM      4  H   UNL     1       2.759   6.936  17.027  0.00  0.00    +0.000 HD
ENDROOT
BRANCH   2   5
ATOM      5  C   UNL     1       1.780   8.689  18.384  0.00  0.00    +0.000 C 
ATOM      6  O   UNL     1       2.141   9.021  17.256  0.00  0.00    +0.000 OA
ATOM      7  N   UNL     1       0.862   9.315  19.201  0.00  0.00    +0.000 N 
ATOM      8  H   UNL     1       0.609   8.851  20.076  0.00  0.00    +0.000 HD
BRANCH   7   9
ATOM      9  C   UNL     1       0.296  10.602  18.994  0.00  0.00    +0.000 A 
ATOM     10  C   UNL     1       0.971  11.768  19.382  0.00  0.00    +0.000 A 
ATOM     11  C   UNL     1       0.374  13.022  19.258  0.00  0.00    +0.000 A 
ATOM     12  C   UNL     1      -0.924  13.111  18.786  0.00  0.00    +0.000 A 
ATOM     13  C   UNL     1      -1.624  11.953  18.420  0.00  0.00    +0.000 A 
ATOM     14  C   UNL     1      -2.965  12.042  18.034  0.00  0.00    +0.000 A 
ATOM     15  C   UNL     1      -3.651  10.899  17.659  0.00  0.00    +0.000 A 
ATOM     16  C   UNL     1      -2.958   9.704  17.650  0.00  0.00    +0.000 A 
ATOM     17  N   UNL     1      -1.674   9.568  18.060  0.00  0.00    +0.000 NA
ATOM     18  C   UNL     1      -1.009  10.677  18.470  0.00  0.00    +0.000 A 
ENDBRANCH   7   9
ENDBRANCH   2   5
BRANCH   1  19
ATOM     19  C   UNL     1       3.637   5.363  18.177  0.00  0.00    +0.000 C 
BRANCH  19  23
ATOM     20  C   UNL     1       6.106   4.599  14.678  0.00  0.00    +0.000 A 
ATOM     21  C   UNL     1       5.721   3.558  15.529  0.00  0.00    +0.000 A 
ATOM     22  C   UNL     1       4.955   3.818  16.667  0.00  0.00    +0.000 A 
ATOM     23  C   UNL     1       4.546   5.123  16.977  0.00  0.00    +0.000 A 
ATOM     24  C   UNL     1       4.967   6.169  16.140  0.00  0.00    +0.000 A 
ATOM     25  C   UNL     1       5.735   5.909  15.001  0.00  0.00    +0.000 A 
BRANCH  20  27
ATOM     26  C   UNL     1       7.918   5.345  13.134  0.00  0.00    +0.000 C 
ATOM     27  C   UNL     1       6.840   4.303  13.395  0.00  0.00    +0.000 C 
ENDBRANCH  20  27
ENDBRANCH  19  23
BRANCH  19  28
ATOM     28  C   UNL     1       2.672   4.167  18.441  0.00  0.00    +0.000 C 
ATOM     29  C   UNL     1       2.324   4.014  19.927  0.00  0.00    +0.000 C 
ATOM     30  C   UNL     1       1.363   4.314  17.650  0.00  0.00    +0.000 C 
ENDBRANCH  19  28
ENDBRANCH   1  19
TORSDOF 6
ENDMDL
MODEL 9
REMARK VINA RESULT:      -7.5      1.752      3.235
REMARK  Name = 
REMARK  9 active torsions:
REMARK  status: ('A' for Active; 'I' for Inactive)
REMARK    1  A    between atoms: C_1  and  C_2
REMARK    2  A    between atoms: C_2  and  C_3
REMARK    3  A    between atoms: C_6  and  C_7
REMARK    4  A    between atoms: C_7  and  N_8
REMARK    5  A    between atoms: C_7  and  C_24
REMARK    6  A    between atoms: C_9  and  C_11
REMARK    7  A    between atoms: N_13  and  C_14
REMARK    8  A    between atoms: C_24  and  C_25
REMARK    9  A    between atoms: C_24  and  C_26
REMARK                            x       y       z     vdW  Elec       q    Type
REMARK                         _______ _______ _______ _____ _____    ______ ____
ROOT
ATOM      1  N   UNL     1       0.214   9.451  18.206  0.00  0.00    +0.000 N 
ATOM      2  C   UNL     1       1.576   9.534  18.010  0.00  0.00    +0.000 C 
ATOM      3  O   UNL     1       2.206  10.492  17.593  0.00  0.00    +0.000 OA
ATOM      4  H   UNL     1      -0.105   8.589  18.640  0.00  0.00    +0.000 HD
ENDROOT
BRANCH   2   5
ATOM      5  C   UNL     1       2.278   8.216  18.403  0.00  0.00    +0.000 C 
ATOM      6  O   UNL     1       2.179   7.883  19.583  0.00  0.00    +0.000 OA
ATOM      7  N   UNL     1       2.960   7.572  17.393  0.00  0.00    +0.000 N 
ATOM      8  H   UNL     1       2.862   7.938  16.443  0.00  0.00    +0.000 HD
BRANCH   7   9
ATOM      9  C   UNL     1       3.875   6.497  17.552  0.00  0.00    +0.000 A 
ATOM     10  C   UNL     1       5.260   6.696  17.461  0.00  0.00    +0.000 A 
ATOM     11  C   UNL     1       6.149   5.623  17.530  0.00  0.00    +0.000 A 
ATOM     12  C   UNL     1       5.652   4.337  17.645  0.00  0.00    +0.000 A 
ATOM     13  C   UNL     1       4.268   4.117  17.710  0.00  0.00    +0.000 A 
ATOM     14  C   UNL     1       3.771   2.811  17.731  0.00  0.00    +0.000 A 
ATOM     15  C   UNL     1       2.405   2.595  17.810  0.00  0.00    +0.000 A 
ATOM     16  C   UNL     1       1.581   3.701  17.899  0.00  0.00    +0.000 A 
ATOM     17  N   UNL     1       2.019   4.981  17.835  0.00  0.00    +0.000 NA
ATOM     18  C   UNL     1       3.352   5.200  17.715  0.00  0.00    +0.000 A 
ENDBRANCH   7   9
ENDBRANCH   2   5
BRANCH   1  19
ATOM     19  C   UNL     1      -0.724  10.539  18.023  0.00  0.00    +0.000 C 
BRANCH  19  23
ATOM     20  C   UNL     1      -1.782  12.127  21.932  0.00  0.00    +0.000 A 
ATOM     21  C   UNL     1      -0.924  11.029  21.809  0.00  0.00    +0.000 A 
ATOM     22  C   UNL     1      -0.615  10.507  20.551  0.00  0.00    +0.000 A 
ATOM     23  C   UNL     1      -1.149  11.076  19.385  0.00  0.00    +0.000 A 
ATOM     24  C   UNL     1      -2.039  12.153  19.517  0.00  0.00    +0.000 A 
ATOM     25  C   UNL     1      -2.350  12.675  20.777  0.00  0.00    +0.000 A 
BRANCH  20  27
ATOM     26  C   UNL     1      -3.468  12.541  23.723  0.00  0.00    +0.000 C 
ATOM     27  C   UNL     1      -2.027  12.754  23.281  0.00  0.00    +0.000 C 
ENDBRANCH  20  27
ENDBRANCH  19  23
BRANCH  19  28
ATOM     28  C   UNL     1      -1.938  10.070  17.164  0.00  0.00    +0.000 C 
ATOM     29  C   UNL     1      -3.095   9.546  18.025  0.00  0.00    +0.000 C 
ATOM     30  C   UNL     1      -2.472  11.204  16.276  0.00  0.00    +0.000 C 
ENDBRANCH  19  28
ENDBRANCH   1  19
TORSDOF 6
ENDMDL
