MODEL 1
REMARK VINA RESULT:      -6.9      0.000      0.000
REMARK  Name = 
REMARK  8 active torsions:
REMARK  status: ('A' for Active; 'I' for Inactive)
REMARK    1  A    between atoms: C_1  and  C_2
REMARK    2  A    between atoms: C_2  and  C_3
REMARK    3  A    between atoms: C_2  and  O_4
REMARK    4  A    between atoms: O_4  and  C_5
REMARK    5  A    between atoms: C_8  and  C_9
REMARK    6  A    between atoms: C_9  and  C_10
REMARK    7  A    between atoms: C_10  and  N_11
REMARK    8  A    between atoms: C_12  and  N_14
REMARK                            x       y       z     vdW  Elec       q    Type
REMARK                         _______ _______ _______ _____ _____    ______ ____
ROOT
ATOM      1  C   UNL     1       6.774   5.725  15.445  0.00  0.00    +0.000 C 
ENDROOT
BRANCH   1   2
ATOM      2  N   UNL     1       7.423   5.429  16.730  0.00  0.00    +0.000 NA
ATOM      3  C   UNL     1       7.578   6.463  17.495  0.00  0.00    +0.000 C 
ATOM      4  N   UNL     1       7.176   7.737  17.227  0.00  0.00    +0.000 N 
ATOM      5  H   UNL     1       6.425   7.841  16.562  0.00  0.00    +0.000 HD
ATOM      6  H   UNL     1       7.017   8.254  18.086  0.00  0.00    +0.000 HD
BRANCH   3   7
ATOM      7  N   UNL     1       8.124   6.326  18.737  0.00  0.00    +0.000 NA
ATOM      8  C   UNL     1       7.625   5.544  19.628  0.00  0.00    +0.000 C 
ATOM      9  N   UNL     1       6.514   4.779  19.575  0.00  0.00    +0.000 N 
ATOM     10  N   UNL     1       8.291   5.380  20.797  0.00  0.00    +0.000 N 
ATOM     11  H   UNL     1       5.881   5.088  18.837  0.00  0.00    +0.000 HD
ATOM     12  H   UNL     1       6.054   4.571  20.445  0.00  0.00    +0.000 HD
ATOM     13  H   UNL     1       9.066   6.028  20.865  0.00  0.00    +0.000 HD
ATOM     14  H   UNL     1       7.724   5.383  21.632  0.00  0.00    +0.000 HD
ENDBRANCH   3   7
ENDBRANCH   1   2
BRANCH   1  15
ATOM     15  C   UNL     1       5.584   4.804  15.181  0.00  0.00    +0.000 C 
BRANCH  15  19
ATOM     16  C   UNL     1       2.911   4.469  18.613  0.00  0.00    +0.000 A 
ATOM     17  C   UNL     1       3.556   3.333  18.110  0.00  0.00    +0.000 A 
ATOM     18  C   UNL     1       4.428   3.417  17.019  0.00  0.00    +0.000 A 
ATOM     19  C   UNL     1       4.661   4.642  16.378  0.00  0.00    +0.000 A 
ATOM     20  C   UNL     1       4.054   5.783  16.918  0.00  0.00    +0.000 A 
ATOM     21  C   UNL     1       3.212   5.709  18.040  0.00  0.00    +0.000 A 
ATOM     22 CL   UNL     1       2.705   7.230  18.685  0.00  0.00    +0.000 Cl
BRANCH  16  23
ATOM     23  O   UNL     1       2.115   4.211  19.699  0.00  0.00    +0.000 OA
BRANCH  23  25
ATOM     24  C   UNL     1       1.667   2.708  21.532  0.00  0.00    +0.000 C 
ATOM     25  C   UNL     1       1.831   2.843  20.017  0.00  0.00    +0.000 C 
ATOM     26  C   UNL     1       0.521   2.468  19.331  0.00  0.00    +0.000 C 
ENDBRANCH  23  25
ENDBRANCH  16  23
ENDBRANCH  15  19
ENDBRANCH   1  15
TORSDOF 6
ENDMDL
MODEL 2
REMARK VINA RESULT:      -6.8      3.217      5.616
REMARK  Name = 
REMARK  8 active torsions:
REMARK  status: ('A' for Active; 'I' for Inactive)
REMARK    1  A    between atoms: C_1  and  C_2
REMARK    2  A    between atoms: C_2  and  C_3
REMARK    3  A    between atoms: C_2  and  O_4
REMARK    4  A    between atoms: O_4  and  C_5
REMARK    5  A    between atoms: C_8  and  C_9
REMARK    6  A    between atoms: C_9  and  C_10
REMARK    7  A    between atoms: C_10  and  N_11
REMARK    8  A    between atoms: C_12  and  N_14
REMARK                            x       y       z     vdW  Elec       q    Type
REMARK                         _______ _______ _______ _____ _____    ______ ____
ROOT
ATOM      1  C   UNL     1       0.978   3.508  19.189  0.00  0.00    +0.000 C 
ENDROOT
BRANCH   1   2
ATOM      2  N   UNL     1       2.044   2.604  19.645  0.00  0.00    +0.000 NA
ATOM      3  C   UNL     1       2.552   2.923  20.794  0.00  0.00    +0.000 C 
ATOM      4  N   UNL     1       2.170   3.962  21.588  0.00  0.00    +0.000 N 
ATOM      5  H   UNL     1       1.233   4.309  21.456  0.00  0.00    +0.000 HD
ATOM      6  H   UNL     1       2.387   3.772  22.561  0.00  0.00    +0.000 HD
BRANCH   3   7
ATOM      7  N   UNL     1       3.518   2.145  21.359  0.00  0.00    +0.000 NA
ATOM      8  C   UNL     1       4.623   1.873  20.761  0.00  0.00    +0.000 C 
ATOM      9  N   UNL     1       5.038   2.218  19.524  0.00  0.00    +0.000 N 
ATOM     10  N   UNL     1       5.577   1.185  21.436  0.00  0.00    +0.000 N 
ATOM     11  H   UNL     1       4.256   2.490  18.928  0.00  0.00    +0.000 HD
ATOM     12  H   UNL     1       5.701   1.610  19.072  0.00  0.00    +0.000 HD
ATOM     13  H   UNL     1       5.221   0.851  22.323  0.00  0.00    +0.000 HD
ATOM     14  H   UNL     1       6.045   0.456  20.919  0.00  0.00    +0.000 HD
ENDBRANCH   3   7
ENDBRANCH   1   2
BRANCH   1  15
ATOM     15  C   UNL     1       1.261   4.064  17.795  0.00  0.00    +0.000 C 
BRANCH  15  19
ATOM     16  C   UNL     1       5.361   5.431  17.192  0.00  0.00    +0.000 A 
ATOM     17  C   UNL     1       4.548   6.045  18.152  0.00  0.00    +0.000 A 
ATOM     18  C   UNL     1       3.234   5.616  18.373  0.00  0.00    +0.000 A 
ATOM     19  C   UNL     1       2.682   4.573  17.617  0.00  0.00    +0.000 A 
ATOM     20  C   UNL     1       3.516   3.928  16.695  0.00  0.00    +0.000 A 
ATOM     21  C   UNL     1       4.849   4.327  16.501  0.00  0.00    +0.000 A 
ATOM     22 CL   UNL     1       5.785   3.304  15.469  0.00  0.00    +0.000 Cl
BRANCH  16  23
ATOM     23  O   UNL     1       6.624   5.957  17.125  0.00  0.00    +0.000 OA
BRANCH  23  25
ATOM     24  C   UNL     1       7.996   5.966  19.110  0.00  0.00    +0.000 C 
ATOM     25  C   UNL     1       7.068   6.783  18.209  0.00  0.00    +0.000 C 
ATOM     26  C   UNL     1       7.844   7.955  17.614  0.00  0.00    +0.000 C 
ENDBRANCH  23  25
ENDBRANCH  16  23
ENDBRANCH  15  19
ENDBRANCH   1  15
TORSDOF 6
ENDMDL
MODEL 3
REMARK VINA RESULT:      -6.6      2.148      3.675
REMARK  Name = 
REMARK  8 active torsions:
REMARK  status: ('A' for Active; 'I' for Inactive)
REMARK    1  A    between atoms: C_1  and  C_2
REMARK    2  A    between atoms: C_2  and  C_3
REMARK    3  A    between atoms: C_2  and  O_4
REMARK    4  A    between atoms: O_4  and  C_5
REMARK    5  A    between atoms: C_8  and  C_9
REMARK    6  A    between atoms: C_9  and  C_10
REMARK    7  A    between atoms: C_10  and  N_11
REMARK    8  A    between atoms: C_12  and  N_14
REMARK                            x       y       z     vdW  Elec       q    Type
REMARK                         _______ _______ _______ _____ _____    ______ ____
ROOT
ATOM      1  C   UNL     1       7.427   6.145  16.672  0.00  0.00    +0.000 C 
ENDROOT
BRANCH   1   2
ATOM      2  N   UNL     1       7.254   4.953  15.830  0.00  0.00    +0.000 NA
ATOM      3  C   UNL     1       6.235   5.013  15.032  0.00  0.00    +0.000 C 
ATOM      4  N   UNL     1       5.372   6.058  14.896  0.00  0.00    +0.000 N 
ATOM      5  H   UNL     1       5.717   6.965  15.171  0.00  0.00    +0.000 HD
ATOM      6  H   UNL     1       4.950   6.061  13.973  0.00  0.00    +0.000 HD
BRANCH   3   7
ATOM      7  N   UNL     1       5.981   3.995  14.161  0.00  0.00    +0.000 NA
ATOM      8  C   UNL     1       6.579   3.892  13.026  0.00  0.00    +0.000 C 
ATOM      9  N   UNL     1       7.481   4.716  12.453  0.00  0.00    +0.000 N 
ATOM     10  N   UNL     1       6.353   2.791  12.268  0.00  0.00    +0.000 N 
ATOM     11  H   UNL     1       7.458   5.647  12.870  0.00  0.00    +0.000 HD
ATOM     12  H   UNL     1       7.529   4.721  11.448  0.00  0.00    +0.000 HD
ATOM     13  H   UNL     1       5.606   2.230  12.661  0.00  0.00    +0.000 HD
ATOM     14  H   UNL     1       6.222   2.954  11.281  0.00  0.00    +0.000 HD
ENDBRANCH   3   7
ENDBRANCH   1   2
BRANCH   1  15
ATOM     15  C   UNL     1       7.230   5.830  18.153  0.00  0.00    +0.000 C 
BRANCH  15  19
ATOM     16  C   UNL     1       3.102   4.803  19.125  0.00  0.00    +0.000 A 
ATOM     17  C   UNL     1       4.138   3.911  19.424  0.00  0.00    +0.000 A 
ATOM     18  C   UNL     1       5.472   4.223  19.134  0.00  0.00    +0.000 A 
ATOM     19  C   UNL     1       5.807   5.432  18.508  0.00  0.00    +0.000 A 
ATOM     20  C   UNL     1       4.772   6.342  18.259  0.00  0.00    +0.000 A 
ATOM     21  C   UNL     1       3.438   6.051  18.589  0.00  0.00    +0.000 A 
ATOM     22 CL   UNL     1       2.324   7.357  18.389  0.00  0.00    +0.000 Cl
BRANCH  16  23
ATOM     23  O   UNL     1       1.864   4.350  19.499  0.00  0.00    +0.000 OA
BRANCH  23  25
ATOM     24  C   UNL     1       1.212   2.831  21.257  0.00  0.00    +0.000 C 
ATOM     25  C   UNL     1       1.724   2.961  19.821  0.00  0.00    +0.000 C 
ATOM     26  C   UNL     1       0.698   2.363  18.863  0.00  0.00    +0.000 C 
ENDBRANCH  23  25
ENDBRANCH  16  23
ENDBRANCH  15  19
ENDBRANCH   1  15
TORSDOF 6
ENDMDL
MODEL 4
REMARK VINA RESULT:      -6.6      2.745      4.343
REMARK  Name = 
REMARK  8 active torsions:
REMARK  status: ('A' for Active; 'I' for Inactive)
REMARK    1  A    between atoms: C_1  and  C_2
REMARK    2  A    between atoms: C_2  and  C_3
REMARK    3  A    between atoms: C_2  and  O_4
REMARK    4  A    between atoms: O_4  and  C_5
REMARK    5  A    between atoms: C_8  and  C_9
REMARK    6  A    between atoms: C_9  and  C_10
REMARK    7  A    between atoms: C_10  and  N_11
REMARK    8  A    between atoms: C_12  and  N_14
REMARK                            x       y       z     vdW  Elec       q    Type
REMARK                         _______ _______ _______ _____ _____    ______ ____
ROOT
ATOM      1  C   UNL     1       7.149   5.558  16.285  0.00  0.00    +0.000 C 
ENDROOT
BRANCH   1   2
ATOM      2  N   UNL     1       6.360   5.439  15.050  0.00  0.00    +0.000 NA
ATOM      3  C   UNL     1       5.943   4.237  14.802  0.00  0.00    +0.000 C 
ATOM      4  N   UNL     1       6.141   3.135  15.577  0.00  0.00    +0.000 N 
ATOM      5  H   UNL     1       6.326   3.299  16.554  0.00  0.00    +0.000 HD
ATOM      6  H   UNL     1       5.408   2.450  15.424  0.00  0.00    +0.000 HD
BRANCH   3   7
ATOM      7  N   UNL     1       5.161   3.991  13.713  0.00  0.00    +0.000 NA
ATOM      8  C   UNL     1       5.642   3.562  12.600  0.00  0.00    +0.000 C 
ATOM      9  N   UNL     1       6.925   3.320  12.255  0.00  0.00    +0.000 N 
ATOM     10  N   UNL     1       4.785   3.236  11.601  0.00  0.00    +0.000 N 
ATOM     11  H   UNL     1       7.577   3.799  12.876  0.00  0.00    +0.000 HD
ATOM     12  H   UNL     1       7.163   3.393  11.280  0.00  0.00    +0.000 HD
ATOM     13  H   UNL     1       3.838   3.511  11.835  0.00  0.00    +0.000 HD
ATOM     14  H   UNL     1       5.048   3.542  10.677  0.00  0.00    +0.000 HD
ENDBRANCH   3   7
ENDBRANCH   1   2
BRANCH   1  15
ATOM     15  C   UNL     1       6.384   6.299  17.380  0.00  0.00    +0.000 C 
BRANCH  15  19
ATOM     16  C   UNL     1       2.881   4.127  18.812  0.00  0.00    +0.000 A 
ATOM     17  C   UNL     1       2.731   5.196  17.921  0.00  0.00    +0.000 A 
ATOM     18  C   UNL     1       3.840   5.899  17.437  0.00  0.00    +0.000 A 
ATOM     19  C   UNL     1       5.137   5.570  17.854  0.00  0.00    +0.000 A 
ATOM     20  C   UNL     1       5.285   4.467  18.704  0.00  0.00    +0.000 A 
ATOM     21  C   UNL     1       4.178   3.731  19.157  0.00  0.00    +0.000 A 
ATOM     22 CL   UNL     1       4.556   2.294  20.040  0.00  0.00    +0.000 Cl
BRANCH  16  23
ATOM     23  O   UNL     1       1.696   3.535  19.162  0.00  0.00    +0.000 OA
BRANCH  23  25
ATOM     24  C   UNL     1       1.329   2.843  21.445  0.00  0.00    +0.000 C 
ATOM     25  C   UNL     1       1.085   3.930  20.397  0.00  0.00    +0.000 C 
ATOM     26  C   UNL     1       1.748   5.228  20.850  0.00  0.00    +0.000 C 
ENDBRANCH  23  25
ENDBRANCH  16  23
ENDBRANCH  15  19
ENDBRANCH   1  15
TORSDOF 6
ENDMDL
MODEL 5
REMARK VINA RESULT:      -6.6      1.831      3.163
REMARK  Name = 
REMARK  8 active torsions:
REMARK  status: ('A' for Active; 'I' for Inactive)
REMARK    1  A    between atoms: C_1  and  C_2
REMARK    2  A    between atoms: C_2  and  C_3
REMARK    3  A    between atoms: C_2  and  O_4
REMARK    4  A    between atoms: O_4  and  C_5
REMARK    5  A    between atoms: C_8  and  C_9
REMARK    6  A    between atoms: C_9  and  C_10
REMARK    7  A    between atoms: C_10  and  N_11
REMARK    8  A    between atoms: C_12  and  N_14
REMARK                            x       y       z     vdW  Elec       q    Type
REMARK                         _______ _______ _______ _____ _____    ______ ____
ROOT
ATOM      1  C   UNL     1       7.496   6.685  17.568  0.00  0.00    +0.000 C 
ENDROOT
BRANCH   1   2
ATOM      2  N   UNL     1       7.597   5.829  16.378  0.00  0.00    +0.000 NA
ATOM      3  C   UNL     1       6.600   5.944  15.556  0.00  0.00    +0.000 C 
ATOM      4  N   UNL     1       5.534   6.782  15.689  0.00  0.00    +0.000 N 
ATOM      5  H   UNL     1       5.671   7.596  16.268  0.00  0.00    +0.000 HD
ATOM      6  H   UNL     1       5.135   7.005  14.783  0.00  0.00    +0.000 HD
BRANCH   3   7
ATOM      7  N   UNL     1       6.586   5.242  14.388  0.00  0.00    +0.000 NA
ATOM      8  C   UNL     1       6.295   3.991  14.338  0.00  0.00    +0.000 C 
ATOM      9  N   UNL     1       6.007   3.135  15.341  0.00  0.00    +0.000 N 
ATOM     10  N   UNL     1       6.194   3.393  13.125  0.00  0.00    +0.000 N 
ATOM     11  H   UNL     1       6.332   3.489  16.241  0.00  0.00    +0.000 HD
ATOM     12  H   UNL     1       6.208   2.160  15.190  0.00  0.00    +0.000 HD
ATOM     13  H   UNL     1       6.505   4.016  12.389  0.00  0.00    +0.000 HD
ATOM     14  H   UNL     1       6.615   2.479  13.047  0.00  0.00    +0.000 HD
ENDBRANCH   3   7
ENDBRANCH   1   2
BRANCH   1  15
ATOM     15  C   UNL     1       7.171   5.879  18.824  0.00  0.00    +0.000 C 
BRANCH  15  19
ATOM     16  C   UNL     1       3.015   4.561  18.991  0.00  0.00    +0.000 A 
ATOM     17  C   UNL     1       4.038   3.635  18.759  0.00  0.00    +0.000 A 
ATOM     18  C   UNL     1       5.380   4.031  18.714  0.00  0.00    +0.000 A 
ATOM     19  C   UNL     1       5.738   5.377  18.874  0.00  0.00    +0.000 A 
ATOM     20  C   UNL     1       4.715   6.290  19.158  0.00  0.00    +0.000 A 
ATOM     21  C   UNL     1       3.371   5.889  19.247  0.00  0.00    +0.000 A 
ATOM     22 CL   UNL     1       2.271   7.106  19.791  0.00  0.00    +0.000 Cl
BRANCH  16  23
ATOM     23  O   UNL     1       1.766   3.999  19.030  0.00  0.00    +0.000 OA
BRANCH  23  25
ATOM     24  C   UNL     1       1.289   2.916  21.132  0.00  0.00    +0.000 C 
ATOM     25  C   UNL     1       1.622   2.717  19.653  0.00  0.00    +0.000 C 
ATOM     26  C   UNL     1       0.467   1.993  18.967  0.00  0.00    +0.000 C 
ENDBRANCH  23  25
ENDBRANCH  16  23
ENDBRANCH  15  19
ENDBRANCH   1  15
TORSDOF 6
ENDMDL
MODEL 6
REMARK VINA RESULT:      -6.5      2.046      3.519
REMARK  Name = 
REMARK  8 active torsions:
REMARK  status: ('A' for Active; 'I' for Inactive)
REMARK    1  A    between atoms: C_1  and  C_2
REMARK    2  A    between atoms: C_2  and  C_3
REMARK    3  A    between atoms: C_2  and  O_4
REMARK    4  A    between atoms: O_4  and  C_5
REMARK    5  A    between atoms: C_8  and  C_9
REMARK    6  A    between atoms: C_9  and  C_10
REMARK    7  A    between atoms: C_10  and  N_11
REMARK    8  A    between atoms: C_12  and  N_14
REMARK                            x       y       z     vdW  Elec       q    Type
REMARK                         _______ _______ _______ _____ _____    ______ ____
ROOT
ATOM      1  C   UNL     1       7.559   6.120  18.445  0.00  0.00    +0.000 C 
ENDROOT
BRANCH   1   2
ATOM      2  N   UNL     1       7.651   5.366  17.187  0.00  0.00    +0.000 NA
ATOM      3  C   UNL     1       6.926   5.850  16.227  0.00  0.00    +0.000 C 
ATOM      4  N   UNL     1       6.149   6.967  16.282  0.00  0.00    +0.000 N 
ATOM      5  H   UNL     1       6.394   7.651  16.980  0.00  0.00    +0.000 HD
ATOM      6  H   UNL     1       6.031   7.371  15.358  0.00  0.00    +0.000 HD
BRANCH   3   7
ATOM      7  N   UNL     1       6.951   5.276  14.990  0.00  0.00    +0.000 NA
ATOM      8  C   UNL     1       6.503   4.091  14.769  0.00  0.00    +0.000 C 
ATOM      9  N   UNL     1       5.991   3.191  15.635  0.00  0.00    +0.000 N 
ATOM     10  N   UNL     1       6.462   3.638  13.492  0.00  0.00    +0.000 N 
ATOM     11  H   UNL     1       6.257   3.403  16.597  0.00  0.00    +0.000 HD
ATOM     12  H   UNL     1       6.077   2.217  15.394  0.00  0.00    +0.000 HD
ATOM     13  H   UNL     1       6.934   4.279  12.866  0.00  0.00    +0.000 HD
ATOM     14  H   UNL     1       6.763   2.685  13.352  0.00  0.00    +0.000 HD
ENDBRANCH   3   7
ENDBRANCH   1   2
BRANCH   1  15
ATOM     15  C   UNL     1       6.877   5.311  19.546  0.00  0.00    +0.000 C 
BRANCH  15  19
ATOM     16  C   UNL     1       2.725   4.275  18.695  0.00  0.00    +0.000 A 
ATOM     17  C   UNL     1       3.073   5.597  18.994  0.00  0.00    +0.000 A 
ATOM     18  C   UNL     1       4.400   5.956  19.258  0.00  0.00    +0.000 A 
ATOM     19  C   UNL     1       5.419   4.994  19.257  0.00  0.00    +0.000 A 
ATOM     20  C   UNL     1       5.073   3.683  18.905  0.00  0.00    +0.000 A 
ATOM     21  C   UNL     1       3.749   3.327  18.597  0.00  0.00    +0.000 A 
ATOM     22 CL   UNL     1       3.536   1.718  18.002  0.00  0.00    +0.000 Cl
BRANCH  16  23
ATOM     23  O   UNL     1       1.390   4.104  18.438  0.00  0.00    +0.000 OA
BRANCH  23  25
ATOM     24  C   UNL     1       0.498   1.956  19.078  0.00  0.00    +0.000 C 
ATOM     25  C   UNL     1       0.592   3.442  19.428  0.00  0.00    +0.000 C 
ATOM     26  C   UNL     1       1.293   3.602  20.773  0.00  0.00    +0.000 C 
ENDBRANCH  23  25
ENDBRANCH  16  23
ENDBRANCH  15  19
ENDBRANCH   1  15
TORSDOF 6
ENDMDL
MODEL 7
REMARK VINA RESULT:      -6.5      2.979      4.499
REMARK  Name = 
REMARK  8 active torsions:
REMARK  status: ('A' for Active; 'I' for Inactive)
REMARK    1  A    between atoms: C_1  and  C_2
REMARK    2  A    between atoms: C_2  and  C_3
REMARK    3  A    between atoms: C_2  and  O_4
REMARK    4  A    between atoms: O_4  and  C_5
REMARK    5  A    between atoms: C_8  and  C_9
REMARK    6  A    between atoms: C_9  and  C_10
REMARK    7  A    between atoms: C_10  and  N_11
REMARK    8  A    between atoms: C_12  and  N_14
REMARK                            x       y       z     vdW  Elec       q    Type
REMARK                         _______ _______ _______ _____ _____    ______ ____
ROOT
ATOM      1  C   UNL     1       3.605   2.839  17.910  0.00  0.00    +0.000 C 
ENDROOT
BRANCH   1   2
ATOM      2  N   UNL     1       4.585   3.434  16.991  0.00  0.00    +0.000 NA
ATOM      3  C   UNL     1       5.596   3.989  17.583  0.00  0.00    +0.000 C 
ATOM      4  N   UNL     1       5.825   4.032  18.925  0.00  0.00    +0.000 N 
ATOM      5  H   UNL     1       5.379   3.319  19.481  0.00  0.00    +0.000 HD
ATOM      6  H   UNL     1       6.817   4.122  19.119  0.00  0.00    +0.000 HD
BRANCH   3   7
ATOM      7  N   UNL     1       6.606   4.540  16.851  0.00  0.00    +0.000 NA
ATOM      8  C   UNL     1       6.470   4.845  15.608  0.00  0.00    +0.000 C 
ATOM      9  N   UNL     1       5.412   4.666  14.790  0.00  0.00    +0.000 N 
ATOM     10  N   UNL     1       7.484   5.491  14.982  0.00  0.00    +0.000 N 
ATOM     11  H   UNL     1       4.768   3.965  15.157  0.00  0.00    +0.000 HD
ATOM     12  H   UNL     1       5.599   4.572  13.806  0.00  0.00    +0.000 HD
ATOM     13  H   UNL     1       8.305   5.534  15.574  0.00  0.00    +0.000 HD
ATOM     14  H   UNL     1       7.707   5.167  14.053  0.00  0.00    +0.000 HD
ENDBRANCH   3   7
ENDBRANCH   1   2
BRANCH   1  15
ATOM     15  C   UNL     1       2.233   3.499  17.785  0.00  0.00    +0.000 C 
BRANCH  15  19
ATOM     16  C   UNL     1       1.841   7.201  20.062  0.00  0.00    +0.000 A 
ATOM     17  C   UNL     1       1.656   5.965  20.691  0.00  0.00    +0.000 A 
ATOM     18  C   UNL     1       1.789   4.763  19.985  0.00  0.00    +0.000 A 
ATOM     19  C   UNL     1       2.087   4.764  18.616  0.00  0.00    +0.000 A 
ATOM     20  C   UNL     1       2.323   6.001  18.004  0.00  0.00    +0.000 A 
ATOM     21  C   UNL     1       2.233   7.207  18.719  0.00  0.00    +0.000 A 
ATOM     22 CL   UNL     1       2.741   8.617  17.858  0.00  0.00    +0.000 Cl
BRANCH  16  23
ATOM     23  O   UNL     1       1.700   8.272  20.905  0.00  0.00    +0.000 OA
BRANCH  23  25
ATOM     24  C   UNL     1      -0.143   9.016  22.272  0.00  0.00    +0.000 C 
ATOM     25  C   UNL     1       0.465   8.999  20.869  0.00  0.00    +0.000 C 
ATOM     26  C   UNL     1       0.779  10.428  20.435  0.00  0.00    +0.000 C 
ENDBRANCH  23  25
ENDBRANCH  16  23
ENDBRANCH  15  19
ENDBRANCH   1  15
TORSDOF 6
ENDMDL
MODEL 8
REMARK VINA RESULT:      -6.5      2.560      4.070
REMARK  Name = 
REMARK  8 active torsions:
REMARK  status: ('A' for Active; 'I' for Inactive)
REMARK    1  A    between atoms: C_1  and  C_2
REMARK    2  A    between atoms: C_2  and  C_3
REMARK    3  A    between atoms: C_2  and  O_4
REMARK    4  A    between atoms: O_4  and  C_5
REMARK    5  A    between atoms: C_8  and  C_9
REMARK    6  A    between atoms: C_9  and  C_10
REMARK    7  A    between atoms: C_10  and  N_11
REMARK    8  A    between atoms: C_12  and  N_14
REMARK                            x       y       z     vdW  Elec       q    Type
REMARK                         _______ _______ _______ _____ _____    ______ ____
ROOT
ATOM      1  C   UNL     1       7.465   4.612  16.255  0.00  0.00    +0.000 C 
ENDROOT
BRANCH   1   2
ATOM      2  N   UNL     1       6.365   4.123  15.412  0.00  0.00    +0.000 NA
ATOM      3  C   UNL     1       6.412   4.540  14.186  0.00  0.00    +0.000 C 
ATOM      4  N   UNL     1       7.373   5.332  13.636  0.00  0.00    +0.000 N 
ATOM      5  H   UNL     1       8.273   5.330  14.091  0.00  0.00    +0.000 HD
ATOM      6  H   UNL     1       7.438   5.180  12.634  0.00  0.00    +0.000 HD
BRANCH   3   7
ATOM      7  N   UNL     1       5.479   4.126  13.282  0.00  0.00    +0.000 NA
ATOM      8  C   UNL     1       5.747   3.280  12.351  0.00  0.00    +0.000 C 
ATOM      9  N   UNL     1       6.920   2.689  12.039  0.00  0.00    +0.000 N 
ATOM     10  N   UNL     1       4.737   2.837  11.563  0.00  0.00    +0.000 N 
ATOM     11  H   UNL     1       7.712   3.197  12.432  0.00  0.00    +0.000 HD
ATOM     12  H   UNL     1       7.054   2.401  11.084  0.00  0.00    +0.000 HD
ATOM     13  H   UNL     1       3.886   3.355  11.741  0.00  0.00    +0.000 HD
ATOM     14  H   UNL     1       4.941   2.775  10.577  0.00  0.00    +0.000 HD
ENDBRANCH   3   7
ENDBRANCH   1   2
BRANCH   1  15
ATOM     15  C   UNL     1       6.994   5.673  17.248  0.00  0.00    +0.000 C 
BRANCH  15  19
ATOM     16  C   UNL     1       3.126   4.836  19.086  0.00  0.00    +0.000 A 
ATOM     17  C   UNL     1       4.216   3.991  19.324  0.00  0.00    +0.000 A 
ATOM     18  C   UNL     1       5.470   4.246  18.757  0.00  0.00    +0.000 A 
ATOM     19  C   UNL     1       5.665   5.344  17.908  0.00  0.00    +0.000 A 
ATOM     20  C   UNL     1       4.585   6.215  17.715  0.00  0.00    +0.000 A 
ATOM     21  C   UNL     1       3.337   5.987  18.318  0.00  0.00    +0.000 A 
ATOM     22 CL   UNL     1       2.181   7.257  18.128  0.00  0.00    +0.000 Cl
BRANCH  16  23
ATOM     23  O   UNL     1       1.984   4.455  19.739  0.00  0.00    +0.000 OA
BRANCH  23  25
ATOM     24  C   UNL     1       1.280   2.871  21.418  0.00  0.00    +0.000 C 
ATOM     25  C   UNL     1       1.783   3.057  19.985  0.00  0.00    +0.000 C 
ATOM     26  C   UNL     1       0.721   2.561  19.008  0.00  0.00    +0.000 C 
ENDBRANCH  23  25
ENDBRANCH  16  23
ENDBRANCH  15  19
ENDBRANCH   1  15
TORSDOF 6
ENDMDL
MODEL 9
REMARK VINA RESULT:      -6.5      4.131      5.758
REMARK  Name = 
REMARK  8 active torsions:
REMARK  status: ('A' for Active; 'I' for Inactive)
REMARK    1  A    between atoms: C_1  and  C_2
REMARK    2  A    between atoms: C_2  and  C_3
REMARK    3  A    between atoms: C_2  and  O_4
REMARK    4  A    between atoms: O_4  and  C_5
REMARK    5  A    between atoms: C_8  and  C_9
REMARK    6  A    between atoms: C_9  and  C_10
REMARK    7  A    between atoms: C_10  and  N_11
REMARK    8  A    between atoms: C_12  and  N_14
REMARK                            x       y       z     vdW  Elec       q    Type
REMARK                         _______ _______ _______ _____ _____    ______ ____
ROOT
ATOM      1  C   UNL     1       4.820   6.254  17.784  0.00  0.00    +0.000 C 
ENDROOT
BRANCH   1   2
ATOM      2  N   UNL     1       4.798   5.627  16.455  0.00  0.00    +0.000 NA
ATOM      3  C   UNL     1       5.542   4.570  16.357  0.00  0.00    +0.000 C 
ATOM      4  N   UNL     1       6.281   4.005  17.352  0.00  0.00    +0.000 N 
ATOM      5  H   UNL     1       5.989   4.201  18.296  0.00  0.00    +0.000 HD
ATOM      6  H   UNL     1       6.421   3.014  17.180  0.00  0.00    +0.000 HD
BRANCH   3   7
ATOM      7  N   UNL     1       5.581   3.861  15.194  0.00  0.00    +0.000 NA
ATOM      8  C   UNL     1       6.348   4.184  14.213  0.00  0.00    +0.000 C 
ATOM      9  N   UNL     1       7.187   5.234  14.089  0.00  0.00    +0.000 N 
ATOM     10  N   UNL     1       6.409   3.364  13.136  0.00  0.00    +0.000 N 
ATOM     11  H   UNL     1       6.959   5.977  14.749  0.00  0.00    +0.000 HD
ATOM     12  H   UNL     1       7.382   5.563  13.158  0.00  0.00    +0.000 HD
ATOM     13  H   UNL     1       5.709   2.634  13.197  0.00  0.00    +0.000 HD
ATOM     14  H   UNL     1       6.402   3.817  12.234  0.00  0.00    +0.000 HD
ENDBRANCH   3   7
ENDBRANCH   1   2
BRANCH   1  15
ATOM     15  C   UNL     1       3.510   6.035  18.539  0.00  0.00    +0.000 C 
BRANCH  15  19
ATOM     16  C   UNL     1       1.096   9.623  19.120  0.00  0.00    +0.000 A 
ATOM     17  C   UNL     1       1.690   9.367  17.879  0.00  0.00    +0.000 A 
ATOM     18  C   UNL     1       2.458   8.217  17.664  0.00  0.00    +0.000 A 
ATOM     19  C   UNL     1       2.678   7.297  18.698  0.00  0.00    +0.000 A 
ATOM     20  C   UNL     1       2.039   7.531  19.922  0.00  0.00    +0.000 A 
ATOM     21  C   UNL     1       1.232   8.662  20.128  0.00  0.00    +0.000 A 
ATOM     22 CL   UNL     1       0.371   8.694  21.626  0.00  0.00    +0.000 Cl
BRANCH  16  23
ATOM     23  O   UNL     1       0.359  10.778  19.148  0.00  0.00    +0.000 OA
BRANCH  23  25
ATOM     24  C   UNL     1      -1.603  11.888  20.006  0.00  0.00    +0.000 C 
ATOM     25  C   UNL     1      -1.065  10.665  19.262  0.00  0.00    +0.000 C 
ATOM     26  C   UNL     1      -1.644  10.636  17.850  0.00  0.00    +0.000 C 
ENDBRANCH  23  25
ENDBRANCH  16  23
ENDBRANCH  15  19
ENDBRANCH   1  15
TORSDOF 6
ENDMDL
